@<TRIPOS>MOLECULE
ADIGAV
   122   128     2     0     0
SMALL
NO_CHARGES
****
Generated from the CSD

@<TRIPOS>ATOM
     1 Fe1      3.4917   6.1783   3.0409   Fe        1 RES1   0.0000
     2 N1       5.4373   4.9774   3.0313   N.3       1 RES1   0.0000
     3 N2       4.7381   7.4680   1.7864   N.3       1 RES1   0.0000
     4 N3       2.1023   4.9674   4.4387   N.3       1 RES1   0.0000
     5 N4       1.6201   7.3438   2.8323   N.3       1 RES1   0.0000
     6 O1       2.8916   5.0318   1.4098   O.co2     1 RES1   0.0000
     7 O2       2.6426   6.5748  -0.1957   O.co2     1 RES1   0.0000
     8 O3       3.9464   7.2365   4.7376   O.co2     1 RES1   0.0000
     9 O4       4.8742   9.1982   4.2030   O.co2     1 RES1   0.0000
    10 C1       8.7638   4.9491  -1.6560   C.3       1 RES1   0.0000
    11 H1       9.2874   4.2110  -1.3365   H         1 RES1   0.0000
    12 H2       8.9441   5.7257  -1.1210   H         1 RES1   0.0000
    13 H3       8.9929   5.1300  -2.5707   H         1 RES1   0.0000
    14 C2       7.2976   4.6050  -1.5640   C.ar      1 RES1   0.0000
    15 C3       6.8810   3.3696  -1.0912   C.ar      1 RES1   0.0000
    16 H4       7.5155   2.7521  -0.8076   H         1 RES1   0.0000
    17 C4       5.5323   3.0379  -1.0331   C.ar      1 RES1   0.0000
    18 H5       5.2817   2.1925  -0.7379   H         1 RES1   0.0000
    19 C5       4.5543   3.9461  -1.4064   C.ar      1 RES1   0.0000
    20 C6       4.9742   5.2014  -1.8639   C.ar      1 RES1   0.0000
    21 H6       4.3401   5.8356  -2.1092   H         1 RES1   0.0000
    22 C7       6.3172   5.5092  -1.9553   C.ar      1 RES1   0.0000
    23 H7       6.5710   6.3395  -2.2855   H         1 RES1   0.0000
    24 C8       3.1147   3.5654  -1.3990   C.ar      1 RES1   0.0000
    25 C9       2.7153   2.4503  -2.1382   C.ar      1 RES1   0.0000
    26 H8       3.3478   1.9611  -2.6120   H         1 RES1   0.0000
    27 C10      1.3888   2.0686  -2.1717   C.ar      1 RES1   0.0000
    28 H9       1.1350   1.3211  -2.6643   H         1 RES1   0.0000
    29 C11      0.4395   2.7895  -1.4797   C.ar      1 RES1   0.0000
    30 H10     -0.4511   2.5256  -1.5150   H         1 RES1   0.0000
    31 C12      0.7966   3.9118  -0.7266   C.ar      1 RES1   0.0000
    32 C13      2.1467   4.2891  -0.6798   C.ar      1 RES1   0.0000
    33 C14      2.5945   5.4157   0.2327   C.2       1 RES1   0.0000
    34 C15     -0.2694   4.6757  -0.0148   C.ar      1 RES1   0.0000
    35 C16     -1.1757   4.0306   0.8285   C.ar      1 RES1   0.0000
    36 H11     -1.0935   3.1164   0.9795   H         1 RES1   0.0000
    37 C17     -2.2006   4.7383   1.4460   C.ar      1 RES1   0.0000
    38 H12     -2.7889   4.2898   2.0091   H         1 RES1   0.0000
    39 C18     -2.3629   6.0972   1.2403   C.ar      1 RES1   0.0000
    40 C19     -1.4644   6.7404   0.3968   C.ar      1 RES1   0.0000
    41 H13     -1.5551   7.6540   0.2438   H         1 RES1   0.0000
    42 C20     -0.4381   6.0488  -0.2181   C.ar      1 RES1   0.0000
    43 H14      0.1507   6.5036  -0.7771   H         1 RES1   0.0000
    44 C21     -3.4805   6.8767   1.8789   C.3       1 RES1   0.0000
    45 H15     -4.0051   6.2919   2.4292   H         1 RES1   0.0000
    46 H16     -4.0370   7.2568   1.1950   H         1 RES1   0.0000
    47 H17     -3.1120   7.5801   2.4183   H         1 RES1   0.0000
    48 C22     -1.5426  10.5084   3.7727   C.3       1 RES1   0.0000
    49 H18     -2.3270  10.1484   4.1945   H         1 RES1   0.0000
    50 H19     -1.4282  10.1024   2.9102   H         1 RES1   0.0000
    51 H20     -1.6419  11.4580   3.6699   H         1 RES1   0.0000
    52 C23     -0.3410  10.2203   4.6237   C.ar      1 RES1   0.0000
    53 C24     -0.4480   9.5182   5.8192   C.ar      1 RES1   0.0000
    54 H21     -1.2869   9.2425   6.1122   H         1 RES1   0.0000
    55 C25      0.6656   9.2195   6.5836   C.ar      1 RES1   0.0000
    56 H22      0.5583   8.7502   7.3790   H         1 RES1   0.0000
    57 C26      1.9434   9.6062   6.1873   C.ar      1 RES1   0.0000
    58 C27      2.0561  10.3448   5.0047   C.ar      1 RES1   0.0000
    59 H23      2.8910  10.6473   4.7278   H         1 RES1   0.0000
    60 C28      0.9327  10.6309   4.2398   C.ar      1 RES1   0.0000
    61 H24      1.0349  11.1100   3.4479   H         1 RES1   0.0000
    62 C29      3.1214   9.2468   7.0270   C.ar      1 RES1   0.0000
    63 C30      3.0089   9.3676   8.4136   C.ar      1 RES1   0.0000
    64 H25      2.2328   9.7250   8.7808   H         1 RES1   0.0000
    65 C31      4.0311   8.9662   9.2473   C.ar      1 RES1   0.0000
    66 H26      3.9336   9.0341  10.1695   H         1 RES1   0.0000
    67 C32      5.1983   8.4635   8.7098   C.ar      1 RES1   0.0000
    68 H27      5.8850   8.1939   9.2771   H         1 RES1   0.0000
    69 C33      5.3655   8.3537   7.3272   C.ar      1 RES1   0.0000
    70 C34      4.3129   8.7244   6.4842   C.ar      1 RES1   0.0000
    71 C35      4.3973   8.3923   4.9994   C.2       1 RES1   0.0000
    72 C36      6.6551   7.8071   6.8133   C.ar      1 RES1   0.0000
    73 C37      7.1507   6.6063   7.3091   C.ar      1 RES1   0.0000
    74 H28      6.6514   6.1327   7.9341   H         1 RES1   0.0000
    75 C38      8.3673   6.1008   6.8938   C.ar      1 RES1   0.0000
    76 H29      8.6722   5.2957   7.2484   H         1 RES1   0.0000
    77 C39      9.1441   6.7719   5.9574   C.ar      1 RES1   0.0000
    78 C40      8.6486   7.9705   5.4596   C.ar      1 RES1   0.0000
    79 H30      9.1509   8.4433   4.8366   H         1 RES1   0.0000
    80 C41      7.4276   8.4822   5.8656   C.ar      1 RES1   0.0000
    81 H31      7.1200   9.2819   5.5049   H         1 RES1   0.0000
    82 C42     10.4713   6.2126   5.5101   C.3       1 RES1   0.0000
    83 H32     10.8687   6.8055   4.8693   H         1 RES1   0.0000
    84 H33     10.3367   5.3515   5.1087   H         1 RES1   0.0000
    85 H34     11.0532   6.1245   6.2689   H         1 RES1   0.0000
    86 C43      6.1289   5.4789   1.8180   C.3       1 RES1   0.0000
    87 H35      5.6930   5.1185   1.0296   H         1 RES1   0.0000
    88 H36      7.0459   5.1644   1.8219   H         1 RES1   0.0000
    89 C44      6.1197   6.9896   1.7444   C.3       1 RES1   0.0000
    90 H37      6.6182   7.3586   2.4901   H         1 RES1   0.0000
    91 H38      6.5440   7.2814   0.9229   H         1 RES1   0.0000
    92 C45      6.2692   5.1937   4.2184   C.3       1 RES1   0.0000
    93 H39      7.0664   4.6623   4.1510   H         1 RES1   0.0000
    94 H40      5.7799   4.9380   5.0042   H         1 RES1   0.0000
    95 H41      6.5075   6.1212   4.2772   H         1 RES1   0.0000
    96 C46      5.2240   3.5270   2.8643   C.3       1 RES1   0.0000
    97 H42      6.0709   3.0754   2.8711   H         1 RES1   0.0000
    98 H43      4.7816   3.3626   2.0287   H         1 RES1   0.0000
    99 H44      4.6801   3.1984   3.5850   H         1 RES1   0.0000
   100 C47      1.0171   5.9251   4.7197   C.3       1 RES1   0.0000
   101 H45      1.3403   6.5987   5.3373   H         1 RES1   0.0000
   102 H46      0.2829   5.4566   5.1457   H         1 RES1   0.0000
   103 C48      0.5123   6.6030   3.4675   C.3       1 RES1   0.0000
   104 H47      0.1645   5.9390   2.8515   H         1 RES1   0.0000
   105 H48     -0.2059   7.2141   3.6917   H         1 RES1   0.0000
   106 C49      1.5534   3.7425   3.8118   C.3       1 RES1   0.0000
   107 H49      0.9879   3.2871   4.4405   H         1 RES1   0.0000
   108 H50      2.2750   3.1640   3.5546   H         1 RES1   0.0000
   109 H51      1.0415   3.9812   3.0365   H         1 RES1   0.0000
   110 C50      2.7339   4.5845   5.7180   C.3       1 RES1   0.0000
   111 H52      2.1067   4.0863   6.2471   H         1 RES1   0.0000
   112 H53      2.9981   5.3761   6.1949   H         1 RES1   0.0000
   113 H54      3.5075   4.0436   5.5441   H         1 RES1   0.0000
   114 H57      4.3407   7.4767   0.9708   H         1 RES1   0.0000
   115 H58      1.4825   7.4702   2.0069   H         1 RES1   0.0000
   116 H59      1.7259   8.1364   3.2302   H         1 RES1   0.0000
   117 H60      4.6929   8.2398   2.1070   H         1 RES1   0.0000
   118 C51      2.3121   0.9133   1.3041   C.3       2 RES2   0.0000
   119 H55      2.9400   0.9617   2.0417   H         2 RES2   0.0000
   120 H56      2.4024   1.7264   0.7814   H         2 RES2   0.0000
   121 Cl1      2.7154  -0.4753   0.2899   Cl        2 RES2   0.0000
   122 Cl2      0.6967   0.8186   1.9370   Cl        2 RES2   0.0000
@<TRIPOS>BOND
     1     1     2    1
     2     2    86    1
     3     3     1    1
     4     4     1    1
     5     5     1    1
     6     6     1    1
     7     7    33    2
     8     8     1    1
     9     9    71    2
    10    10    11    1
    11    12    10    1
    12    13    10    1
    13    14    10    1
    14    15    14   ar
    15    16    15    1
    16    17    15   ar
    17    18    17    1
    18    19    17   ar
    19    20    19   ar
    20    21    20    1
    21    22    14   ar
    22    23    22    1
    23    24    19    1
    24    25    24   ar
    25    26    25    1
    26    27    25   ar
    27    28    27    1
    28    29    27   ar
    29    30    29    1
    30    31    29   ar
    31    32    24   ar
    32    33     6    1
    33    34    31    1
    34    35    34   ar
    35    36    35    1
    36    37    35   ar
    37    38    37    1
    38    39    37   ar
    39    40    39   ar
    40    41    40    1
    41    42    34   ar
    42    43    42    1
    43    44    39    1
    44    45    44    1
    45    46    44    1
    46    47    44    1
    47    48    49    1
    48    50    48    1
    49    51    48    1
    50    52    48    1
    51    53    52   ar
    52    54    53    1
    53    55    53   ar
    54    56    55    1
    55    57    55   ar
    56    58    57   ar
    57    59    58    1
    58    60    52   ar
    59    61    60    1
    60    62    57    1
    61    63    62   ar
    62    64    63    1
    63    65    63   ar
    64    66    65    1
    65    67    65   ar
    66    68    67    1
    67    69    67   ar
    68    70    62   ar
    69    71     8    1
    70    72    69    1
    71    73    72   ar
    72    74    73    1
    73    75    73   ar
    74    76    75    1
    75    77    75   ar
    76    78    77   ar
    77    79    78    1
    78    80    72   ar
    79    81    80    1
    80    82    77    1
    81    83    82    1
    82    84    82    1
    83    85    82    1
    84    86    87    1
    85    88    86    1
    86    89     3    1
    87    90    89    1
    88    91    89    1
    89    92     2    1
    90    93    92    1
    91    94    92    1
    92    95    92    1
    93    96     2    1
    94    97    96    1
    95    98    96    1
    96    99    96    1
    97   100     4    1
    98   101   100    1
    99   102   100    1
   100   103     5    1
   101   104   103    1
   102   105   103    1
   103   106     4    1
   104   107   106    1
   105   108   106    1
   106   109   106    1
   107   110     4    1
   108   111   110    1
   109   112   110    1
   110   113   110    1
   111   114     3    1
   112   115     5    1
   113   116     5    1
   114   117     3    1
   115    20    22   ar
   116    31    32   ar
   117    32    33    1
   118    40    42   ar
   119    58    60   ar
   120    69    70   ar
   121    70    71    1
   122    78    80   ar
   123    86    89    1
   124   100   103    1
   125   118   119    1
   126   120   118    1
   127   121   118    1
   128   122   118    1
@<TRIPOS>SUBSTRUCTURE
     1 RES1        1 GROUP             0 ****  ****    0  
     2 RES2      118 GROUP             0 ****  ****    0  
@<TRIPOS>CRYSIN
   13.2599   16.4107   22.1310   90.0000  100.4060   90.0000    14     1
