@<TRIPOS>MOLECULE
AGEDEV
   101   105     2     0     0
SMALL
USER_CHARGES
****
Generated from the CSD

@<TRIPOS>ATOM
     1 Fe1     11.3901   9.9678  12.3413   Fe        1 RES1   1.0000
     2 Cl1     12.8944   8.7511  13.8365   Cl        1 RES1   0.0000
     3 P1      12.1268  11.8791  13.2284   P.3       1 RES1   0.0000
     4 P2      13.0963  10.2578  10.9177   P.3       1 RES1   0.0000
     5 P3      10.6824   8.0500  11.4005   P.3       1 RES1   0.0000
     6 P4       9.7623   9.6209  13.8457   P.3       1 RES1   0.0000
     7 N1      10.2146  10.9601  11.2494   N.1       1 RES1   0.0000
     8 C1       9.4966  11.6252  10.6395   C.1       1 RES1   0.0000
     9 C2       8.5825  12.4151   9.8471   C.3       1 RES1   0.0000
    10 H1       8.9840  12.6140   8.9995   H         1 RES1   0.0000
    11 H2       8.3860  13.2331  10.3078   H         1 RES1   0.0000
    12 H3       7.7707  11.9221   9.7089   H         1 RES1   0.0000
    13 C3      13.6327  12.3928  12.4324   C.3       1 RES1   0.0000
    14 H4      13.4544  13.2316  11.9809   H         1 RES1   0.0000
    15 H5      14.2843  12.5769  13.1289   H         1 RES1   0.0000
    16 C4      14.2141  11.5599  11.5368   C.3       1 RES1   0.0000
    17 H6      14.9835  11.1397  11.9533   H         1 RES1   0.0000
    18 H7      14.5352  12.0825  10.7850   H         1 RES1   0.0000
    19 C5       9.1504   7.5393  12.2444   C.3       1 RES1   0.0000
    20 H8       8.3937   7.9996  11.8519   H         1 RES1   0.0000
    21 H9       9.0182   6.5861  12.1283   H         1 RES1   0.0000
    22 C6       9.2278   7.8511  13.6614   C.3       1 RES1   0.0000
    23 H10      9.8657   7.2632  14.0963   H         1 RES1   0.0000
    24 H11      8.3610   7.7204  14.0778   H         1 RES1   0.0000
    25 C7      12.5782  11.9964  14.9476   C.3       1 RES1   0.0000
    26 H12     12.8666  12.8931  15.1411   H         1 RES1   0.0000
    27 H13     13.2883  11.3832  15.1355   H         1 RES1   0.0000
    28 H14     11.8160  11.7826  15.4930   H         1 RES1   0.0000
    29 C8      11.1086  13.3935  13.0128   C.3       1 RES1   0.0000
    30 H15     11.5394  14.1329  13.4495   H         1 RES1   0.0000
    31 H16     10.2413  13.2539  13.3997   H         1 RES1   0.0000
    32 H17     11.0135  13.5850  12.0767   H         1 RES1   0.0000
    33 C9      14.2867   8.9646  10.5915   C.3       1 RES1   0.0000
    34 H18     14.9418   9.2838   9.9650   H         1 RES1   0.0000
    35 H19     13.8369   8.2000  10.2230   H         1 RES1   0.0000
    36 H20     14.7227   8.7152  11.4097   H         1 RES1   0.0000
    37 C10     12.6686  10.8235   9.2519   C.3       1 RES1   0.0000
    38 H21     13.4689  10.9155   8.7286   H         1 RES1   0.0000
    39 H22     12.2323  11.6831   9.3091   H         1 RES1   0.0000
    40 H23     12.0808  10.1954   8.8373   H         1 RES1   0.0000
    41 C11     11.7385   6.4911  11.5866   C.3       1 RES1   0.0000
    42 H24     11.3085   5.7577  11.1407   H         1 RES1   0.0000
    43 H25     11.8414   6.2833  12.5190   H         1 RES1   0.0000
    44 H26     12.6017   6.6411  11.1959   H         1 RES1   0.0000
    45 C12     10.3555   8.0085   9.6776   C.3       1 RES1   0.0000
    46 H27     10.0645   7.1280   9.4270   H         1 RES1   0.0000
    47 H28     11.1554   8.2297   9.1948   H         1 RES1   0.0000
    48 H29      9.6666   8.6439   9.4657   H         1 RES1   0.0000
    49 C13     10.0358   9.7263  15.6238   C.3       1 RES1   0.0000
    50 H30      9.2156   9.5407  16.0845   H         1 RES1   0.0000
    51 H31     10.3377  10.6097  15.8505   H         1 RES1   0.0000
    52 H32     10.7016   9.0849  15.8836   H         1 RES1   0.0000
    53 C14      8.2091  10.5043  13.5932   C.3       1 RES1   0.0000
    54 H33      7.5950  10.2756  14.2953   H         1 RES1   0.0000
    55 H34      7.8346  10.2563  12.7456   H         1 RES1   0.0000
    56 H35      8.3734  11.4500  13.6080   H         1 RES1   0.0000
    57 B1       4.9022  10.3855   1.4667   B         2 RES2  -1.0000
    58 C15      5.8662   9.2764   2.1393   C.ar      2 RES2   0.0000
    59 C16      6.1396   8.0931   1.4465   C.ar      2 RES2   0.0000
    60 H36      5.7119   7.9506   0.6339   H         2 RES2   0.0000
    61 C17      7.0387   7.0909   1.9219   C.ar      2 RES2   0.0000
    62 H37      7.1973   6.3144   1.4354   H         2 RES2   0.0000
    63 C18      7.6729   7.3211   3.1472   C.ar      2 RES2   0.0000
    64 H38      8.2515   6.6811   3.4955   H         2 RES2   0.0000
    65 C19      7.4489   8.4687   3.8327   C.ar      2 RES2   0.0000
    66 H39      7.9015   8.6335   4.6306   H         2 RES2   0.0000
    67 C20      6.5565   9.3848   3.3481   C.ar      2 RES2   0.0000
    68 H40      6.3953  10.1405   3.8659   H         2 RES2   0.0000
    69 C21      3.6151   9.7174   0.6265   C.ar      2 RES2   0.0000
    70 C22      3.0757   8.5103   0.9453   C.ar      2 RES2   0.0000
    71 H41      3.4595   8.0352   1.6455   H         2 RES2   0.0000
    72 C23      2.0210   7.9565   0.3151   C.ar      2 RES2   0.0000
    73 H42      1.6798   7.1384   0.5970   H         2 RES2   0.0000
    74 C24      1.4663   8.5994  -0.7297   C.ar      2 RES2   0.0000
    75 H43      0.7616   8.2119  -1.1959   H         2 RES2   0.0000
    76 C25      1.9448   9.8243  -1.0982   C.ar      2 RES2   0.0000
    77 H44      1.5467  10.2801  -1.8040   H         2 RES2   0.0000
    78 C26      3.0130  10.3929  -0.4349   C.ar      2 RES2   0.0000
    79 H45      3.3319  11.2273  -0.6965   H         2 RES2   0.0000
    80 C27      5.8580  11.2659   0.4588   C.ar      2 RES2   0.0000
    81 C28      5.9899  10.9170  -0.8974   C.ar      2 RES2   0.0000
    82 H46      5.5029  10.2147  -1.2622   H         2 RES2   0.0000
    83 C29      6.9353  11.7113  -1.7266   C.ar      2 RES2   0.0000
    84 H47      7.0414  11.5109  -2.6295   H         2 RES2   0.0000
    85 C30      7.6652  12.7595  -1.1535   C.ar      2 RES2   0.0000
    86 H48      8.2554  13.2524  -1.6750   H         2 RES2   0.0000
    87 C31      7.5201  13.0475   0.1124   C.ar      2 RES2   0.0000
    88 H49      8.0184  13.7498   0.4662   H         2 RES2   0.0000
    89 C32      6.6608  12.3572   0.9545   C.ar      2 RES2   0.0000
    90 H50      6.6012  12.6021   1.8500   H         2 RES2   0.0000
    91 C33      4.1921  11.3372   2.6129   C.ar      2 RES2   0.0000
    92 C34      3.9234  12.6363   2.4839   C.ar      2 RES2   0.0000
    93 H51      4.1533  13.0654   1.6916   H         2 RES2   0.0000
    94 C35      3.3154  13.3668   3.4863   C.ar      2 RES2   0.0000
    95 H52      3.1373  14.2680   3.3352   H         2 RES2   0.0000
    96 C36      2.9752  12.8471   4.6453   C.ar      2 RES2   0.0000
    97 H53      2.6166  13.3846   5.3142   H         2 RES2   0.0000
    98 C37      3.1499  11.5317   4.8554   C.ar      2 RES2   0.0000
    99 H54      2.8773  11.1219   5.6459   H         2 RES2   0.0000
   100 C38      3.7734  10.7982   3.8088   C.ar      2 RES2   0.0000
   101 H55      3.9086   9.8881   3.9433   H         2 RES2   0.0000
@<TRIPOS>BOND
     1     1     2    1
     2     3     1    1
     3     4     1    1
     4     5     1    1
     5     6     1    1
     6     7     1    1
     7     8     7    3
     8     9     8    1
     9    10     9    1
    10    11     9    1
    11    12     9    1
    12    13     3    1
    13    14    13    1
    14    15    13    1
    15    16     4    1
    16    17    16    1
    17    18    16    1
    18    19     5    1
    19    20    19    1
    20    21    19    1
    21    22     6    1
    22    23    22    1
    23    24    22    1
    24    25     3    1
    25    26    25    1
    26    27    25    1
    27    28    25    1
    28    29     3    1
    29    30    29    1
    30    31    29    1
    31    32    29    1
    32    33     4    1
    33    34    33    1
    34    35    33    1
    35    36    33    1
    36    37     4    1
    37    38    37    1
    38    39    37    1
    39    40    37    1
    40    41     5    1
    41    42    41    1
    42    43    41    1
    43    44    41    1
    44    45     5    1
    45    46    45    1
    46    47    45    1
    47    48    45    1
    48    49     6    1
    49    50    49    1
    50    51    49    1
    51    52    49    1
    52    53     6    1
    53    54    53    1
    54    55    53    1
    55    56    53    1
    56    13    16    1
    57    19    22    1
    58    57    58    1
    59    58    59   ar
    60    59    60    1
    61    61    59   ar
    62    62    61    1
    63    63    61   ar
    64    64    63    1
    65    65    63   ar
    66    66    65    1
    67    67    58   ar
    68    68    67    1
    69    69    57    1
    70    70    69   ar
    71    71    70    1
    72    72    70   ar
    73    73    72    1
    74    74    72   ar
    75    75    74    1
    76    76    74   ar
    77    77    76    1
    78    78    69   ar
    79    79    78    1
    80    80    57    1
    81    81    80   ar
    82    82    81    1
    83    83    81   ar
    84    84    83    1
    85    85    83   ar
    86    86    85    1
    87    87    85   ar
    88    88    87    1
    89    89    80   ar
    90    90    89    1
    91    91    57    1
    92    92    91   ar
    93    93    92    1
    94    94    92   ar
    95    95    94    1
    96    96    94   ar
    97    97    96    1
    98    98    96   ar
    99    99    98    1
   100   100    91   ar
   101   101   100    1
   102    65    67   ar
   103    76    78   ar
   104    87    89   ar
   105    98   100   ar
@<TRIPOS>SUBSTRUCTURE
     1 RES1        1 GROUP             0 ****  ****    0  
     2 RES2       57 GROUP             0 ****  ****    0  
@<TRIPOS>CRYSIN
   14.7810   14.8470   18.4900   90.0000   94.7500   90.0000    14     1
