@<TRIPOS>MOLECULE
AJEFOM
   118   126     1     0     0
SMALL
NO_CHARGES
****
Generated from the CSD

@<TRIPOS>ATOM
     1 C1       6.5662  12.8565   2.8896   C.ar      1 RES1   0.0000
     2 C2       6.0387  14.0796   3.2249   C.ar      1 RES1   0.0000
     3 H1       5.3471  14.4537   2.7277   H         1 RES1   0.0000
     4 C3       6.5674  14.7472   4.3316   C.ar      1 RES1   0.0000
     5 C4       7.5948  14.1538   5.0383   C.ar      1 RES1   0.0000
     6 H2       7.9450  14.5953   5.7774   H         1 RES1   0.0000
     7 C5       8.1184  12.9264   4.6859   C.ar      1 RES1   0.0000
     8 C6       7.6001  12.2779   3.5792   C.ar      1 RES1   0.0000
     9 H3       7.9489  11.4582   3.3087   H         1 RES1   0.0000
    10 C7       6.0211  16.1163   4.7259   C.3       1 RES1   0.0000
    11 H4       6.2053  16.2789   5.6535   H         1 RES1   0.0000
    12 H5       5.0733  16.1353   4.5792   H         1 RES1   0.0000
    13 H6       6.4417  16.7944   4.1925   H         1 RES1   0.0000
    14 C8       9.2558  12.3159   5.4478   C.3       1 RES1   0.0000
    15 H7       9.2551  12.6518   6.3488   H         1 RES1   0.0000
    16 H8      10.0860  12.5440   5.0230   H         1 RES1   0.0000
    17 H9       9.1561  11.3610   5.4631   H         1 RES1   0.0000
    18 C9       2.5418  14.8616   7.0822   C.ar      1 RES1   0.0000
    19 C10      1.4979  15.6247   7.5374   C.ar      1 RES1   0.0000
    20 H10      0.6369  15.4762   7.2212   H         1 RES1   0.0000
    21 C11      1.7381  16.6216   8.4784   C.ar      1 RES1   0.0000
    22 C12      3.0333  16.8062   8.9203   C.ar      1 RES1   0.0000
    23 H11      3.1960  17.4556   9.5661   H         1 RES1   0.0000
    24 C13      4.0972  16.0656   8.4422   C.ar      1 RES1   0.0000
    25 C14      3.8402  15.0625   7.4993   C.ar      1 RES1   0.0000
    26 H12      4.5330  14.5425   7.1584   H         1 RES1   0.0000
    27 C15      0.6026  17.4915   8.9775   C.3       1 RES1   0.0000
    28 H13      0.0710  16.9951   9.6061   H         1 RES1   0.0000
    29 H14      0.0540  17.7598   8.2365   H         1 RES1   0.0000
    30 H15      0.9618  18.2710   9.4080   H         1 RES1   0.0000
    31 C16      5.5083  16.3360   8.9127   C.3       1 RES1   0.0000
    32 H16      5.6250  17.2781   9.0518   H         1 RES1   0.0000
    33 H17      6.1309  16.0297   8.2479   H         1 RES1   0.0000
    34 H18      5.6667  15.8691   9.7356   H         1 RES1   0.0000
    35 C17      2.8878  11.5195   8.8022   C.ar      1 RES1   0.0000
    36 C18      3.0545  10.1632   8.8118   C.ar      1 RES1   0.0000
    37 H19      2.6661   9.6393   8.1489   H         1 RES1   0.0000
    38 C19      3.7956   9.5760   9.8042   C.ar      1 RES1   0.0000
    39 C20      4.3335  10.3766  10.7718   C.ar      1 RES1   0.0000
    40 H20      4.8338   9.9795  11.4480   H         1 RES1   0.0000
    41 C21      4.1696  11.7455  10.7947   C.ar      1 RES1   0.0000
    42 C22      3.4286  12.3349   9.7661   C.ar      1 RES1   0.0000
    43 H21      3.3036  13.2559   9.7375   H         1 RES1   0.0000
    44 C23      4.0418   8.0824   9.8423   C.3       1 RES1   0.0000
    45 H22      4.9866   7.9134   9.8232   H         1 RES1   0.0000
    46 H23      3.6285   7.6705   9.0803   H         1 RES1   0.0000
    47 H24      3.6670   7.7170  10.6461   H         1 RES1   0.0000
    48 C24      4.7568  12.6222  11.8823   C.3       1 RES1   0.0000
    49 H25      4.3710  12.3856  12.7281   H         1 RES1   0.0000
    50 H26      4.5650  13.5432  11.6900   H         1 RES1   0.0000
    51 H27      5.7079  12.4954  11.9166   H         1 RES1   0.0000
    52 C25     -0.0158   6.8424   5.4040   C.ar      1 RES1   0.0000
    53 C26     -0.9241   5.8242   5.5926   C.ar      1 RES1   0.0000
    54 H28     -0.7991   5.0024   5.1754   H         1 RES1   0.0000
    55 C27     -2.0253   6.0312   6.4098   C.ar      1 RES1   0.0000
    56 C28     -2.1641   7.2649   7.0098   C.ar      1 RES1   0.0000
    57 H29     -2.8906   7.4085   7.5736   H         1 RES1   0.0000
    58 C29     -1.2706   8.2937   6.8098   C.ar      1 RES1   0.0000
    59 C30     -0.1743   8.0782   5.9888   C.ar      1 RES1   0.0000
    60 H30      0.4434   8.7563   5.8345   H         1 RES1   0.0000
    61 C31     -3.0531   4.9390   6.5831   C.3       1 RES1   0.0000
    62 H31     -3.6124   5.1418   7.3374   H         1 RES1   0.0000
    63 H32     -2.6089   4.1004   6.7317   H         1 RES1   0.0000
    64 H33     -3.5926   4.8799   5.7907   H         1 RES1   0.0000
    65 C32     -1.4640   9.6478   7.4460   C.3       1 RES1   0.0000
    66 H34     -2.3696   9.7302   7.7527   H         1 RES1   0.0000
    67 H35     -1.2802  10.3344   6.8003   H         1 RES1   0.0000
    68 H36     -0.8638   9.7407   8.1908   H         1 RES1   0.0000
    69 C33      2.6051   5.8235   2.0115   C.ar      1 RES1   0.0000
    70 C34      1.7683   4.7379   2.0782   C.ar      1 RES1   0.0000
    71 H37      1.4570   4.4320   2.8992   H         1 RES1   0.0000
    72 C35      1.3901   4.1004   0.9029   C.ar      1 RES1   0.0000
    73 C36      1.8565   4.6052  -0.3048   C.ar      1 RES1   0.0000
    74 H38      1.5921   4.1975  -1.0972   H         1 RES1   0.0000
    75 C37      2.7004   5.6932  -0.3619   C.ar      1 RES1   0.0000
    76 C38      3.0983   6.3077   0.8267   C.ar      1 RES1   0.0000
    77 H39      3.6842   7.0304   0.8172   H         1 RES1   0.0000
    78 C39      0.5160   2.8667   0.9486   C.3       1 RES1   0.0000
    79 H40     -0.2944   3.0293   0.4610   H         1 RES1   0.0000
    80 H41      0.3055   2.6575   1.8610   H         1 RES1   0.0000
    81 H42      0.9847   2.1273   0.5505   H         1 RES1   0.0000
    82 C40      3.2432   6.1748  -1.6877   C.3       1 RES1   0.0000
    83 H43      2.5167   6.4769  -2.2382   H         1 RES1   0.0000
    84 H44      3.6993   5.4545  -2.1258   H         1 RES1   0.0000
    85 H45      3.8546   6.8994  -1.5372   H         1 RES1   0.0000
    86 C41      3.9887  10.7864  -0.6515   C.ar      1 RES1   0.0000
    87 C42      2.8754   9.9951  -0.6515   C.ar      1 RES1   0.0000
    88 H46      2.7491   9.3668   0.0229   H         1 RES1   0.0000
    89 C43      1.9357  10.1316  -1.6591   C.ar      1 RES1   0.0000
    90 C44      2.1878  11.0547  -2.6591   C.ar      1 RES1   0.0000
    91 H47      1.5718  11.1519  -3.3487   H         1 RES1   0.0000
    92 C45      3.3287  11.8427  -2.6630   C.ar      1 RES1   0.0000
    93 C46      4.2417  11.6986  -1.6286   C.ar      1 RES1   0.0000
    94 H48      5.0132  12.2166  -1.6039   H         1 RES1   0.0000
    95 C47      0.6925   9.2929  -1.6743   C.3       1 RES1   0.0000
    96 H49     -0.0453   9.8105  -1.3391   H         1 RES1   0.0000
    97 H50      0.8190   8.5218  -1.1181   H         1 RES1   0.0000
    98 H51      0.5049   9.0140  -2.5734   H         1 RES1   0.0000
    99 C48      3.6085  12.8503  -3.7716   C.3       1 RES1   0.0000
   100 H52      4.4386  13.2961  -3.5963   H         1 RES1   0.0000
   101 H53      2.8973  13.4947  -3.8040   H         1 RES1   0.0000
   102 H54      3.6631  12.3898  -4.6135   H         1 RES1   0.0000
   103 Fe1      3.1304  10.3464   4.1142   Fe        1 RES1   0.0000
   104 O1       4.9587  10.5870   0.3501   O.3       1 RES1   0.0000
   105 O2       6.0741  12.2005   1.7283   O.3       1 RES1   0.0000
   106 O3       2.2327  13.8914   6.1086   O.3       1 RES1   0.0000
   107 O4       2.0831  12.1355   7.8113   O.3       1 RES1   0.0000
   108 O5       1.0568   6.5179   4.5703   O.3       1 RES1   0.0000
   109 O6       3.0610   6.4184   3.2230   O.3       1 RES1   0.0000
   110 P1       4.8995  11.1413   1.8189   P.3       1 RES1   0.0000
   111 P2       2.4625  12.3349   6.2877   P.3       1 RES1   0.0000
   112 P3       2.1984   7.4804   4.0184   P.3       1 RES1   0.0000
   113 S1       5.2652   9.6791   3.1056   S.2       1 RES1   0.0000
   114 S2       3.1649  11.9800   2.2801   S.2       1 RES1   0.0000
   115 S3       4.2797  11.7100   5.8389   S.2       1 RES1   0.0000
   116 S4       1.1540  11.4546   5.0941   S.2       1 RES1   0.0000
   117 S5       3.3222   8.2489   5.4602   S.2       1 RES1   0.0000
   118 S6       1.5126   8.9105   2.8470   S.2       1 RES1   0.0000
@<TRIPOS>BOND
     1     1     2   ar
     2     2     3    1
     3     4     2   ar
     4     5     4   ar
     5     6     5    1
     6     7     5   ar
     7     8     1   ar
     8     9     8    1
     9    10     4    1
    10    11    10    1
    11    12    10    1
    12    13    10    1
    13    14     7    1
    14    15    14    1
    15    16    14    1
    16    17    14    1
    17    18    19   ar
    18    19    20    1
    19    21    19   ar
    20    22    21   ar
    21    23    22    1
    22    24    22   ar
    23    25    18   ar
    24    26    25    1
    25    27    21    1
    26    28    27    1
    27    29    27    1
    28    30    27    1
    29    31    24    1
    30    32    31    1
    31    33    31    1
    32    34    31    1
    33    35    36   ar
    34    36    37    1
    35    38    36   ar
    36    39    38   ar
    37    40    39    1
    38    41    39   ar
    39    42    35   ar
    40    43    42    1
    41    44    38    1
    42    45    44    1
    43    46    44    1
    44    47    44    1
    45    48    41    1
    46    49    48    1
    47    50    48    1
    48    51    48    1
    49    52    53   ar
    50    53    54    1
    51    55    53   ar
    52    56    55   ar
    53    57    56    1
    54    58    56   ar
    55    59    52   ar
    56    60    59    1
    57    61    55    1
    58    62    61    1
    59    63    61    1
    60    64    61    1
    61    65    58    1
    62    66    65    1
    63    67    65    1
    64    68    65    1
    65    69    70   ar
    66    70    71    1
    67    72    70   ar
    68    73    72   ar
    69    74    73    1
    70    75    73   ar
    71    76    69   ar
    72    77    76    1
    73    78    72    1
    74    79    78    1
    75    80    78    1
    76    81    78    1
    77    82    75    1
    78    83    82    1
    79    84    82    1
    80    85    82    1
    81    86    87   ar
    82    87    88    1
    83    89    87   ar
    84    90    89   ar
    85    91    90    1
    86    92    90   ar
    87    93    86   ar
    88    94    93    1
    89    95    89    1
    90    96    95    1
    91    97    95    1
    92    98    95    1
    93    99    92    1
    94   100    99    1
    95   101    99    1
    96   102    99    1
    97   103   113    1
    98   104    86    1
    99   105     1    1
   100   106    18    1
   101   107    35    1
   102   108    52    1
   103   109    69    1
   104   110   104    1
   105   111   106    1
   106   112   108    1
   107   113   110   un
   108   114   103    1
   109   115   103    1
   110   116   103    1
   111   117   103    1
   112   118   103    1
   113     7     8   ar
   114    24    25   ar
   115    41    42   ar
   116    58    59   ar
   117    75    76   ar
   118    92    93   ar
   119   105   110    1
   120   107   111    1
   121   109   112    1
   122   110   114   un
   123   111   115   un
   124   111   116   un
   125   112   117   un
   126   112   118   un
@<TRIPOS>SUBSTRUCTURE
     1 RES1        1 GROUP             0 ****  ****    0  
@<TRIPOS>CRYSIN
   12.9756   21.1250   19.1028   90.0000   94.3280   90.0000    14     1
