@<TRIPOS>MOLECULE
AJUROO
   148   152     4     0     0
SMALL
USER_CHARGES
****
Generated from the CSD

@<TRIPOS>ATOM
     1 Ga1     -0.7387  11.5409   6.7988   Ga        1 RES1   0.0000
     2 C1      -0.6436   8.7655   6.5185   C.1       1 RES1   0.0000
     3 P1       1.2753   9.3979   8.6429   P.3       1 RES1   0.0000
     4 O1      -1.5645   8.0940   6.6315   O.2       1 RES1   0.0000
     5 Cl1     -0.3111  13.6513   7.1089   Cl        1 RES1   0.0000
     6 Fe1      0.8249   9.8141   6.3661   Fe        1 RES1   1.0000
     7 C2       1.9562  11.2275   6.3496   C.1       1 RES1   0.0000
     8 P2       0.5457  10.0336   4.0297   P.3       1 RES1   0.0000
     9 O2       2.6677  12.1203   6.3547   O.2       1 RES1   0.0000
    10 Cl2     -2.8915  11.2376   6.9042   Cl        1 RES1   0.0000
    11 C3       2.0428   8.5119   6.0374   C.1       1 RES1   0.0000
    12 O3       2.8279   7.7067   5.8747   O.2       1 RES1   0.0000
    13 C4       4.0797   9.8812   8.3954   C.3       1 RES1   0.0000
    14 H1       4.3543   8.9998   8.7521   H         1 RES1   0.0000
    15 H2       3.8836   9.7744   7.4315   H         1 RES1   0.0000
    16 C5       5.5239  11.1262  10.0565   C.3       1 RES1   0.0000
    17 H3       5.8826  10.2970  10.4615   H         1 RES1   0.0000
    18 H4       6.2107  11.8334  10.1441   H         1 RES1   0.0000
    19 C6       5.2234  10.8853   8.5779   C.3       1 RES1   0.0000
    20 H5       6.0365  10.5421   8.1299   H         1 RES1   0.0000
    21 H6       4.9776  11.7427   8.1489   H         1 RES1   0.0000
    22 C7       2.8070  10.3626   9.1314   C.3       1 RES1   0.0000
    23 H7       2.6485  11.2923   8.7997   H         1 RES1   0.0000
    24 C8       4.2597  11.5491  10.7966   C.3       1 RES1   0.0000
    25 H8       3.9564  12.4250  10.4488   H         1 RES1   0.0000
    26 H9       4.4662  11.6574  11.7583   H         1 RES1   0.0000
    27 C9       3.1271  10.5178  10.6334   C.3       1 RES1   0.0000
    28 H10      2.3207  10.8221  11.1202   H         1 RES1   0.0000
    29 H11      3.4075   9.6467  11.0107   H         1 RES1   0.0000
    30 C10      1.7032   7.2482  10.4893   C.3       1 RES1   0.0000
    31 H12      2.2143   7.9342  10.9869   H         1 RES1   0.0000
    32 H13      0.7759   7.2440  10.8377   H         1 RES1   0.0000
    33 C11      1.6880   7.6041   8.9847   C.3       1 RES1   0.0000
    34 H14      2.6317   7.4865   8.6759   H         1 RES1   0.0000
    35 C12      1.6584   4.7694   9.8963   C.3       1 RES1   0.0000
    36 H15      2.1835   3.9336   9.9758   H         1 RES1   0.0000
    37 H16      0.7559   4.5995  10.2631   H         1 RES1   0.0000
    38 C13      2.3400   5.8741  10.7139   C.3       1 RES1   0.0000
    39 H17      2.2847   5.6453  11.6758   H         1 RES1   0.0000
    40 H18      3.2975   5.9167  10.4663   H         1 RES1   0.0000
    41 C14      1.5400   5.1525   8.4191   C.3       1 RES1   0.0000
    42 H19      1.0075   4.4652   7.9457   H         1 RES1   0.0000
    43 H20      2.4434   5.1727   8.0124   H         1 RES1   0.0000
    44 C15      0.8751   6.5217   8.2391   C.3       1 RES1   0.0000
    45 H21     -0.0482   6.4930   8.5965   H         1 RES1   0.0000
    46 H22      0.8271   6.7453   7.2759   H         1 RES1   0.0000
    47 C16      0.0075   9.8623   9.9165   C.3       1 RES1   0.0000
    48 H23      0.3985   9.6060  10.8012   H         1 RES1   0.0000
    49 C17     -1.3322   9.1092   9.8107   C.3       1 RES1   0.0000
    50 H24     -1.7916   9.3615   8.9711   H         1 RES1   0.0000
    51 H25     -1.1651   8.1342   9.7885   H         1 RES1   0.0000
    52 C18     -2.2258   9.4545  11.0126   C.3       1 RES1   0.0000
    53 H26     -3.0962   8.9938  10.9155   H         1 RES1   0.0000
    54 H27     -1.7980   9.1254  11.8424   H         1 RES1   0.0000
    55 C19     -2.4594  10.9595  11.1274   C.3       1 RES1   0.0000
    56 H28     -2.9886  11.1481  11.9424   H         1 RES1   0.0000
    57 H29     -2.9809  11.2703  10.3456   H         1 RES1   0.0000
    58 C20     -1.1385  11.7247  11.1920   C.3       1 RES1   0.0000
    59 H30     -0.6649  11.4965  12.0313   H         1 RES1   0.0000
    60 H31     -1.3202  12.6977  11.1964   H         1 RES1   0.0000
    61 C21     -0.2484  11.3745   9.9899   C.3       1 RES1   0.0000
    62 H32     -0.6888  11.6756   9.1552   H         1 RES1   0.0000
    63 H33      0.6153  11.8506  10.0695   H         1 RES1   0.0000
    64 C22      0.1329  11.6660   3.2596   C.3       1 RES1   0.0000
    65 H34      0.0547  11.4842   2.2793   H         1 RES1   0.0000
    66 C23     -1.2338  12.2384   3.6795   C.3       1 RES1   0.0000
    67 H35     -1.9253  11.5345   3.6078   H         1 RES1   0.0000
    68 H36     -1.1939  12.5370   4.6221   H         1 RES1   0.0000
    69 C24     -1.6083  13.4243   2.7789   C.3       1 RES1   0.0000
    70 H37     -1.7176  13.1093   1.8460   H         1 RES1   0.0000
    71 H38     -2.4729  13.8045   3.0761   H         1 RES1   0.0000
    72 C25     -0.5290  14.5102   2.8289   C.3       1 RES1   0.0000
    73 H39     -0.7613  15.2337   2.1936   H         1 RES1   0.0000
    74 H40     -0.4992  14.9014   3.7380   H         1 RES1   0.0000
    75 C26      0.8426  13.9457   2.4742   C.3       1 RES1   0.0000
    76 H41      1.5249  14.6566   2.5666   H         1 RES1   0.0000
    77 H42      0.8404  13.6443   1.5317   H         1 RES1   0.0000
    78 C27      1.2103  12.7627   3.3881   C.3       1 RES1   0.0000
    79 H43      1.2672  13.0693   4.3284   H         1 RES1   0.0000
    80 H44      2.0934  12.3978   3.1269   H         1 RES1   0.0000
    81 C28      2.0592   9.4250   3.1204   C.3       1 RES1   0.0000
    82 H45      2.0863   8.4379   3.2808   H         1 RES1   0.0000
    83 C29      3.4297   9.9578   3.6130   C.3       1 RES1   0.0000
    84 H46      3.5256  10.9129   3.3713   H         1 RES1   0.0000
    85 H47      3.4855   9.8803   4.5982   H         1 RES1   0.0000
    86 C30      4.5530   9.1420   2.9631   C.3       1 RES1   0.0000
    87 H48      5.4285   9.4741   3.2840   H         1 RES1   0.0000
    88 H49      4.4688   8.1926   3.2316   H         1 RES1   0.0000
    89 C31      4.4960   9.2467   1.4441   C.3       1 RES1   0.0000
    90 H50      5.1973   8.6718   1.0476   H         1 RES1   0.0000
    91 H51      4.6770  10.1814   1.1714   H         1 RES1   0.0000
    92 C32      3.1265   8.8175   0.9133   C.3       1 RES1   0.0000
    93 H52      3.0941   8.9711  -0.0635   H         1 RES1   0.0000
    94 H53      3.0037   7.8490   1.0746   H         1 RES1   0.0000
    95 C33      1.9867   9.5871   1.5825   C.3       1 RES1   0.0000
    96 H54      1.1180   9.2449   1.2539   H         1 RES1   0.0000
    97 H55      2.0496  10.5463   1.3460   H         1 RES1   0.0000
    98 C34     -0.8703   8.9302   3.4978   C.3       1 RES1   0.0000
    99 H56     -1.5883   9.0711   4.1792   H         1 RES1   0.0000
   100 C35     -0.4884   7.4367   3.6034   C.3       1 RES1   0.0000
   101 H57      0.1537   7.2097   2.8856   H         1 RES1   0.0000
   102 H58     -0.0467   7.2696   4.4744   H         1 RES1   0.0000
   103 C36     -1.7257   6.5430   3.4810   C.3       1 RES1   0.0000
   104 H59     -2.3151   6.6916   4.2617   H         1 RES1   0.0000
   105 H60     -1.4451   5.5932   3.4872   H         1 RES1   0.0000
   106 C37     -2.5072   6.8306   2.1956   C.3       1 RES1   0.0000
   107 H61     -1.9748   6.5369   1.4142   H         1 RES1   0.0000
   108 H62     -3.3508   6.3119   2.2015   H         1 RES1   0.0000
   109 C38     -2.8295   8.3169   2.0569   C.3       1 RES1   0.0000
   110 H63     -3.4471   8.5885   2.7808   H         1 RES1   0.0000
   111 H64     -3.2838   8.4752   1.1920   H         1 RES1   0.0000
   112 C39     -1.5490   9.1736   2.1279   C.3       1 RES1   0.0000
   113 H65     -1.7772  10.1315   2.0285   H         1 RES1   0.0000
   114 H66     -0.9327   8.9219   1.3952   H         1 RES1   0.0000
   115 Ga2      2.6867   4.3785   2.3794   Ga        2 RES2   0.0000
   116 Cl3      4.6830   5.1325   1.9068   Cl        2 RES2   0.0000
   117 Cl4      1.1852   5.3207   1.0946   Cl        2 RES2  -1.0000
   118 Cl5      2.6024   2.2288   2.0536   Cl        2 RES2   0.0000
   119 Cl6      2.2642   4.8758   4.4657   Cl        2 RES2   0.0000
   120 C40      6.2715  12.4771   2.7348   C.ar      3 RES3   0.0000
   121 C41      5.1504  13.3658   2.5586   C.ar      3 RES3   0.0000
   122 H67      4.8227  13.5658   1.6888   H         3 RES3   0.0000
   123 C42      4.5790  13.9050   3.6427   C.ar      3 RES3   0.0000
   124 H68      3.8481  14.4986   3.5126   H         3 RES3   0.0000
   125 C43      4.9924  13.6489   4.9665   C.ar      3 RES3   0.0000
   126 H69      4.5526  14.0626   5.6998   H         3 RES3   0.0000
   127 C44      6.0247  12.8031   5.1696   C.ar      3 RES3   0.0000
   128 H70      6.3292  12.6030   6.0474   H         3 RES3   0.0000
   129 C45      6.6630  12.2005   3.9887   C.ar      3 RES3   0.0000
   130 H71      7.3804  11.5918   4.1189   H         3 RES3   0.0000
   131 C46      6.9355  11.9346   1.5841   C.2       3 RES3   0.0000
   132 H72      7.6809  11.3560   1.6952   H         3 RES3   0.0000
   133 H73      6.6294  12.1540   0.7111   H         3 RES3   0.0000
   134 C47      2.1415  13.9906  -1.1836   C.ar      4 RES4   0.0000
   135 C48      1.3008  15.0743  -0.9747   C.ar      4 RES4   0.0000
   136 H74      1.6789  15.9412  -0.8904   H         4 RES4   0.0000
   137 C49     -0.0663  14.9302  -0.8862   C.ar      4 RES4   0.0000
   138 H75     -0.6188  15.6921  -0.7571   H         4 RES4   0.0000
   139 C50     -0.6343  13.6576  -0.9881   C.ar      4 RES4   0.0000
   140 H76     -1.5770  13.5495  -0.9365   H         4 RES4   0.0000
   141 C51      0.1790  12.5637  -1.1642   C.ar      4 RES4   0.0000
   142 H77     -0.2039  11.6965  -1.2174   H         4 RES4   0.0000
   143 C52      1.5563  12.7152  -1.2658   C.ar      4 RES4   0.0000
   144 H78      2.1063  11.9512  -1.3920   H         4 RES4   0.0000
   145 C53      3.6356  14.1501  -1.3317   C.3       4 RES4   0.0000
   146 H79      3.9711  14.7523  -0.6365   H         4 RES4   0.0000
   147 H80      3.8387  14.5253  -2.2142   H         4 RES4   0.0000
   148 H81      4.0682  13.2751  -1.2428   H         4 RES4   0.0000
@<TRIPOS>BOND
     1     1     5    1
     2     2     4    3
     3     3     6    1
     4     6     1    1
     5     7     6    1
     6     8     6    1
     7     9     7    3
     8    10     1    1
     9    11     6    1
    10    12    11    3
    11    13    14    1
    12    15    13    1
    13    16    17    1
    14    18    16    1
    15    19    13    1
    16    20    19    1
    17    21    19    1
    18    22     3    1
    19    23    22    1
    20    24    16    1
    21    25    24    1
    22    26    24    1
    23    27    22    1
    24    28    27    1
    25    29    27    1
    26    30    31    1
    27    32    30    1
    28    33     3    1
    29    34    33    1
    30    35    36    1
    31    37    35    1
    32    38    30    1
    33    39    38    1
    34    40    38    1
    35    41    35    1
    36    42    41    1
    37    43    41    1
    38    44    33    1
    39    45    44    1
    40    46    44    1
    41    47     3    1
    42    48    47    1
    43    49    47    1
    44    50    49    1
    45    51    49    1
    46    52    49    1
    47    53    52    1
    48    54    52    1
    49    55    52    1
    50    56    55    1
    51    57    55    1
    52    58    55    1
    53    59    58    1
    54    60    58    1
    55    61    47    1
    56    62    61    1
    57    63    61    1
    58    64     8    1
    59    65    64    1
    60    66    64    1
    61    67    66    1
    62    68    66    1
    63    69    66    1
    64    70    69    1
    65    71    69    1
    66    72    69    1
    67    73    72    1
    68    74    72    1
    69    75    72    1
    70    76    75    1
    71    77    75    1
    72    78    64    1
    73    79    78    1
    74    80    78    1
    75    81     8    1
    76    82    81    1
    77    83    81    1
    78    84    83    1
    79    85    83    1
    80    86    83    1
    81    87    86    1
    82    88    86    1
    83    89    86    1
    84    90    89    1
    85    91    89    1
    86    92    89    1
    87    93    92    1
    88    94    92    1
    89    95    81    1
    90    96    95    1
    91    97    95    1
    92    98     8    1
    93    99    98    1
    94   100    98    1
    95   101   100    1
    96   102   100    1
    97   103   100    1
    98   104   103    1
    99   105   103    1
   100   106   103    1
   101   107   106    1
   102   108   106    1
   103   109   106    1
   104   110   109    1
   105   111   109    1
   106   112    98    1
   107   113   112    1
   108   114   112    1
   109     2     6    1
   110    13    22    1
   111    16    19    1
   112    24    27    1
   113    30    33    1
   114    35    38    1
   115    41    44    1
   116    58    61    1
   117    75    78    1
   118    92    95    1
   119   109   112    1
   120   115   116    1
   121   117   115    1
   122   118   115    1
   123   119   115    1
   124   120   121   ar
   125   121   122    1
   126   123   121   ar
   127   124   123    1
   128   125   123   ar
   129   126   125    1
   130   127   125   ar
   131   128   127    1
   132   129   120   ar
   133   130   129    1
   134   131   120    1
   135   132   131    1
   136   133   131    1
   137   127   129   ar
   138   134   135   ar
   139   135   136    1
   140   137   135   ar
   141   138   137    1
   142   139   137   ar
   143   140   139    1
   144   141   139   ar
   145   142   141    1
   146   143   134   ar
   147   144   143    1
   148   145   134    1
   149   146   145    1
   150   147   145    1
   151   148   145    1
   152   141   143   ar
@<TRIPOS>SUBSTRUCTURE
     1 RES1        1 GROUP             0 ****  ****    0  
     2 RES2      115 GROUP             0 ****  ****    0  
     3 RES3      120 GROUP             0 ****  ****    0  
     4 RES4      134 GROUP             0 ****  ****    0  
@<TRIPOS>CRYSIN
   11.6840   15.7870   16.2920  101.1060   95.4290   96.5120     2     1
