@<TRIPOS>MOLECULE
AKIHUA
   141   141     5     0     0
SMALL
USER_CHARGES
****
Generated from the CSD

@<TRIPOS>ATOM
     1 Fe1     20.2240   7.3633   4.1358   Fe        1 RES1   2.0000
     2 C1      20.8115   8.8477   3.1361   C.3       1 RES1   0.0000
     3 C2      20.9419  10.5375   1.6163   C.2       1 RES1   0.0000
     4 H1      20.7108  11.1208   0.9026   H         1 RES1   0.0000
     5 C3      22.0642  10.5801   2.3435   C.2       1 RES1   0.0000
     6 H2      22.7800  11.1970   2.2474   H         1 RES1   0.0000
     7 N1      20.1733   9.4710   2.1043   N.pl3     1 RES1   0.0000
     8 N2      21.9801   9.5339   3.2792   N.pl3     1 RES1   0.0000
     9 S1      18.1465   8.2572   4.0633   S.3       1 RES1   0.0000
    10 C4      18.9111   9.0781   1.5330   C.ar      1 RES1   0.0000
    11 C5      17.8617   8.5741   2.3259   C.ar      1 RES1   0.0000
    12 C6      16.6399   8.2204   1.7174   C.ar      1 RES1   0.0000
    13 C7      16.5492   8.3830   0.3266   C.ar      1 RES1   0.0000
    14 H3      15.7300   8.1600  -0.0972   H         1 RES1   0.0000
    15 C8      17.5894   8.8509  -0.4676   C.ar      1 RES1   0.0000
    16 C9      18.7822   9.2058   0.1541   C.ar      1 RES1   0.0000
    17 H4      19.5075   9.5345  -0.3633   H         1 RES1   0.0000
    18 C10     18.1879   9.9488   4.7159   C.3       1 RES1   0.0000
    19 H5      18.2900   9.9200   5.6910   H         1 RES1   0.0000
    20 H6      17.3534  10.4071   4.4893   H         1 RES1   0.0000
    21 H7      18.9444  10.4325   4.3223   H         1 RES1   0.0000
    22 C11     15.4297   7.6162   2.4731   C.3       1 RES1   0.0000
    23 C12     15.7822   6.1913   2.9317   C.3       1 RES1   0.0000
    24 H8      15.9975   5.6398   2.1502   H         1 RES1   0.0000
    25 H9      15.0170   5.8008   3.4050   H         1 RES1   0.0000
    26 H10     16.5563   6.2243   3.5316   H         1 RES1   0.0000
    27 C13     14.1941   7.5109   1.5600   C.3       1 RES1   0.0000
    28 H11     13.9772   8.3972   1.1998   H         1 RES1   0.0000
    29 H12     13.4344   7.1731   2.0768   H         1 RES1   0.0000
    30 H13     14.3854   6.8957   0.8219   H         1 RES1   0.0000
    31 C14     14.9948   8.4964   3.6595   C.3       1 RES1   0.0000
    32 H14     15.7063   8.5095   4.3333   H         1 RES1   0.0000
    33 H15     14.1756   8.1304   4.0545   H         1 RES1   0.0000
    34 H16     14.8257   9.4096   3.3445   H         1 RES1   0.0000
    35 C15     17.4577   8.9072  -2.0038   C.3       1 RES1   0.0000
    36 C16     18.2187   7.7117  -2.5829   C.3       1 RES1   0.0000
    37 H17     19.1615   7.7682  -2.3245   H         1 RES1   0.0000
    38 H18     18.1456   7.7195  -3.5610   H         1 RES1   0.0000
    39 H19     17.8361   6.8809  -2.2346   H         1 RES1   0.0000
    40 C17     15.9976   8.8462  -2.4439   C.3       1 RES1   0.0000
    41 H20     15.6232   7.9694  -2.2125   H         1 RES1   0.0000
    42 H21     15.9425   8.9775  -3.4142   H         1 RES1   0.0000
    43 H22     15.4896   9.5493  -1.9887   H         1 RES1   0.0000
    44 C18     18.0569  10.2054  -2.5397   C.3       1 RES1   0.0000
    45 H23     17.6103  10.9704  -2.1190   H         1 RES1   0.0000
    46 H24     17.9309  10.2461  -3.5114   H         1 RES1   0.0000
    47 H25     19.0144  10.2334  -2.3336   H         1 RES1   0.0000
    48 S2      22.3766   6.6335   4.1075   S.3       1 RES1   0.0000
    49 C19     22.9527   9.3187   4.3165   C.ar      1 RES1   0.0000
    50 C20     23.2724   8.0325   4.7713   C.ar      1 RES1   0.0000
    51 C21     24.1833   7.8803   5.8497   C.ar      1 RES1   0.0000
    52 C22     24.7248   9.0548   6.3762   C.ar      1 RES1   0.0000
    53 H26     25.3469   8.9733   7.0889   H         1 RES1   0.0000
    54 C23     24.4183  10.3410   5.9296   C.ar      1 RES1   0.0000
    55 C24     23.5156  10.4598   4.8784   C.ar      1 RES1   0.0000
    56 H27     23.2838  11.3177   4.5443   H         1 RES1   0.0000
    57 C25     23.0021   6.5609   2.4063   C.3       1 RES1   0.0000
    58 H28     22.5944   5.8008   1.9410   H         1 RES1   0.0000
    59 H29     23.9762   6.4509   2.4199   H         1 RES1   0.0000
    60 H30     22.7749   7.3913   1.9392   H         1 RES1   0.0000
    61 C26     24.5421   6.5157   6.4857   C.3       1 RES1   0.0000
    62 C27     25.1641   5.5606   5.4407   C.3       1 RES1   0.0000
    63 H31     24.5022   5.3603   4.7461   H         1 RES1   0.0000
    64 H32     25.4388   4.7291   5.8799   H         1 RES1   0.0000
    65 H33     25.9449   5.9871   5.0323   H         1 RES1   0.0000
    66 C28     23.2908   5.9031   7.1383   C.3       1 RES1   0.0000
    67 H34     22.9215   6.5335   7.7916   H         1 RES1   0.0000
    68 H35     23.5340   5.0680   7.5898   H         1 RES1   0.0000
    69 H36     22.6206   5.7182   6.4487   H         1 RES1   0.0000
    70 C29     25.5781   6.6731   7.6184   C.3       1 RES1   0.0000
    71 H37     26.4070   7.0503   7.2540   H         1 RES1   0.0000
    72 H38     25.7656   5.7965   8.0154   H         1 RES1   0.0000
    73 H39     25.2223   7.2727   8.3071   H         1 RES1   0.0000
    74 C30     25.0568  11.5590   6.6075   C.3       1 RES1   0.0000
    75 C31     24.7423  11.5266   8.1150   C.3       1 RES1   0.0000
    76 H40     23.7721  11.5698   8.2466   H         1 RES1   0.0000
    77 H41     25.1659  12.2941   8.5548   H         1 RES1   0.0000
    78 H42     25.0893  10.6951   8.5034   H         1 RES1   0.0000
    79 C32     26.5542  11.5210   6.3881   C.3       1 RES1   0.0000
    80 H43     26.9182  10.6951   6.7660   H         1 RES1   0.0000
    81 H44     26.9679  12.2919   6.8266   H         1 RES1   0.0000
    82 H45     26.7427  11.5528   5.4268   H         1 RES1   0.0000
    83 C33     24.5065  12.8686   6.0687   C.3       1 RES1   0.0000
    84 H46     24.6589  12.9146   5.1021   H         1 RES1   0.0000
    85 H47     24.9588  13.6177   6.5074   H         1 RES1   0.0000
    86 H48     23.5443  12.9188   6.2505   H         1 RES1   0.0000
    87 N3      19.8514   6.3899   2.5200   N.1       1 RES1   0.0000
    88 C34     19.5986   5.8613   1.5449   C.1       1 RES1   0.0000
    89 C35     19.2725   5.2054   0.2842   C.3       1 RES1   0.0000
    90 H49     19.6985   5.6885  -0.4550   H         1 RES1   0.0000
    91 H50     18.3009   5.2057   0.1578   H         1 RES1   0.0000
    92 H51     19.5980   4.2823   0.3027   H         1 RES1   0.0000
    93 N4      19.6753   5.7749   5.1842   N.1       1 RES1   0.0000
    94 C36     19.4979   4.8287   5.7829   C.1       1 RES1   0.0000
    95 C37     19.2957   3.6035   6.5386   C.3       1 RES1   0.0000
    96 H52     19.0973   2.8676   5.9221   H         1 RES1   0.0000
    97 H53     18.5454   3.7210   7.1568   H         1 RES1   0.0000
    98 H54     20.1078   3.3949   7.0467   H         1 RES1   0.0000
    99 N5      20.5572   8.2863   5.7955   N.1       1 RES1   0.0000
   100 C38     20.8314   8.8469   6.7477   C.1       1 RES1   0.0000
   101 C39     21.2372   9.5930   7.9261   C.3       1 RES1   0.0000
   102 H55     21.2880  10.5468   7.7072   H         1 RES1   0.0000
   103 H56     22.1169   9.2804   8.2246   H         1 RES1   0.0000
   104 H57     20.5810   9.4562   8.6410   H         1 RES1   0.0000
   105 N6      23.4492  14.0576  11.1966   N.1       2 RES2   0.0000
   106 C40     23.0905  12.9724  11.1853   C.1       2 RES2   0.0000
   107 C41     22.5858  11.6049  11.1544   C.3       2 RES2   0.0000
   108 H58     21.7754  11.5676  10.6040   H         2 RES2   0.0000
   109 H59     22.3770  11.3135  12.0662   H         2 RES2   0.0000
   110 H60     23.2683  11.0128  10.7710   H         2 RES2   0.0000
   111 O1      19.3438  13.1334   0.4143   O.3       3 RES3   0.0000
   112 C42     20.9610  13.7151  -1.1797   C.3       3 RES3   0.0000
   113 H61     21.0913  14.0010  -2.1080   H         3 RES3   0.0000
   114 H62     21.3752  12.8362  -1.0476   H         3 RES3   0.0000
   115 H63     21.3762  14.3653  -0.5742   H         3 RES3   0.0000
   116 C43     19.5920  13.6285  -0.9063   C.3       3 RES3   0.0000
   117 H64     19.1642  13.0268  -1.5668   H         3 RES3   0.0000
   118 H65     19.1835  14.5263  -1.0017   H         3 RES3   0.0000
   119 C44     17.9717  12.9029   0.6533   C.3       3 RES3   0.0000
   120 H66     17.6590  12.1395   0.1046   H         3 RES3   0.0000
   121 H67     17.4487  13.7024   0.3963   H         3 RES3   0.0000
   122 C45     17.7598  12.6079   2.0860   C.3       3 RES3   0.0000
   123 H68     16.8154  12.3978   2.2401   H         3 RES3   0.0000
   124 H69     18.0127  13.3890   2.6217   H         3 RES3   0.0000
   125 H70     18.3116  11.8408   2.3465   H         3 RES3   0.0000
   126 C46     21.3626   2.4969   3.0500   C.3       4 RES4   0.0000
   127 F1      20.7183   3.6543   3.1421   F         4 RES4   0.0000
   128 F2      22.4261   2.5725   3.8507   F         4 RES4   0.0000
   129 F3      20.5593   1.5378   3.5368   F         4 RES4   0.0000
   130 S3      21.8406   2.1498   1.3217   S.o2      4 RES4   0.0000
   131 O2      22.6779   3.2691   0.9799   O.2       4 RES4   0.0000
   132 O3      20.5795   2.0956   0.6206   O.2       4 RES4   0.0000
   133 O4      22.5214   0.8829   1.4517   O.3       4 RES4  -1.0000
   134 C47     22.8944   6.4717  11.8426   C.3       5 RES5   0.0000
   135 F4      23.6606   6.9918  12.7942   F         5 RES5   0.0000
   136 F5      21.9292   5.7675  12.4447   F         5 RES5   0.0000
   137 F6      23.6438   5.6220  11.1377   F         5 RES5   0.0000
   138 S4      22.1768   7.7447  10.7637   S.o2      5 RES5   0.0000
   139 O5      23.3252   8.3422  10.1232   O.3       5 RES5  -1.0000
   140 O6      21.3156   6.9745   9.8990   O.2       5 RES5   0.0000
   141 O7      21.4795   8.6050  11.6863   O.2       5 RES5   0.0000
@<TRIPOS>BOND
     1     1     2    1
     2     2     7    1
     3     3     4    1
     4     5     3    2
     5     6     5    1
     6     7     3    1
     7     8     2    1
     8     9     1    1
     9    10     7    1
    10    11     9    1
    11    12    11   ar
    12    13    12   ar
    13    14    13    1
    14    15    13   ar
    15    16    10   ar
    16    17    16    1
    17    18     9    1
    18    19    18    1
    19    20    18    1
    20    21    18    1
    21    22    12    1
    22    23    22    1
    23    24    23    1
    24    25    23    1
    25    26    23    1
    26    27    22    1
    27    28    27    1
    28    29    27    1
    29    30    27    1
    30    31    22    1
    31    32    31    1
    32    33    31    1
    33    34    31    1
    34    35    15    1
    35    36    35    1
    36    37    36    1
    37    38    36    1
    38    39    36    1
    39    40    35    1
    40    41    40    1
    41    42    40    1
    42    43    40    1
    43    44    35    1
    44    45    44    1
    45    46    44    1
    46    47    44    1
    47    48     1    1
    48    49     8    1
    49    50    48    1
    50    51    50   ar
    51    52    51   ar
    52    53    52    1
    53    54    52   ar
    54    55    49   ar
    55    56    55    1
    56    57    48    1
    57    58    57    1
    58    59    57    1
    59    60    57    1
    60    61    51    1
    61    62    61    1
    62    63    62    1
    63    64    62    1
    64    65    62    1
    65    66    61    1
    66    67    66    1
    67    68    66    1
    68    69    66    1
    69    70    61    1
    70    71    70    1
    71    72    70    1
    72    73    70    1
    73    74    54    1
    74    75    74    1
    75    76    75    1
    76    77    75    1
    77    78    75    1
    78    79    74    1
    79    80    79    1
    80    81    79    1
    81    82    79    1
    82    83    74    1
    83    84    83    1
    84    85    83    1
    85    86    83    1
    86    87     1    1
    87    88    87    3
    88    89    88    1
    89    90    89    1
    90    91    89    1
    91    92    89    1
    92    93     1    1
    93    94    93    3
    94    95    94    1
    95    96    95    1
    96    97    95    1
    97    98    95    1
    98    99     1    1
    99   100    99    3
   100   101   100    1
   101   102   101    1
   102   103   101    1
   103   104   101    1
   104     5     8    1
   105    10    11   ar
   106    15    16   ar
   107    49    50   ar
   108    54    55   ar
   109   105   106    3
   110   106   107    1
   111   107   108    1
   112   109   107    1
   113   110   107    1
   114   111   116    1
   115   112   113    1
   116   114   112    1
   117   115   112    1
   118   116   112    1
   119   117   116    1
   120   118   116    1
   121   119   111    1
   122   120   119    1
   123   121   119    1
   124   122   119    1
   125   123   122    1
   126   124   122    1
   127   125   122    1
   128   126   127    1
   129   128   126    1
   130   129   126    1
   131   130   126    1
   132   131   130    2
   133   132   130    2
   134   133   130    1
   135   134   135    1
   136   136   134    1
   137   137   134    1
   138   138   134    1
   139   139   138    1
   140   140   138    2
   141   141   138    2
@<TRIPOS>SUBSTRUCTURE
     1 RES1        1 GROUP             0 ****  ****    0  
     2 RES2      105 GROUP             0 ****  ****    0  
     3 RES3      111 GROUP             0 ****  ****    0  
     4 RES4      126 GROUP             0 ****  ****    0  
     5 RES5      134 GROUP             0 ****  ****    0  
@<TRIPOS>CRYSIN
   29.4822   21.1784   19.4175   90.0000  109.1220   90.0000    15     1
