@<TRIPOS>MOLECULE
ALILAJ
   107   113     4     0     0
SMALL
USER_CHARGES
****
Generated from the CSD

@<TRIPOS>ATOM
     1 B1       5.5928  19.5024  10.3945   B         1 RES1  -1.0000
     2 F1       4.5606  20.4084  10.5875   F         1 RES1   0.0000
     3 F2       6.7811  20.0387  10.8855   F         1 RES1   0.0000
     4 F3       5.3214  18.3287  11.1260   F         1 RES1   0.0000
     5 F4       5.7164  19.1983   9.0734   F         1 RES1   0.0000
     6 B2      12.5290  19.7196   5.1182   B         2 RES2  -1.0000
     7 F5      11.2817  19.4611   5.6500   F         2 RES2   0.0000
     8 F6      13.2953  20.5980   5.8177   F         2 RES2   0.0000
     9 F7      12.2978  20.2647   3.8534   F         2 RES2   0.0000
    10 F8      13.2245  18.5189   4.9600   F         2 RES2   0.0000
    11 C1       2.0288  13.3079   4.9058   C.2       3 RES3   0.0000
    12 C2       1.7723  14.3261   5.7714   C.2       3 RES3   0.0000
    13 C3       0.6575  15.2128   6.1163   C.ar      3 RES3   0.0000
    14 C4      -0.6330  15.2308   5.6133   C.ar      3 RES3   0.0000
    15 C5      -1.5449  16.1232   6.1946   C.ar      3 RES3   0.0000
    16 C6      -1.1595  16.9839   7.2086   C.ar      3 RES3   0.0000
    17 C7       0.1568  16.9058   7.6270   C.ar      3 RES3   0.0000
    18 C8      -2.9938  16.1671   5.7985   C.2       3 RES3   0.0000
    19 C9      -5.3276  13.9846   5.4600   C.3       3 RES3   0.0000
    20 H1      -4.9133  13.1220   5.2508   H         3 RES3   0.0000
    21 H2      -6.2891  13.9386   5.2779   H         3 RES3   0.0000
    22 H3      -5.1850  14.1955   6.4070   H         3 RES3   0.0000
    23 C10     -4.7109  15.0497   4.6152   C.3       3 RES3   0.0000
    24 C11      8.3724  14.7845  10.1151   C.2       3 RES3   0.0000
    25 C12     10.6788  14.6446   9.6631   C.3       3 RES3   0.0000
    26 H4      11.2814  14.5903   8.8806   H         3 RES3   0.0000
    27 H5      10.6649  13.7549  10.0991   H         3 RES3   0.0000
    28 C13     11.2111  15.6658  10.6325   C.3       3 RES3   0.0000
    29 H6      11.0767  16.5639  10.2652   H         3 RES3   0.0000
    30 H7      12.1673  15.5113  10.7762   H         3 RES3   0.0000
    31 H8      10.7341  15.5844  11.4853   H         3 RES3   0.0000
    32 C16      5.7738  18.0613   6.3575   C.2       3 RES3   0.0000
    33 H12      6.7022  18.2598   6.3878   H         3 RES3   0.0000
    34 C17      4.8470  18.6587   5.5686   C.2       3 RES3   0.0000
    35 C18      3.6148  18.0559   5.8768   C.2       3 RES3   0.0000
    36 C19      5.5281  16.2757   8.1381   C.ar      3 RES3   0.0000
    37 C20      6.8289  16.0647   8.5565   C.ar      3 RES3   0.0000
    38 H13      7.5628  16.5096   8.1508   H         3 RES3   0.0000
    39 C21      7.0058  15.1709   9.5945   C.ar      3 RES3   0.0000
    40 C22      5.9309  14.5130  10.1885   C.ar      3 RES3   0.0000
    41 C23      4.6666  14.7571   9.6791   C.ar      3 RES3   0.0000
    42 C24      3.4006  14.1433  10.0336   C.2       3 RES3   0.0000
    43 C25      2.9428  13.2077  10.9295   C.2       3 RES3   0.0000
    44 H14      3.4430  12.7357  11.5843   H         3 RES3   0.0000
    45 C26      0.6464  12.2365  11.3240   C.3       3 RES3   0.0000
    46 H15     -0.1463  12.7712  11.5779   H         3 RES3   0.0000
    47 H16      1.0382  11.8606  12.1512   H         3 RES3   0.0000
    48 C27      0.2108  11.0983  10.4137   C.3       3 RES3   0.0000
    49 H17     -0.5461  10.6221  10.8385   H         3 RES3   0.0000
    50 H18     -0.1150  11.4805   9.5593   H         3 RES3   0.0000
    51 C28      0.8346   8.9346   9.2655   C.3       3 RES3   0.0000
    52 H19      0.0656   8.5065   9.6983   H         3 RES3   0.0000
    53 H20      1.5609   8.2830   9.1713   H         3 RES3   0.0000
    54 H21      0.5712   9.2604   8.3792   H         3 RES3   0.0000
    55 C29      1.3098  10.1042  10.1167   C.3       3 RES3   0.0000
    56 H22      1.6704   9.7575  10.9710   H         3 RES3   0.0000
    57 H23      2.0452  10.5678   9.6440   H         3 RES3   0.0000
    58 C30      4.3265   9.9851   7.2549   C.3       3 RES3   0.0000
    59 H24      4.8066   9.1915   6.9387   H         3 RES3   0.0000
    60 H25      4.0847   9.8682   8.1971   H         3 RES3   0.0000
    61 H26      4.9023  10.7725   7.1607   H         3 RES3   0.0000
    62 C31      3.1293  10.1689   6.4692   C.3       3 RES3   0.0000
    63 H27      2.6141  10.9208   6.8557   H         3 RES3   0.0000
    64 H28      2.5734   9.3544   6.5539   H         3 RES3   0.0000
    65 C32      3.3416  10.4404   5.0240   C.3       3 RES3   0.0000
    66 H29      2.4596  10.4174   4.5737   H         3 RES3   0.0000
    67 H30      3.8832   9.7011   4.6487   H         3 RES3   0.0000
    68 C33      4.0160  11.7436   4.6647   C.3       3 RES3   0.0000
    69 H31      4.9384  11.7478   5.0240   H         3 RES3   0.0000
    70 H32      4.0714  11.8251   3.6794   H         3 RES3   0.0000
    71 C34      2.3565  18.2138   9.9394   C.2       3 RES3   0.0000
    72 H33      3.1963  18.2284  10.3850   H         3 RES3   0.0000
    73 C35      1.3148  19.0931  10.2029   C.2       3 RES3   0.0000
    74 H34      1.3119  19.7990  10.8369   H         3 RES3   0.0000
    75 C36      0.2870  18.7380   9.3613   C.2       3 RES3   0.0000
    76 Fe1      2.7552  15.8799   7.9081   Fe        3 RES3   2.0000
    77 H35      1.5542  12.9278   4.2319   H         3 RES3   0.0000
    78 H36     -0.4670  19.1098   9.2783   H         3 RES3   0.0000
    79 H37     -1.6883  17.5852   7.5855   H         3 RES3   0.0000
    80 H38     -0.8544  14.6404   4.9026   H         3 RES3   0.0000
    81 H39      4.9405  19.3813   5.0304   H         3 RES3   0.0000
    82 H40      6.0077  13.9094  10.9072   H         3 RES3   0.0000
    83 H41      2.7318  18.2117   5.5893   H         3 RES3   0.0000
    84 H42     -4.7309  14.7657   3.7049   H         3 RES3   0.0000
    85 H43     -5.1608  15.9353   4.8388   H         3 RES3   0.0000
    86 N1       1.6360  13.1122  10.6724   N.pl3     3 RES3   0.0000
    87 N2       1.2510  13.9146   9.6711   N.2       3 RES3   0.0000
    88 N3       2.3286  14.5516   9.2831   N.2       3 RES3   0.0000
    89 N4       4.4880  15.6441   8.6698   N.ar      3 RES3   0.0000
    90 N5       3.7645  17.1326   6.8110   N.2       3 RES3   0.0000
    91 N6       5.1211  17.1211   7.0968   N.pl3     3 RES3   0.0000
    92 N8       1.0296  16.0388   7.1176   N.ar      3 RES3   0.0000
    93 N9       2.0313  17.3542   8.9908   N.2       3 RES3   0.0000
    94 N10      0.7314  17.6792   8.6411   N.pl3     3 RES3   0.0000
    95 N11      2.8873  14.4852   6.5555   N.2       3 RES3   0.0000
    96 N12      3.8070  13.6206   6.2249   N.2       3 RES3   0.0000
    97 N13      3.2749  12.8990   5.2093   N.pl3     3 RES3   0.0000
    98 O1       9.3296  14.9835   9.2144   O.3       3 RES3   0.0000
    99 O2       8.5395  14.3438  11.2058   O.2       3 RES3   0.0000
   100 O3      -3.7652  16.9874   6.2073   O.2       3 RES3   0.0000
   101 O4      -3.3016  15.1744   4.9649   O.3       3 RES3   0.0000
   102 C14      9.0957  19.2998   8.8758   C.1       4 RES4   0.0000
   103 C15      8.7856  20.4965   8.1221   C.3       4 RES4   0.0000
   104 H9       9.0692  20.3817   7.1911   H         4 RES4   0.0000
   105 H10      9.2568  21.2609   8.5149   H         4 RES4   0.0000
   106 H11      7.8188  20.6594   8.1508   H         4 RES4   0.0000
   107 N7       9.3508  18.3621   9.4555   N.1       4 RES4   0.0000
@<TRIPOS>BOND
     1     1     2    1
     2     3     1    1
     3     4     1    1
     4     5     1    1
     5     6     7    1
     6     8     6    1
     7     9     6    1
     8    10     6    1
     9    11    12    2
    10    12    13    1
    11    13    14   ar
    12    14    15   ar
    13    15    16   ar
    14    16    17   ar
    15    17    92   ar
    16    18    15    1
    17    19    20    1
    18    21    19    1
    19    22    19    1
    20    23    19    1
    21    24    39    1
    22    25    26    1
    23    27    25    1
    24    28    25    1
    25    29    28    1
    26    30    28    1
    27    31    28    1
    28    32    33    1
    29    34    32    2
    30    35    34    1
    31    36    37   ar
    32    37    38    1
    33    39    37   ar
    34    40    39   ar
    35    41    40   ar
    36    42    41    1
    37    43    42    2
    38    44    43    1
    39    45    46    1
    40    47    45    1
    41    48    45    1
    42    49    48    1
    43    50    48    1
    44    51    52    1
    45    53    51    1
    46    54    51    1
    47    55    48    1
    48    56    55    1
    49    57    55    1
    50    58    59    1
    51    60    58    1
    52    61    58    1
    53    62    58    1
    54    63    62    1
    55    64    62    1
    56    65    62    1
    57    66    65    1
    58    67    65    1
    59    68    65    1
    60    69    68    1
    61    70    68    1
    62    71    72    1
    63    73    71    1
    64    74    73    1
    65    75    73    2
    66    76    88    1
    67    77    11    1
    68    78    75    1
    69    79    16    1
    70    80    14    1
    71    81    34    1
    72    82    40    1
    73    83    35    1
    74    84    23    1
    75    85    23    1
    76    86    43    1
    77    87    86    1
    78    88    42    1
    79    89    36   ar
    80    90    35    2
    81    91    32    1
    82    92    13   ar
    83    93    71    2
    84    94    17    1
    85    95    12    1
    86    96    95    2
    87    97    11    1
    88    98    24    1
    89    99    24    2
    90   100    18    2
    91   101    18    1
    92    23   101    1
    93    25    98    1
    94    36    91    1
    95    41    89   ar
    96    45    86    1
    97    51    55    1
    98    68    97    1
    99    75    94    1
   100    76    89    1
   101    76    90    1
   102    76    92    1
   103    76    93    1
   104    76    95    1
   105    87    88    2
   106    90    91    1
   107    93    94    1
   108    96    97    1
   109   102   103    1
   110   103   104    1
   111   105   103    1
   112   106   103    1
   113   107   102    3
@<TRIPOS>SUBSTRUCTURE
     1 RES1        1 GROUP             0 ****  ****    0  
     2 RES2        6 GROUP             0 ****  ****    0  
     3 RES3       11 GROUP             0 ****  ****    0  
     4 RES4      102 GROUP             0 ****  ****    0  
@<TRIPOS>CRYSIN
   12.8665   20.8850   15.9996   90.0000   93.5150   90.0000   231     1
