@<TRIPOS>MOLECULE
ALOGUD
   175   192     2     0     0
SMALL
NO_CHARGES
****
Generated from the CSD

@<TRIPOS>ATOM
     1 Fe1     13.5563  12.4042  14.4134   Fe        1 RES1   0.0000
     2 N1      12.5496  12.4315  16.1315   N.2       1 RES1   0.0000
     3 N2      13.8525  10.5240  14.7268   N.2       1 RES1   0.0000
     4 N3      15.3135  12.6943  15.2361   N.2       1 RES1   0.0000
     5 N4      14.3853  12.4188  12.6190   N.2       1 RES1   0.0000
     6 C1      11.2068  13.1767  17.8047   C.2       1 RES1   0.0000
     7 H1      10.8118  13.7654  18.4380   H         1 RES1   0.0000
     8 C2      10.9123  11.8532  17.6286   C.2       1 RES1   0.0000
     9 H2      10.2656  11.3489  18.1099   H         1 RES1   0.0000
    10 C3      12.2092  13.5007  16.8652   C.2       1 RES1   0.0000
    11 H3      12.5918  14.3642  16.7651   H         1 RES1   0.0000
    12 C4      11.7573  11.3742  16.5882   C.2       1 RES1   0.0000
    13 N5      11.8004  12.0250  13.6084   N.2       1 RES1   0.0000
    14 C5      13.7303  12.3528  11.4454   C.2       1 RES1   0.0000
    15 H4      12.7895  12.2502  11.3653   H         1 RES1   0.0000
    16 C6      15.8633  12.6063  10.8781   C.2       1 RES1   0.0000
    17 H5      16.6723  12.6948  10.3895   H         1 RES1   0.0000
    18 C7      15.7298  12.6069  12.2831   C.2       1 RES1   0.0000
    19 C8      14.6090  12.4533  10.3511   C.2       1 RES1   0.0000
    20 H6      14.3769  12.4210   9.4309   H         1 RES1   0.0000
    21 C9      16.5539  12.8543  14.6047   C.2       1 RES1   0.0000
    22 N6      13.2402  14.3031  14.2771   N.2       1 RES1   0.0000
    23 C10      9.5660  12.1865  13.1335   C.2       1 RES1   0.0000
    24 H7       8.6831  12.5269  13.0502   H         1 RES1   0.0000
    25 C11     11.9975  14.9263  14.1756   C.2       1 RES1   0.0000
    26 C12     10.8041  14.2475  13.8962   C.2       1 RES1   0.0000
    27 C13     10.7064  12.8930  13.6086   C.2       1 RES1   0.0000
    28 C14     14.5383   8.4088  14.3094   C.2       1 RES1   0.0000
    29 H8      15.0623   7.6879  13.9815   H         1 RES1   0.0000
    30 C15     12.9764   9.6379  15.3482   C.2       1 RES1   0.0000
    31 C16     14.7866   9.7785  14.1270   C.2       1 RES1   0.0000
    32 H9      15.5219  10.1301  13.6397   H         1 RES1   0.0000
    33 C17     11.9306  10.0558  16.1788   C.2       1 RES1   0.0000
    34 C18     13.5103  16.5372  14.5611   C.2       1 RES1   0.0000
    35 H10     13.9337  17.3749  14.7128   H         1 RES1   0.0000
    36 C19     11.4201   7.9424  17.4336   C.ar      1 RES1   0.0000
    37 H11     12.3147   7.9344  17.7562   H         1 RES1   0.0000
    38 C20      8.8118   7.9786  16.5264   C.ar      1 RES1   0.0000
    39 H12      7.9132   8.0009  16.2217   H         1 RES1   0.0000
    40 C21     13.3930   8.3162  15.0512   C.2       1 RES1   0.0000
    41 H13     12.9587   7.5155  15.3177   H         1 RES1   0.0000
    42 C22     14.1318  15.2835  14.5059   C.2       1 RES1   0.0000
    43 H14     15.0661  15.1430  14.6154   H         1 RES1   0.0000
    44 C23     10.9856   9.0037  16.6503   C.ar      1 RES1   0.0000
    45 C24     15.5580  12.6787  16.5385   C.2       1 RES1   0.0000
    46 H15     14.8891  12.5828  17.2060   H         1 RES1   0.0000
    47 C25      9.6641   9.0203  16.2188   C.ar      1 RES1   0.0000
    48 H16      9.3453   9.7551  15.7074   H         1 RES1   0.0000
    49 C26      9.2604   6.8910  17.2812   C.ar      1 RES1   0.0000
    50 C27     11.3569  10.8637  13.1255   C.2       1 RES1   0.0000
    51 H17     11.8976  10.0938  13.0023   H         1 RES1   0.0000
    52 C28     18.1103  13.1238  12.7287   C.ar      1 RES1   0.0000
    53 C29     16.9390  12.8233  16.8162   C.2       1 RES1   0.0000
    54 H18     17.3505  12.8354  17.6725   H         1 RES1   0.0000
    55 C30     18.6517  14.3895  12.9211   C.ar      1 RES1   0.0000
    56 H19     18.1274  15.0628  13.3389   H         1 RES1   0.0000
    57 C31     17.5612  12.9423  15.6072   C.2       1 RES1   0.0000
    58 H20     18.4914  13.0622  15.4613   H         1 RES1   0.0000
    59 C32     16.7370  12.8334  13.2263   C.2       1 RES1   0.0000
    60 C33     18.8857  12.1610  12.0965   C.ar      1 RES1   0.0000
    61 H21     18.5248  11.2960  11.9428   H         1 RES1   0.0000
    62 C34     20.1758  12.4465  11.6881   C.ar      1 RES1   0.0000
    63 H22     20.6925  11.7784  11.2525   H         1 RES1   0.0000
    64 C35      9.9853  10.9243  12.8208   C.2       1 RES1   0.0000
    65 H23      9.4524  10.2223  12.4657   H         1 RES1   0.0000
    66 C36     20.7257  13.7096  11.9123   C.ar      1 RES1   0.0000
    67 C37      9.5432  15.0479  13.8495   C.ar      1 RES1   0.0000
    68 C38     12.1772  16.3223  14.3557   C.2       1 RES1   0.0000
    69 H24     11.4960  16.9848  14.3369   H         1 RES1   0.0000
    70 C39      7.6244   4.8774  17.7138   C.1       1 RES1   0.0000
    71 C40     10.5707   6.8954  17.7519   C.ar      1 RES1   0.0000
    72 H25     10.8821   6.1788  18.2928   H         1 RES1   0.0000
    73 C41      8.3834   5.7868  17.5377   C.1       1 RES1   0.0000
    74 C42      6.6513   3.8352  17.8425   C.ar      1 RES1   0.0000
    75 C43     23.2538  14.1956  11.3745   C.1       1 RES1   0.0000
    76 C44     22.0943  13.9842  11.5722   C.1       1 RES1   0.0000
    77 C45     24.6601  14.3737  11.1409   C.ar      1 RES1   0.0000
    78 C46      5.6482   3.7191  16.8782   C.ar      1 RES1   0.0000
    79 H26      5.6325   4.3218  16.1448   H         1 RES1   0.0000
    80 C47      4.6854   2.7454  16.9768   C.ar      1 RES1   0.0000
    81 H27      4.0100   2.6826  16.3123   H         1 RES1   0.0000
    82 C48      6.6517   2.9421  18.9202   C.ar      1 RES1   0.0000
    83 H28      7.3203   3.0108  19.5898   H         1 RES1   0.0000
    84 C49      4.6895   1.8455  18.0455   C.ar      1 RES1   0.0000
    85 C50      3.6931   0.8095  18.0922   C.1       1 RES1   0.0000
    86 C51      5.6832   1.9599  19.0159   C.ar      1 RES1   0.0000
    87 H29      5.6951   1.3579  19.7504   H         1 RES1   0.0000
    88 C52      7.6386  16.0040  14.9555   C.ar      1 RES1   0.0000
    89 H30      7.1624  16.1788  15.7586   H         1 RES1   0.0000
    90 C53      7.1290  16.4437  13.7475   C.ar      1 RES1   0.0000
    91 C54      8.8370  15.3105  15.0079   C.ar      1 RES1   0.0000
    92 H31      9.1742  15.0144  15.8441   H         1 RES1   0.0000
    93 C55      2.8739  -0.0541  18.0394   C.1       1 RES1   0.0000
    94 C56     25.3663  15.3961  11.7569   C.ar      1 RES1   0.0000
    95 H32     24.9150  16.0019  12.3325   H         1 RES1   0.0000
    96 C57      4.7604  17.5563  13.5138   C.1       1 RES1   0.0000
    97 C58     29.9665  14.8752  10.1804   C.1       1 RES1   0.0000
    98 C59     26.6804  13.6432  10.0761   C.ar      1 RES1   0.0000
    99 H33     27.1268  13.0395   9.4941   H         1 RES1   0.0000
   100 C60      5.8461  17.0870  13.6558   C.1       1 RES1   0.0000
   101 C61     28.8039  14.7926  10.4326   C.1       1 RES1   0.0000
   102 C62     27.4006  14.6612  10.6941   C.ar      1 RES1   0.0000
   103 C63     25.3327  13.5004  10.2962   C.ar      1 RES1   0.0000
   104 H34     24.8576  12.7991   9.8666   H         1 RES1   0.0000
   105 C64      9.0552  15.5091  12.6513   C.ar      1 RES1   0.0000
   106 H35      9.5435  15.3517  11.8523   H         1 RES1   0.0000
   107 C65      3.4159  18.0135  13.3025   C.ar      1 RES1   0.0000
   108 C66      2.3418  17.3071  13.8487   C.ar      1 RES1   0.0000
   109 H36      2.5074  16.5629  14.4155   H         1 RES1   0.0000
   110 C67     32.0862  16.0713  10.4196   C.ar      1 RES1   0.0000
   111 H37     31.6432  16.7292  10.9432   H         1 RES1   0.0000
   112 C68      1.0455  17.6787  13.5736   C.ar      1 RES1   0.0000
   113 H38      0.3236  17.1829  13.9422   H         1 RES1   0.0000
   114 C69     31.3705  14.9951   9.9048   C.ar      1 RES1   0.0000
   115 C70      3.1569  19.1261  12.5015   C.ar      1 RES1   0.0000
   116 H39      3.8782  19.6296  12.1411   H         1 RES1   0.0000
   117 C71      1.9270  -1.1270  17.8827   C.ar      1 RES1   0.0000
   118 C72     32.0361  14.0462   9.1314   C.ar      1 RES1   0.0000
   119 H40     31.5608  13.3072   8.7713   H         1 RES1   0.0000
   120 C73      1.9363  -2.2414  18.6931   C.ar      1 RES1   0.0000
   121 H41      2.5572  -2.3000  19.4103   H         1 RES1   0.0000
   122 C74     19.9341  14.6819  12.5170   C.ar      1 RES1   0.0000
   123 H42     20.2835  15.5558  12.6520   H         1 RES1   0.0000
   124 C75      0.7852  18.7787  12.7574   C.ar      1 RES1   0.0000
   125 C76     -0.5681  19.1581  12.4381   C.1       1 RES1   0.0000
   126 C77     -1.6741  19.4687  12.1523   C.1       1 RES1   0.0000
   127 C78     33.4388  16.1865  10.1727   C.ar      1 RES1   0.0000
   128 H43     33.9252  16.9213  10.5297   H         1 RES1   0.0000
   129 C79     34.0861  15.2428   9.4128   C.ar      1 RES1   0.0000
   130 H44     35.0188  15.3229   9.2481   H         1 RES1   0.0000
   131 C80      1.8577  19.4950  12.2340   C.ar      1 RES1   0.0000
   132 H45      1.6911  20.2511  11.6831   H         1 RES1   0.0000
   133 C81      7.8621  16.1976  12.5953   C.ar      1 RES1   0.0000
   134 H46      7.5376  16.5070  11.7583   H         1 RES1   0.0000
   135 C82     33.3840  14.1794   8.8887   C.ar      1 RES1   0.0000
   136 H47     33.8341  13.5340   8.3561   H         1 RES1   0.0000
   137 C83     26.7211  15.5386  11.5387   C.ar      1 RES1   0.0000
   138 H48     27.1957  16.2408  11.9685   H         1 RES1   0.0000
   139 C84      0.9903  -1.0404  16.8728   C.ar      1 RES1   0.0000
   140 H49      0.9584  -0.2677  16.3208   H         1 RES1   0.0000
   141 C85      1.0398  -3.2799  18.4654   C.ar      1 RES1   0.0000
   142 H50      1.0502  -4.0466  19.0241   H         1 RES1   0.0000
   143 C86     -3.0165  19.8784  11.8053   C.ar      1 RES1   0.0000
   144 C87     -3.6133  20.9376  12.4563   C.ar      1 RES1   0.0000
   145 H51     -3.1465  21.3868  13.1527   H         1 RES1   0.0000
   146 C88     -3.7091  19.2349  10.8116   C.ar      1 RES1   0.0000
   147 H52     -3.3112  18.5000  10.3622   H         1 RES1   0.0000
   148 C89      0.1496  -3.1952  17.4469   C.ar      1 RES1   0.0000
   149 H53     -0.4418  -3.9196  17.2760   H         1 RES1   0.0000
   150 C90     -4.9852  19.6493  10.4562   C.ar      1 RES1   0.0000
   151 H54     -5.4600  19.2001   9.7675   H         1 RES1   0.0000
   152 C91      0.0977  -2.0777  16.6609   C.ar      1 RES1   0.0000
   153 H55     -0.5495  -2.0127  15.9688   H         1 RES1   0.0000
   154 C92     -4.8831  21.3514  12.1043   C.ar      1 RES1   0.0000
   155 H56     -5.2867  22.0824  12.5580   H         1 RES1   0.0000
   156 C93     -5.5559  20.7184  11.1141   C.ar      1 RES1   0.0000
   157 H57     -6.4248  21.0133  10.8714   H         1 RES1   0.0000
   158 C94      6.2431  13.2512   2.5239   C.3       2 RES2   0.0000
   159 H58      6.3948  13.9302   3.2279   H         2 RES2   0.0000
   160 H59      5.3602  13.4387   2.1155   H         2 RES2   0.0000
   161 C95      7.5442  11.0147   1.3551   C.3       2 RES2   0.0000
   162 H60      8.4303  10.7773   1.7276   H         2 RES2   0.0000
   163 H61      7.3461  10.3645   0.6374   H         2 RES2   0.0000
   164 C96      6.5515  10.8348   2.4094   C.3       2 RES2   0.0000
   165 H62      5.7331  10.4567   2.0010   H         2 RES2   0.0000
   166 H63      6.8994  10.1618   3.0468   H         2 RES2   0.0000
   167 C97      7.6574  12.3333   0.7433   C.3       2 RES2   0.0000
   168 H64      8.6040  12.4740   0.4887   H         2 RES2   0.0000
   169 H65      7.1251  12.3318  -0.0906   H         2 RES2   0.0000
   170 C98      6.1873  11.9765   3.1374   C.3       2 RES2   0.0000
   171 H66      6.7635  12.0112   3.9422   H         2 RES2   0.0000
   172 H67      5.2591  11.8419   3.4535   H         2 RES2   0.0000
   173 C99      7.2538  13.4176   1.5123   C.3       2 RES2   0.0000
   174 H68      6.9322  14.1162   0.8886   H         2 RES2   0.0000
   175 H69      8.0603  13.7775   1.9583   H         2 RES2   0.0000
@<TRIPOS>BOND
     1     1     2    1
     2     2    10    2
     3     3     1    1
     4     4     1    1
     5     5     1    1
     6     6     7    1
     7     8     6    2
     8     9     8    1
     9    10     6    1
    10    11    10    1
    11    12     2    1
    12    13     1    1
    13    14     5    1
    14    15    14    1
    15    16    17    1
    16    18     5    1
    17    19    14    2
    18    20    19    1
    19    21     4    1
    20    22     1    1
    21    23    24    1
    22    25    22    1
    23    26    25    1
    24    27    13    1
    25    28    29    1
    26    30     3    1
    27    31     3    1
    28    32    31    1
    29    33    12    2
    30    34    35    1
    31    36    37    1
    32    38    39    1
    33    40    28    1
    34    41    40    1
    35    42    22    1
    36    43    42    1
    37    44    33    1
    38    45     4    2
    39    46    45    1
    40    47    38   ar
    41    48    47    1
    42    49    38   ar
    43    50    13    2
    44    51    50    1
    45    52    55   ar
    46    53    45    1
    47    54    53    1
    48    55    56    1
    49    57    21    1
    50    58    57    1
    51    59    18    1
    52    60    52   ar
    53    61    60    1
    54    62    60   ar
    55    63    62    1
    56    64    23    2
    57    65    64    1
    58    66    62   ar
    59    67    26    1
    60    68    25    2
    61    69    68    1
    62    70    73    3
    63    71    36   ar
    64    72    71    1
    65    73    49    1
    66    74    70    1
    67    75    76    3
    68    76    66    1
    69    77    75    1
    70    78    74   ar
    71    79    78    1
    72    80    78   ar
    73    81    80    1
    74    82    74   ar
    75    83    82    1
    76    84    80   ar
    77    85    84    1
    78    86    82   ar
    79    87    86    1
    80    88    89    1
    81    90    88   ar
    82    91    67   ar
    83    92    91    1
    84    93    85    3
    85    94    77   ar
    86    95    94    1
    87    96   100    3
    88    97   101    3
    89    98    99    1
    90   100    90    1
    91   101   102    1
    92   102    98   ar
    93   103    77   ar
    94   104   103    1
    95   105    67   ar
    96   106   105    1
    97   107    96    1
    98   108   107   ar
    99   109   108    1
   100   110   111    1
   101   112   108   ar
   102   113   112    1
   103   114    97    1
   104   115   107   ar
   105   116   115    1
   106   117    93    1
   107   118   114   ar
   108   119   118    1
   109   120   117   ar
   110   121   120    1
   111   122    55   ar
   112   123   122    1
   113   124   112   ar
   114   125   124    1
   115   126   125    3
   116   127   110   ar
   117   128   127    1
   118   129   127   ar
   119   130   129    1
   120   131   115   ar
   121   132   131    1
   122   133    90   ar
   123   134   133    1
   124   135   118   ar
   125   136   135    1
   126   137    94   ar
   127   138   137    1
   128   139   117   ar
   129   140   139    1
   130   141   120   ar
   131   142   141    1
   132   143   126    1
   133   144   143   ar
   134   145   144    1
   135   146   143   ar
   136   147   146    1
   137   148   141   ar
   138   149   148    1
   139   150   146   ar
   140   151   150    1
   141   152   139   ar
   142   153   152    1
   143   154   144   ar
   144   155   154    1
   145   156   150   ar
   146   157   156    1
   147     8    12    1
   148    16    18    2
   149    16    19    1
   150    21    59    2
   151    23    27    1
   152    26    27    2
   153    28    31    2
   154    30    33    1
   155    30    40    2
   156    34    42    2
   157    34    68    1
   158    36    44   ar
   159    44    47   ar
   160    49    71   ar
   161    50    64    1
   162    52    59    1
   163    53    57    2
   164    66   122   ar
   165    84    86   ar
   166    88    91   ar
   167    98   103   ar
   168   102   137   ar
   169   105   133   ar
   170   110   114   ar
   171   124   131   ar
   172   129   135   ar
   173   148   152   ar
   174   154   156   ar
   175   158   159    1
   176   160   158    1
   177   161   162    1
   178   163   161    1
   179   164   161    1
   180   165   164    1
   181   166   164    1
   182   167   161    1
   183   168   167    1
   184   169   167    1
   185   170   158    1
   186   171   170    1
   187   172   170    1
   188   173   158    1
   189   174   173    1
   190   175   173    1
   191   164   170    1
   192   167   173    1
@<TRIPOS>SUBSTRUCTURE
     1 RES1        1 GROUP             0 ****  ****    0  
     2 RES2      158 GROUP             0 ****  ****    0  
@<TRIPOS>CRYSIN
   28.8956   15.1218   17.0938   90.0000   91.4840   90.0000    14     1
