@<TRIPOS>MOLECULE
ALUBOB
   111   121     4     0     0
SMALL
USER_CHARGES
****
Generated from the CSD

@<TRIPOS>ATOM
     1 Fe1      8.7575   5.0533  11.4560   Fe        1 RES1   2.0000
     2 O1       6.9506   6.1533   8.0025   O.3       1 RES1   0.0000
     3 O2       9.0318   7.5423  14.6397   O.3       1 RES1   0.0000
     4 O3       6.5870   1.9708  12.9261   O.3       1 RES1   0.0000
     5 O4      12.5754   4.6032  10.1854   O.3       1 RES1   0.0000
     6 N1       8.0114   4.9764   9.6262   N.2       1 RES1   0.0000
     7 N2       7.9518   6.7708  11.3471   N.ar      1 RES1   0.0000
     8 N3       9.2252   5.7637  13.2436   N.2       1 RES1   0.0000
     9 N4       7.2523   4.0017  12.1958   N.2       1 RES1   0.0000
    10 N5       9.5758   3.3388  11.5852   N.ar      1 RES1   0.0000
    11 N6      10.5557   5.4627  10.7267   N.2       1 RES1   0.0000
    12 C1       7.4857   2.6855   8.8266   C.ar      1 RES1   0.0000
    13 C2       6.1445   2.5073   9.1401   C.ar      1 RES1   0.0000
    14 H1       5.5502   3.2477   9.1092   H         1 RES1   0.0000
    15 C3       5.6637   1.2528   9.4979   C.ar      1 RES1   0.0000
    16 H2       4.7452   1.1423   9.7108   H         1 RES1   0.0000
    17 C4       6.5120   0.1717   9.5457   C.ar      1 RES1   0.0000
    18 H3       6.1802  -0.6830   9.7945   H         1 RES1   0.0000
    19 C5       7.8412   0.3285   9.2333   C.ar      1 RES1   0.0000
    20 H4       8.4261  -0.4196   9.2623   H         1 RES1   0.0000
    21 C6       8.3375   1.5895   8.8716   C.ar      1 RES1   0.0000
    22 H5       9.2578   1.6940   8.6576   H         1 RES1   0.0000
    23 C7       8.0318   4.0473   8.4519   C.3       1 RES1   0.0000
    24 H6       8.9719   3.9471   8.1271   H         1 RES1   0.0000
    25 C8       7.2127   4.8313   7.4038   C.3       1 RES1   0.0000
    26 H7       7.7245   4.9254   6.5619   H         1 RES1   0.0000
    27 H8       6.3617   4.3636   7.2072   H         1 RES1   0.0000
    28 C9       7.4256   6.0643   9.2562   C.2       1 RES1   0.0000
    29 C10      7.3415   7.1653  10.2080   C.ar      1 RES1   0.0000
    30 C11      6.7730   8.4296  10.0912   C.ar      1 RES1   0.0000
    31 H9       6.3601   8.7055   9.2813   H         1 RES1   0.0000
    32 C12      6.8263   9.2764  11.1860   C.ar      1 RES1   0.0000
    33 H10      6.4364  10.1407  11.1320   H         1 RES1   0.0000
    34 C13      7.4411   8.8720  12.3592   C.ar      1 RES1   0.0000
    35 H11      7.4725   9.4480  13.1140   H         1 RES1   0.0000
    36 C14      8.0112   7.6043  12.4090   C.ar      1 RES1   0.0000
    37 C15      8.7531   6.9424  13.4683   C.2       1 RES1   0.0000
    38 C16      9.7045   6.4869  15.4325   C.3       1 RES1   0.0000
    39 H12      9.0863   6.1047  16.1041   H         1 RES1   0.0000
    40 H13     10.4984   6.8513  15.8989   H         1 RES1   0.0000
    41 C17     10.1183   5.4222  14.4022   C.3       1 RES1   0.0000
    42 H14     11.0648   5.5973  14.1319   H         1 RES1   0.0000
    43 C18     10.0119   3.9845  14.8590   C.ar      1 RES1   0.0000
    44 C19      8.8510   3.4943  15.4287   C.ar      1 RES1   0.0000
    45 H15      8.0989   4.0634  15.5374   H         1 RES1   0.0000
    46 C20      8.7840   2.1722  15.8414   C.ar      1 RES1   0.0000
    47 H16      7.9815   1.8394  16.2255   H         1 RES1   0.0000
    48 C21      9.8762   1.3320  15.6990   C.ar      1 RES1   0.0000
    49 H17      9.8252   0.4275  15.9856   H         1 RES1   0.0000
    50 C22     11.0388   1.8206  15.1363   C.ar      1 RES1   0.0000
    51 H18     11.7907   1.2502  15.0312   H         1 RES1   0.0000
    52 C23     11.1092   3.1444  14.7246   C.ar      1 RES1   0.0000
    53 H19     11.9141   3.4784  14.3477   H         1 RES1   0.0000
    54 C24      5.3906   5.4602  13.0793   C.ar      1 RES1   0.0000
    55 C25      4.6195   6.3763  12.3812   C.ar      1 RES1   0.0000
    56 H20      4.3447   6.1834  11.4927   H         1 RES1   0.0000
    57 C26      4.2486   7.5796  12.9787   C.ar      1 RES1   0.0000
    58 H21      3.7063   8.1968  12.5005   H         1 RES1   0.0000
    59 C27      4.6608   7.8800  14.2580   C.ar      1 RES1   0.0000
    60 H22      4.4055   8.7021  14.6608   H         1 RES1   0.0000
    61 C28      5.4541   6.9787  14.9569   C.ar      1 RES1   0.0000
    62 H23      5.7662   7.1899  15.8286   H         1 RES1   0.0000
    63 C29      5.7856   5.7639  14.3703   C.ar      1 RES1   0.0000
    64 H24      6.2915   5.1297  14.8643   H         1 RES1   0.0000
    65 C30      5.7736   4.1612  12.4068   C.3       1 RES1   0.0000
    66 H25      5.3154   4.1124  11.5191   H         1 RES1   0.0000
    67 C31      5.4524   2.8770  13.1996   C.3       1 RES1   0.0000
    68 H26      5.3816   3.0697  14.1682   H         1 RES1   0.0000
    69 H27      4.6005   2.4765  12.8907   H         1 RES1   0.0000
    70 C32      7.5458   2.7714  12.4460   C.2       1 RES1   0.0000
    71 C33      8.8870   2.3026  12.1176   C.ar      1 RES1   0.0000
    72 C34      9.4589   1.0432  12.2561   C.ar      1 RES1   0.0000
    73 H28      8.9730   0.3275  12.6496   H         1 RES1   0.0000
    74 C35     10.7554   0.8600  11.8039   C.ar      1 RES1   0.0000
    75 H29     11.1649   0.0056  11.8793   H         1 RES1   0.0000
    76 C36     11.4681   1.9196  11.2389   C.ar      1 RES1   0.0000
    77 H30     12.3520   1.7972  10.9145   H         1 RES1   0.0000
    78 C37     10.8413   3.1609  11.1658   C.ar      1 RES1   0.0000
    79 C38     11.3565   4.4418  10.6797   C.2       1 RES1   0.0000
    80 C39     12.7029   6.0577   9.9804   C.3       1 RES1   0.0000
    81 H31     13.0886   6.2530   9.0902   H         1 RES1   0.0000
    82 H32     13.2827   6.4591  10.6749   H         1 RES1   0.0000
    83 C40     11.2672   6.6107  10.0845   C.3       1 RES1   0.0000
    84 H33     10.9016   6.7486   9.1640   H         1 RES1   0.0000
    85 C41     11.1281   7.8965  10.8741   C.ar      1 RES1   0.0000
    86 C42     11.5763   7.9840  12.1869   C.ar      1 RES1   0.0000
    87 H34     11.9852   7.2334  12.6004   H         1 RES1   0.0000
    88 C43     11.4269   9.1757  12.8964   C.ar      1 RES1   0.0000
    89 H35     11.7358   9.2299  13.7929   H         1 RES1   0.0000
    90 C44     10.8344  10.2750  12.3123   C.ar      1 RES1   0.0000
    91 H36     10.7307  11.0828  12.8012   H         1 RES1   0.0000
    92 C45     10.3897  10.1859  10.9973   C.ar      1 RES1   0.0000
    93 H37      9.9777  10.9358  10.5850   H         1 RES1   0.0000
    94 C46     10.5425   9.0123  10.2897   C.ar      1 RES1   0.0000
    95 H38     10.2442   8.9658   9.3890   H         1 RES1   0.0000
    96 F1      10.3342   5.1763   6.6352   F         2 RES2   0.0000
    97 F2      11.7039   3.8469   5.4387   F         2 RES2   0.0000
    98 F3      11.3089   3.3813   7.6090   F         2 RES2   0.0000
    99 F4      12.5694   5.1997   6.9745   F         2 RES2   0.0000
   100 B1      11.4681   4.4055   6.6716   B         2 RES2  -1.0000
   101 F5      13.2742   5.1934  13.0828   F         3 RES3   0.0000
   102 F6      13.4362   6.5826  14.8389   F         3 RES3   0.0000
   103 F7      15.1516   6.4060  13.4144   F         3 RES3   0.0000
   104 F8      14.6778   4.6671  14.7642   F         3 RES3   0.0000
   105 B2      14.1488   5.7045  14.0307   B         3 RES3  -1.0000
   106 N7      10.8104   3.3540   2.1601   N.1       4 RES4   0.0000
   107 C47     10.3175   4.2767   2.6041   C.1       4 RES4   0.0000
   108 C48      9.6942   5.4651   3.1968   C.3       4 RES4   0.0000
   109 H39     10.1029   6.2708   2.8178   H         4 RES4   0.0000
   110 H40      9.8312   5.4548   4.1674   H         4 RES4   0.0000
   111 H41      8.7344   5.4618   3.0020   H         4 RES4   0.0000
@<TRIPOS>BOND
     1     1     6    1
     2     2    25    1
     3     3    37    1
     4     4    67    1
     5     5    79    1
     6     6    23    1
     7     7     1    1
     8     8     1    1
     9     9     1    1
    10    10     1    1
    11    11     1    1
    12    12    13   ar
    13    13    14    1
    14    15    13   ar
    15    16    15    1
    16    17    15   ar
    17    18    17    1
    18    19    17   ar
    19    20    19    1
    20    21    12   ar
    21    22    21    1
    22    23    12    1
    23    24    23    1
    24    25    23    1
    25    26    25    1
    26    27    25    1
    27    28     2    1
    28    29     7   ar
    29    30    29   ar
    30    31    30    1
    31    32    30   ar
    32    33    32    1
    33    34    32   ar
    34    35    34    1
    35    36     7   ar
    36    37     8    2
    37    38     3    1
    38    39    38    1
    39    40    38    1
    40    41     8    1
    41    42    41    1
    42    43    41    1
    43    44    43   ar
    44    45    44    1
    45    46    44   ar
    46    47    46    1
    47    48    46   ar
    48    49    48    1
    49    50    48   ar
    50    51    50    1
    51    52    43   ar
    52    53    52    1
    53    54    55   ar
    54    55    56    1
    55    57    55   ar
    56    58    57    1
    57    59    57   ar
    58    60    59    1
    59    61    59   ar
    60    62    61    1
    61    63    54   ar
    62    64    63    1
    63    65     9    1
    64    66    65    1
    65    67    65    1
    66    68    67    1
    67    69    67    1
    68    70     4    1
    69    71    10   ar
    70    72    71   ar
    71    73    72    1
    72    74    72   ar
    73    75    74    1
    74    76    74   ar
    75    77    76    1
    76    78    10   ar
    77    79    11    2
    78    80     5    1
    79    81    80    1
    80    82    80    1
    81    83    11    1
    82    84    83    1
    83    85    83    1
    84    86    85   ar
    85    87    86    1
    86    88    86   ar
    87    89    88    1
    88    90    88   ar
    89    91    90    1
    90    92    90   ar
    91    93    92    1
    92    94    85   ar
    93    95    94    1
    94     6    28    2
    95     9    70    2
    96    19    21   ar
    97    28    29    1
    98    34    36   ar
    99    36    37    1
   100    38    41    1
   101    50    52   ar
   102    54    65    1
   103    61    63   ar
   104    70    71    1
   105    76    78   ar
   106    78    79    1
   107    80    83    1
   108    92    94   ar
   109    96   100    1
   110    97   100    1
   111    98   100    1
   112    99   100    1
   113   101   105    1
   114   102   105    1
   115   103   105    1
   116   104   105    1
   117   106   107    3
   118   107   108    1
   119   108   109    1
   120   110   108    1
   121   111   108    1
@<TRIPOS>SUBSTRUCTURE
     1 RES1        1 GROUP             0 ****  ****    0  
     2 RES2       96 GROUP             0 ****  ****    0  
     3 RES3      101 GROUP             0 ****  ****    0  
     4 RES4      106 GROUP             0 ****  ****    0  
@<TRIPOS>CRYSIN
   17.1730   16.5060   31.9170   90.0000   90.0000   90.0000    61     1
