@<TRIPOS>MOLECULE
ANAVUH
   118   132     2     0     0
SMALL
NO_CHARGES
****
Generated from the CSD

@<TRIPOS>ATOM
     1 Fe1      7.2834  -0.5046   6.3945   Fe        1 RES1   0.0000
     2 B1       9.1814   1.4684   3.7063   B         1 RES1   0.0000
     3 H1       9.6369   1.9949   2.8903   H         1 RES1   0.0000
     4 O1       9.3553  -0.5838   5.9964   O.2       1 RES1   0.0000
     5 O2       7.4935   1.5845   6.2785   O.2       1 RES1   0.0000
     6 O3       6.9350  -0.5720   4.3066   O.2       1 RES1   0.0000
     7 N1       9.8341   0.0643   3.7792   N.am      1 RES1   0.0000
     8 N2      10.6459  -1.8522   4.5580   N.am      1 RES1   0.0000
     9 N3       9.3622   2.2482   5.0222   N.am      1 RES1   0.0000
    10 N4       9.0970   3.0548   7.0826   N.am      1 RES1   0.0000
    11 N5       7.6910   1.4157   3.3188   N.am      1 RES1   0.0000
    12 N6       5.5269   0.9027   3.2011   N.am      1 RES1   0.0000
    13 C1      10.8823  -2.9425   5.4839   C.3       1 RES1   0.0000
    14 H2      10.2548  -2.8758   6.2334   H         1 RES1   0.0000
    15 H3      11.8010  -2.8913   5.8203   H         1 RES1   0.0000
    16 H4      10.7496  -3.7964   5.0222   H         1 RES1   0.0000
    17 C2       9.8818  -0.7572   4.8777   C.2       1 RES1   0.0000
    18 C3      11.0923  -1.7346   3.2484   C.ar      1 RES1   0.0000
    19 C4      10.5828  -0.5332   2.7612   C.ar      1 RES1   0.0000
    20 C5      10.8438  -0.1512   1.4579   C.ar      1 RES1   0.0000
    21 H5      10.4947   0.6594   1.1075   H         1 RES1   0.0000
    22 C6      11.6378  -0.9904   0.6727   C.ar      1 RES1   0.0000
    23 H6      11.8356  -0.7402  -0.2225   H         1 RES1   0.0000
    24 C7      12.1399  -2.1772   1.1689   C.ar      1 RES1   0.0000
    25 H7      12.6706  -2.7308   0.6075   H         1 RES1   0.0000
    26 C8      11.8854  -2.5753   2.4670   C.ar      1 RES1   0.0000
    27 H8      12.2348  -3.3877   2.8123   H         1 RES1   0.0000
    28 C9       8.5610   3.2097   8.4216   C.3       1 RES1   0.0000
    29 H9       7.8450   2.5556   8.5648   H         1 RES1   0.0000
    30 H10      8.2027   4.1157   8.5277   H         1 RES1   0.0000
    31 H11      9.2740   3.0627   9.0776   H         1 RES1   0.0000
    32 C10      8.5603   2.2260   6.1362   C.2       1 RES1   0.0000
    33 C11     10.2325   3.6636   6.5697   C.ar      1 RES1   0.0000
    34 C12     10.4143   3.1354   5.2831   C.ar      1 RES1   0.0000
    35 C13     11.5010   3.5227   4.5107   C.ar      1 RES1   0.0000
    36 H12     11.6505   3.1539   3.6474   H         1 RES1   0.0000
    37 C14     12.3654   4.4796   5.0542   C.ar      1 RES1   0.0000
    38 H13     13.1233   4.7556   4.5542   H         1 RES1   0.0000
    39 C15     12.1427   5.0334   6.3063   C.ar      1 RES1   0.0000
    40 H14     12.7313   5.7056   6.6273   H         1 RES1   0.0000
    41 C16     11.0782   4.6267   7.1030   C.ar      1 RES1   0.0000
    42 H15     10.9357   4.9899   7.9688   H         1 RES1   0.0000
    43 C17      4.2811   0.1870   3.4313   C.3       1 RES1   0.0000
    44 H16      4.4684  -0.6527   3.9007   H         1 RES1   0.0000
    45 H17      3.8525  -0.0079   2.5706   H         1 RES1   0.0000
    46 H18      3.6820   0.7397   3.9761   H         1 RES1   0.0000
    47 C18      6.7522   0.4846   3.6705   C.2       1 RES1   0.0000
    48 C19      5.6702   2.1456   2.6038   C.ar      1 RES1   0.0000
    49 C20      7.0321   2.4795   2.7023   C.ar      1 RES1   0.0000
    50 C21      7.4960   3.6917   2.2304   C.ar      1 RES1   0.0000
    51 H19      8.4136   3.9280   2.3020   H         1 RES1   0.0000
    52 C22      6.5774   4.5569   1.6459   C.ar      1 RES1   0.0000
    53 H20      6.8727   5.3965   1.3160   H         1 RES1   0.0000
    54 C23      5.2511   4.2171   1.5385   C.ar      1 RES1   0.0000
    55 H21      4.6498   4.8316   1.1344   H         1 RES1   0.0000
    56 C24      4.7591   2.9954   2.0066   C.ar      1 RES1   0.0000
    57 H22      3.8429   2.7615   1.9171   H         1 RES1   0.0000
    58 B1A      5.3855  -2.4775   9.0828   B         1 RES1   0.0000
    59 H1A      4.9299  -3.0040   9.8987   H         1 RES1   0.0000
    60 O1A      5.2116  -0.4254   6.7926   O.2       1 RES1   0.0000
    61 O2A      7.0734  -2.5936   6.5105   O.2       1 RES1   0.0000
    62 O3A      7.6318  -0.4372   8.4824   O.2       1 RES1   0.0000
    63 N1A      4.7328  -1.0734   9.0099   N.am      1 RES1   0.0000
    64 N2A      3.9209   0.8431   8.2310   N.am      1 RES1   0.0000
    65 N3A      5.2046  -3.2574   7.7668   N.am      1 RES1   0.0000
    66 N4A      5.4699  -4.0639   5.7065   N.am      1 RES1   0.0000
    67 N5A      6.8758  -2.4249   9.4703   N.am      1 RES1   0.0000
    68 N6A      9.0399  -1.9118   9.5879   N.am      1 RES1   0.0000
    69 C1A      3.6846   1.9334   7.3051   C.3       1 RES1   0.0000
    70 H2A      4.3121   1.8666   6.5557   H         1 RES1   0.0000
    71 H3A      2.7659   1.8822   6.9687   H         1 RES1   0.0000
    72 H4A      3.8172   2.7872   7.7668   H         1 RES1   0.0000
    73 C2A      4.6850  -0.2519   7.9113   C.2       1 RES1   0.0000
    74 C3A      3.4746   0.7255   9.5406   C.ar      1 RES1   0.0000
    75 C4A      3.9841  -0.4759  10.0279   C.ar      1 RES1   0.0000
    76 C5A      3.7230  -0.8580  11.3311   C.ar      1 RES1   0.0000
    77 H5A      4.0721  -1.6686  11.6815   H         1 RES1   0.0000
    78 C6A      2.9290  -0.0187  12.1163   C.ar      1 RES1   0.0000
    79 H6A      2.7312  -0.2689  13.0116   H         1 RES1   0.0000
    80 C7A      2.4269   1.1681  11.6201   C.ar      1 RES1   0.0000
    81 H7A      1.8962   1.7216  12.1815   H         1 RES1   0.0000
    82 C8A      2.6814   1.5661  10.3220   C.ar      1 RES1   0.0000
    83 H8A      2.3320   2.3785   9.9767   H         1 RES1   0.0000
    84 C9A      6.0058  -4.2189   4.3675   C.3       1 RES1   0.0000
    85 H9A      6.7219  -3.5648   4.2242   H         1 RES1   0.0000
    86 H10A     6.3641  -5.1249   4.2613   H         1 RES1   0.0000
    87 H11A     5.2929  -4.0718   3.7114   H         1 RES1   0.0000
    88 C10A     6.0065  -3.2352   6.6529   C.2       1 RES1   0.0000
    89 C11A     4.3344  -4.6727   6.2193   C.ar      1 RES1   0.0000
    90 C12A     4.1525  -4.1446   7.5059   C.ar      1 RES1   0.0000
    91 C13A     3.0659  -4.5318   8.2783   C.ar      1 RES1   0.0000
    92 H12A     2.9164  -4.1630   9.1416   H         1 RES1   0.0000
    93 C14A     2.2015  -5.4887   7.7348   C.ar      1 RES1   0.0000
    94 H13A     1.4436  -5.7647   8.2349   H         1 RES1   0.0000
    95 C15A     2.4241  -6.0426   6.4828   C.ar      1 RES1   0.0000
    96 H14A     1.8356  -6.7148   6.1618   H         1 RES1   0.0000
    97 C16A     3.4887  -5.6359   5.6860   C.ar      1 RES1   0.0000
    98 H15A     3.6311  -5.9990   4.8202   H         1 RES1   0.0000
    99 C17A    10.2857  -1.1961   9.3577   C.3       1 RES1   0.0000
   100 H16A    10.0985  -0.3564   8.8884   H         1 RES1   0.0000
   101 H17A    10.7144  -1.0012  10.2184   H         1 RES1   0.0000
   102 H18A    10.8849  -1.7488   8.8129   H         1 RES1   0.0000
   103 C18A     7.8147  -1.4937   9.1186   C.2       1 RES1   0.0000
   104 C19A     8.8967  -3.1547  10.1852   C.ar      1 RES1   0.0000
   105 C20A     7.5348  -3.4886  10.0867   C.ar      1 RES1   0.0000
   106 C21A     7.0709  -4.7008  10.5586   C.ar      1 RES1   0.0000
   107 H19A     6.1532  -4.9372  10.4870   H         1 RES1   0.0000
   108 C22A     7.9894  -5.5660  11.1431   C.ar      1 RES1   0.0000
   109 H20A     7.6941  -6.4057  11.4730   H         1 RES1   0.0000
   110 C23A     9.3158  -5.2263  11.2505   C.ar      1 RES1   0.0000
   111 H21A     9.9170  -5.8407  11.6546   H         1 RES1   0.0000
   112 C24A     9.8077  -4.0045  10.7824   C.ar      1 RES1   0.0000
   113 H22A    10.7239  -3.7707  10.8719   H         1 RES1   0.0000
   114 C25      6.0094   2.0703  11.7186   C.3       2 RES2   0.0000
   115 H23      5.2558   1.4178  11.6329   H         2 RES2   0.0000
   116 Cl1      5.8364   3.2772  10.4599   Cl        2 RES2   0.0000
   117 Cl2      7.5123   1.1998  11.5366   Cl        2 RES2   0.0000
   118 Cl3      5.9361   2.7894  13.3164   Cl        2 RES2   0.0000
@<TRIPOS>BOND
     1     1     4    1
     2     2     3    1
     3     4    17    2
     4     5     1    1
     5     6     1    1
     6     7     2    1
     7     8    13    1
     8     9     2    1
     9    10    28    1
    10    11     2    1
    11    12    43    1
    12    13    14    1
    13    15    13    1
    14    16    13    1
    15    17     7   am
    16    18     8    1
    17    19     7    1
    18    20    19   ar
    19    21    20    1
    20    22    20   ar
    21    23    22    1
    22    24    22   ar
    23    25    24    1
    24    26    18   ar
    25    27    26    1
    26    28    29    1
    27    30    28    1
    28    31    28    1
    29    32     5    2
    30    33    10    1
    31    34     9    1
    32    35    34   ar
    33    36    35    1
    34    37    35   ar
    35    38    37    1
    36    39    37   ar
    37    40    39    1
    38    41    33   ar
    39    42    41    1
    40    43    44    1
    41    45    43    1
    42    46    43    1
    43    47     6    2
    44    48    12    1
    45    49    11    1
    46    50    49   ar
    47    51    50    1
    48    52    50   ar
    49    53    52    1
    50    54    52   ar
    51    55    54    1
    52    56    48   ar
    53    57    56    1
    54    58    59    1
    55    60     1    1
    56    61     1    1
    57    62     1    1
    58    63    58    1
    59    64    69    1
    60    65    58    1
    61    66    84    1
    62    67    58    1
    63    68    99    1
    64    69    70    1
    65    71    69    1
    66    72    69    1
    67    73    60    2
    68    74    64    1
    69    75    63    1
    70    76    75   ar
    71    77    76    1
    72    78    76   ar
    73    79    78    1
    74    80    78   ar
    75    81    80    1
    76    82    74   ar
    77    83    82    1
    78    84    85    1
    79    86    84    1
    80    87    84    1
    81    88    61    2
    82    89    66    1
    83    90    65    1
    84    91    90   ar
    85    92    91    1
    86    93    91   ar
    87    94    93    1
    88    95    93   ar
    89    96    95    1
    90    97    89   ar
    91    98    97    1
    92    99   100    1
    93   101    99    1
    94   102    99    1
    95   103    62    2
    96   104    68    1
    97   105    67    1
    98   106   105   ar
    99   107   106    1
   100   108   106   ar
   101   109   108    1
   102   110   108   ar
   103   111   110    1
   104   112   104   ar
   105   113   112    1
   106     8    17   am
   107     9    32   am
   108    10    32   am
   109    11    47   am
   110    12    47   am
   111    18    19   ar
   112    24    26   ar
   113    33    34   ar
   114    39    41   ar
   115    48    49   ar
   116    54    56   ar
   117    63    73   am
   118    64    73   am
   119    65    88   am
   120    66    88   am
   121    67   103   am
   122    68   103   am
   123    74    75   ar
   124    80    82   ar
   125    89    90   ar
   126    95    97   ar
   127   104   105   ar
   128   110   112   ar
   129   114   115    1
   130   116   114    1
   131   117   114    1
   132   118   114    1
@<TRIPOS>SUBSTRUCTURE
     1 RES1        1 GROUP             0 ****  ****    0  
     2 RES2      114 GROUP             0 ****  ****    0  
@<TRIPOS>CRYSIN
    9.7650   11.4960   13.6980   87.9060   69.4790   72.2770     2     1
