@<TRIPOS>MOLECULE
AQAKAE
   178   188     5     0     0
SMALL
USER_CHARGES
****
Generated from the CSD

@<TRIPOS>ATOM
     1 Fe1      1.2953   0.9507   5.9179   Fe        1 RES1   1.0000
     2 N1      -0.5972   0.3711   6.0167   N.2       1 RES1   0.0000
     3 N2       1.2774   0.7833   3.9601   N.2       1 RES1   0.0000
     4 N3       3.2299   1.3254   5.8353   N.2       1 RES1   0.0000
     5 N4       1.2871   1.2894   7.8494   N.2       1 RES1   0.0000
     6 N5       1.7935  -0.9446   6.1756   N.2       1 RES1   0.0000
     7 N6       2.5257  -2.9629   5.7771   N.pl3     1 RES1   0.0000
     8 N7       0.8326   2.8601   5.6879   N.2       1 RES1   0.0000
     9 N8       1.0405   5.0233   5.4268   N.pl3     1 RES1   0.0000
    10 C1      -1.2167  -0.0285   7.1876   C.2       1 RES1   0.0000
    11 C2      -2.1855  -1.0717   6.8792   C.2       1 RES1   0.0000
    12 C3      -2.1960  -1.2191   5.5370   C.2       1 RES1   0.0000
    13 C4      -1.2508  -0.2747   4.9846   C.2       1 RES1   0.0000
    14 C5      -1.0216   0.0650   3.6528   C.2       1 RES1   0.0000
    15 C6       0.1033   0.7861   3.2369   C.2       1 RES1   0.0000
    16 C7       0.2997   1.5097   1.9983   C.2       1 RES1   0.0000
    17 C8       1.6198   1.8585   1.9406   C.2       1 RES1   0.0000
    18 C9       2.2472   1.3272   3.1332   C.2       1 RES1   0.0000
    19 C10      3.6074   1.2268   3.4481   C.2       1 RES1   0.0000
    20 C11      4.0332   1.0078   4.7589   C.2       1 RES1   0.0000
    21 C12      5.3396   0.5866   5.2404   C.2       1 RES1   0.0000
    22 C13      5.3492   0.7718   6.5893   C.2       1 RES1   0.0000
    23 C14      4.0368   1.3130   6.9448   C.2       1 RES1   0.0000
    24 C15      3.6127   1.8678   8.1559   C.2       1 RES1   0.0000
    25 C16      2.2719   2.0417   8.4681   C.2       1 RES1   0.0000
    26 C17      1.6776   2.8183   9.5454   C.2       1 RES1   0.0000
    27 C18      0.3726   2.4139   9.6556   C.2       1 RES1   0.0000
    28 C19      0.1482   1.4293   8.6085   C.2       1 RES1   0.0000
    29 C20     -0.9798   0.6175   8.3986   C.2       1 RES1   0.0000
    30 C21     -2.8564  -2.0024   7.8633   C.3       1 RES1   0.0000
    31 H1      -3.5827  -2.4908   7.4014   H         1 RES1   0.0000
    32 H2      -3.2623  -1.4675   8.5889   H         1 RES1   0.0000
    33 C22     -1.8824  -3.0102   8.4695   C.3       1 RES1   0.0000
    34 H3      -2.3645  -3.6003   9.0848   H         1 RES1   0.0000
    35 H4      -1.1800  -2.5328   8.9576   H         1 RES1   0.0000
    36 H5      -1.4773  -3.5450   7.7544   H         1 RES1   0.0000
    37 C23     -2.8701  -2.3515   4.7707   C.3       1 RES1   0.0000
    38 H6      -3.5813  -2.7538   5.3310   H         1 RES1   0.0000
    39 H7      -3.2927  -1.9913   3.9507   H         1 RES1   0.0000
    40 C24     -1.8651  -3.4190   4.3915   C.3       1 RES1   0.0000
    41 H8      -2.3206  -4.1395   3.9074   H         1 RES1   0.0000
    42 H9      -1.4512  -3.7793   5.2024   H         1 RES1   0.0000
    43 H10     -1.1741  -3.0256   3.8181   H         1 RES1   0.0000
    44 C25     -1.9928  -0.3777   2.5966   C.ar      1 RES1   0.0000
    45 C26     -3.3084   0.0928   2.5809   C.ar      1 RES1   0.0000
    46 H11     -3.6154   0.6918   3.2513   H         1 RES1   0.0000
    47 C27     -4.1607  -0.3337   1.5706   C.ar      1 RES1   0.0000
    48 H12     -5.0558  -0.0155   1.5509   H         1 RES1   0.0000
    49 C28     -3.7370  -1.2001   0.6075   C.ar      1 RES1   0.0000
    50 H13     -4.3401  -1.4874  -0.0682   H         1 RES1   0.0000
    51 C29     -2.4467  -1.6554   0.6101   C.ar      1 RES1   0.0000
    52 H14     -2.1560  -2.2609  -0.0617   H         1 RES1   0.0000
    53 C30     -1.5637  -1.2332   1.5889   C.ar      1 RES1   0.0000
    54 H15     -0.6618  -1.5316   1.5719   H         1 RES1   0.0000
    55 C31     -0.7871   2.0169   1.1008   C.3       1 RES1   0.0000
    56 H16     -1.3620   1.2598   0.8227   H         1 RES1   0.0000
    57 H17     -0.3832   2.4090   0.2860   H         1 RES1   0.0000
    58 C32     -1.6419   3.0742   1.7989   C.3       1 RES1   0.0000
    59 H18     -2.3306   3.3969   1.1809   H         1 RES1   0.0000
    60 H19     -1.0748   3.8235   2.0770   H         1 RES1   0.0000
    61 H20     -2.0708   2.6786   2.5874   H         1 RES1   0.0000
    62 C33      2.2247   2.8245   0.9499   C.3       1 RES1   0.0000
    63 H21      1.6714   2.8444   0.1286   H         1 RES1   0.0000
    64 H22      3.1319   2.5173   0.7020   H         1 RES1   0.0000
    65 C34      2.3071   4.2346   1.5417   C.3       1 RES1   0.0000
    66 H23      2.7209   4.8379   0.8909   H         1 RES1   0.0000
    67 H24      2.8462   4.2147   2.3591   H         1 RES1   0.0000
    68 H25      1.4049   4.5528   1.7542   H         1 RES1   0.0000
    69 C35      4.6003   1.3946   2.3473   C.ar      1 RES1   0.0000
    70 C36      4.5738   0.5260   1.2412   C.ar      1 RES1   0.0000
    71 H26      3.9792  -0.2144   1.2307   H         1 RES1   0.0000
    72 C37      5.4228   0.7536   0.1601   C.ar      1 RES1   0.0000
    73 H27      5.4089   0.1702  -0.5878   H         1 RES1   0.0000
    74 C38      6.2789   1.8300   0.1811   C.ar      1 RES1   0.0000
    75 H28      6.8433   1.9935  -0.5655   H         1 RES1   0.0000
    76 C39      6.3289   2.6588   1.2583   C.ar      1 RES1   0.0000
    77 H29      6.9308   3.3925   1.2622   H         1 RES1   0.0000
    78 C40      5.5006   2.4400   2.3552   C.ar      1 RES1   0.0000
    79 H30      5.5565   3.0124   3.1122   H         1 RES1   0.0000
    80 C41      6.3959  -0.1125   4.4322   C.3       1 RES1   0.0000
    81 H31      7.2364  -0.1437   4.9544   H         1 RES1   0.0000
    82 H32      6.5692   0.4067   3.6069   H         1 RES1   0.0000
    83 C42      5.9871  -1.5360   4.0543   C.3       1 RES1   0.0000
    84 H33      6.7014  -1.9515   3.5282   H         1 RES1   0.0000
    85 H34      5.1633  -1.5095   3.5242   H         1 RES1   0.0000
    86 H35      5.8340  -2.0598   4.8691   H         1 RES1   0.0000
    87 C43      6.4088   0.2984   7.5510   C.3       1 RES1   0.0000
    88 H36      6.6114   1.0211   8.1965   H         1 RES1   0.0000
    89 H37      7.2385   0.0950   7.0498   H         1 RES1   0.0000
    90 C44      5.9571  -0.9481   8.3107   C.3       1 RES1   0.0000
    91 H38      6.6595  -1.2222   8.9379   H         1 RES1   0.0000
    92 H39      5.7859  -1.6753   7.6757   H         1 RES1   0.0000
    93 H40      5.1352  -0.7492   8.8080   H         1 RES1   0.0000
    94 C45      4.6377   2.3126   9.1531   C.ar      1 RES1   0.0000
    95 C46      5.5613   3.3032   8.8185   C.ar      1 RES1   0.0000
    96 H41      5.5707   3.6710   7.9433   H         1 RES1   0.0000
    97 C47      6.4674   3.7510   9.7737   C.ar      1 RES1   0.0000
    98 H42      7.0977   4.4268   9.5506   H         1 RES1   0.0000
    99 C48      6.4494   3.2093  11.0529   C.ar      1 RES1   0.0000
   100 H43      7.0631   3.5207  11.7077   H         1 RES1   0.0000
   101 C49      5.5480   2.2271  11.3744   C.ar      1 RES1   0.0000
   102 H44      5.5395   1.8587  12.2509   H         1 RES1   0.0000
   103 C50      4.6518   1.7714  10.4284   C.ar      1 RES1   0.0000
   104 H45      4.0399   1.0807  10.6541   H         1 RES1   0.0000
   105 C51      2.2764   4.0219  10.2263   C.3       1 RES1   0.0000
   106 H46      3.1976   3.8102  10.5229   H         1 RES1   0.0000
   107 H47      1.7404   4.2500  11.0280   H         1 RES1   0.0000
   108 C52      2.3065   5.2214   9.2711   C.3       1 RES1   0.0000
   109 H48      2.6693   6.0026   9.7395   H         1 RES1   0.0000
   110 H49      1.3976   5.4170   8.9641   H         1 RES1   0.0000
   111 H50      2.8734   5.0103   8.5009   H         1 RES1   0.0000
   112 C53     -0.6723   3.0236  10.5596   C.3       1 RES1   0.0000
   113 H51     -0.2234   3.5185  11.2904   H         1 RES1   0.0000
   114 H52     -1.2121   2.3007  10.9677   H         1 RES1   0.0000
   115 C54     -1.5881   3.9649   9.8091   C.3       1 RES1   0.0000
   116 H53     -2.2511   4.3362  10.4271   H         1 RES1   0.0000
   117 H54     -2.0447   3.4765   9.0940   H         1 RES1   0.0000
   118 H55     -1.0599   4.6943   9.4207   H         1 RES1   0.0000
   119 C55     -1.9181   0.3954   9.5454   C.ar      1 RES1   0.0000
   120 C56     -1.4675  -0.2354  10.6921   C.ar      1 RES1   0.0000
   121 H56     -0.5633  -0.5172  10.7551   H         1 RES1   0.0000
   122 C57     -2.3440  -0.4575  11.7549   C.ar      1 RES1   0.0000
   123 H57     -2.0317  -0.8885  12.5421   H         1 RES1   0.0000
   124 C58     -3.6431  -0.0619  11.6722   C.ar      1 RES1   0.0000
   125 H58     -4.2372  -0.2254  12.3952   H         1 RES1   0.0000
   126 C59     -4.0988   0.5879  10.5294   C.ar      1 RES1   0.0000
   127 H59     -5.0039   0.8730  10.4730   H         1 RES1   0.0000
   128 C60     -3.2395   0.8177   9.4837   C.ar      1 RES1   0.0000
   129 H60     -3.5522   1.2708   8.7096   H         1 RES1   0.0000
   130 C61      2.1983  -1.7873   5.2470   C.2       1 RES1   0.0000
   131 H61      2.2512  -1.5824   4.3207   H         1 RES1   0.0000
   132 C62      2.3192  -2.8908   7.1101   C.2       1 RES1   0.0000
   133 H62      2.4665  -3.5759   7.7518   H         1 RES1   0.0000
   134 C63      1.8660  -1.6527   7.3424   C.2       1 RES1   0.0000
   135 H63      1.6276  -1.3150   8.1979   H         1 RES1   0.0000
   136 C64      3.0319  -4.1484   5.0672   C.3       1 RES1   0.0000
   137 H64      3.0689  -3.9627   4.1068   H         1 RES1   0.0000
   138 H65      2.4327  -4.9064   5.2299   H         1 RES1   0.0000
   139 H66      3.9293  -4.3649   5.3939   H         1 RES1   0.0000
   140 C65      1.6841   3.8542   5.4766   C.2       1 RES1   0.0000
   141 H67      2.6226   3.7483   5.3743   H         1 RES1   0.0000
   142 C66     -0.2929   4.7694   5.6131   C.2       1 RES1   0.0000
   143 H68     -0.9963   5.4081   5.6327   H         1 RES1   0.0000
   144 C67     -0.4116   3.4334   5.7653   C.2       1 RES1   0.0000
   145 H69     -1.2270   2.9660   5.9043   H         1 RES1   0.0000
   146 C68      1.6563   6.3271   5.2168   C.3       1 RES1   0.0000
   147 H70      2.6195   6.2148   5.0699   H         1 RES1   0.0000
   148 H71      1.5113   6.8889   6.0067   H         1 RES1   0.0000
   149 H72      1.2544   6.7563   4.4322   H         1 RES1   0.0000
   150 Cl1      5.0203   4.9018   5.0920   Cl        2 RES2  -1.0000
   151 C69      5.4694   6.8447   2.2528   C.3       3 RES3   0.0000
   152 D1       5.5121   6.0910   2.9076   H         3 RES3   0.0000
   153 Cl2      6.8785   7.8839   2.4646   Cl        3 RES3   0.0000
   154 Cl3      5.4740   6.2049   0.6344   Cl        3 RES3   0.0000
   155 Cl4      4.0130   7.7709   2.5330   Cl        3 RES3   0.0000
   156 C70     -4.6650   3.9804   5.4648   C.3       4 RES4   0.0000
   157 D2      -5.6660   3.9561   5.4543   H         4 RES4   0.0000
   158 Cl5     -4.0975   4.6516   3.9727   Cl        4 RES4   0.0000
   159 Cl6     -4.1281   4.9749   6.8122   Cl        4 RES4   0.0000
   160 Cl7     -4.0499   2.3328   5.6888   Cl        4 RES4   0.0000
   161 C71      1.2347  -4.1837  -0.6600   C.3       5 RES5   0.0000
   162 H73      0.6969  -4.8467  -1.1638   H         5 RES5   0.0000
   163 H74      0.9766  -3.2820  -0.9749   H         5 RES5   0.0000
   164 C72      0.8974  -4.3119   0.9066   C.3       5 RES5   0.0000
   165 H75     -0.0709  -4.1859   1.0693   H         5 RES5   0.0000
   166 H76      1.1651  -5.2026   1.2517   H         5 RES5   0.0000
   167 C73      1.7135  -3.2002   1.5797   C.3       5 RES5   0.0000
   168 H77      1.4956  -3.2002   2.5467   H         5 RES5   0.0000
   169 H78      1.4149  -2.3317   1.2110   H         5 RES5   0.0000
   170 C74      3.3334  -3.2930   1.4223   C.3       5 RES5   0.0000
   171 H79      3.7302  -2.3869   1.3764   H         5 RES5   0.0000
   172 H80      3.7305  -3.7749   2.1899   H         5 RES5   0.0000
   173 C75      3.5659  -4.0069   0.2034   C.3       5 RES5   0.0000
   174 H81      3.9642  -4.8600   0.5104   H         5 RES5   0.0000
   175 H82      4.3101  -3.5074  -0.2165   H         5 RES5   0.0000
   176 C76      2.7290  -4.4158  -0.9539   C.3       5 RES5   0.0000
   177 H83      2.8811  -5.3728  -1.1494   H         5 RES5   0.0000
   178 H84      2.9924  -3.8942  -1.7516   H         5 RES5   0.0000
@<TRIPOS>BOND
     1     1     2    1
     2     2    10    1
     3     3     1    1
     4     4     1    1
     5     5     1    1
     6     6     1    1
     7     7   130    1
     8     8     1    1
     9     9   140    1
    10    10    11    1
    11    11    12    2
    12    12    13    1
    13    13     2    1
    14    14    13    2
    15    15     3    2
    16    16    15    1
    17    17    16    2
    18    18     3    1
    19    19    18    2
    20    20     4    1
    21    21    20    2
    22    22    21    1
    23    23     4    1
    24    24    23    1
    25    25     5    1
    26    26    25    1
    27    27    26    2
    28    28     5    2
    29    29    10    2
    30    30    11    1
    31    31    30    1
    32    32    30    1
    33    33    30    1
    34    34    33    1
    35    35    33    1
    36    36    33    1
    37    37    12    1
    38    38    37    1
    39    39    37    1
    40    40    37    1
    41    41    40    1
    42    42    40    1
    43    43    40    1
    44    44    14    1
    45    45    44   ar
    46    46    45    1
    47    47    45   ar
    48    48    47    1
    49    49    47   ar
    50    50    49    1
    51    51    49   ar
    52    52    51    1
    53    53    44   ar
    54    54    53    1
    55    55    16    1
    56    56    55    1
    57    57    55    1
    58    58    55    1
    59    59    58    1
    60    60    58    1
    61    61    58    1
    62    62    17    1
    63    63    62    1
    64    64    62    1
    65    65    62    1
    66    66    65    1
    67    67    65    1
    68    68    65    1
    69    69    19    1
    70    70    69   ar
    71    71    70    1
    72    72    70   ar
    73    73    72    1
    74    74    72   ar
    75    75    74    1
    76    76    74   ar
    77    77    76    1
    78    78    69   ar
    79    79    78    1
    80    80    21    1
    81    81    80    1
    82    82    80    1
    83    83    80    1
    84    84    83    1
    85    85    83    1
    86    86    83    1
    87    87    22    1
    88    88    87    1
    89    89    87    1
    90    90    87    1
    91    91    90    1
    92    92    90    1
    93    93    90    1
    94    94    24    1
    95    95    94   ar
    96    96    95    1
    97    97    95   ar
    98    98    97    1
    99    99    97   ar
   100   100    99    1
   101   101    99   ar
   102   102   101    1
   103   103    94   ar
   104   104   103    1
   105   105    26    1
   106   106   105    1
   107   107   105    1
   108   108   105    1
   109   109   108    1
   110   110   108    1
   111   111   108    1
   112   112    27    1
   113   113   112    1
   114   114   112    1
   115   115   112    1
   116   116   115    1
   117   117   115    1
   118   118   115    1
   119   119    29    1
   120   120   119   ar
   121   121   120    1
   122   122   120   ar
   123   123   122    1
   124   124   122   ar
   125   125   124    1
   126   126   124   ar
   127   127   126    1
   128   128   119   ar
   129   129   128    1
   130   130     6    2
   131   131   130    1
   132   132     7    1
   133   133   132    1
   134   134     6    1
   135   135   134    1
   136   136     7    1
   137   137   136    1
   138   138   136    1
   139   139   136    1
   140   140     8    2
   141   141   140    1
   142   142     9    1
   143   143   142    1
   144   144     8    1
   145   145   144    1
   146   146     9    1
   147   147   146    1
   148   148   146    1
   149   149   146    1
   150    14    15    1
   151    17    18    1
   152    19    20    1
   153    22    23    2
   154    24    25    2
   155    27    28    1
   156    28    29    1
   157    51    53   ar
   158    76    78   ar
   159   101   103   ar
   160   126   128   ar
   161   132   134    2
   162   142   144    2
   163   151   152    1
   164   153   151    1
   165   154   151    1
   166   155   151    1
   167   156   157    1
   168   158   156    1
   169   159   156    1
   170   160   156    1
   171   161   162    1
   172   163   161    1
   173   164   161    1
   174   165   164    1
   175   166   164    1
   176   167   164    1
   177   168   167    1
   178   169   167    1
   179   170   167    1
   180   171   170    1
   181   172   170    1
   182   173   170    1
   183   174   173    1
   184   175   173    1
   185   176   161    1
   186   177   176    1
   187   178   176    1
   188   173   176    1
@<TRIPOS>SUBSTRUCTURE
     1 RES1        1 GROUP             0 ****  ****    0  
     2 RES2      150 GROUP             0 ****  ****    0  
     3 RES3      151 GROUP             0 ****  ****    0  
     4 RES4      156 GROUP             0 ****  ****    0  
     5 RES5      161 GROUP             0 ****  ****    0  
@<TRIPOS>CRYSIN
   12.8602   22.1010   13.7910   90.0000  107.9360   90.0000     4     1
