@<TRIPOS>MOLECULE
AQALAF
   141   150     5     0     0
SMALL
USER_CHARGES
****
Generated from the CSD

@<TRIPOS>ATOM
     1 Fe1     14.1801  16.5941  10.2249   Fe        1 RES1   1.0000
     2 N1      13.7127  17.1004   8.3682   N.2       1 RES1   0.0000
     3 N2      13.8916  18.4534  10.8163   N.2       1 RES1   0.0000
     4 N3      14.4273  16.0113  12.1013   N.2       1 RES1   0.0000
     5 N4      14.7263  14.7965   9.5901   N.2       1 RES1   0.0000
     6 N5      12.2613  16.0078  10.3560   N.2       1 RES1   0.0000
     7 N6      10.0825  15.8481  10.5955   N.pl3     1 RES1   0.0000
     8 H1       9.2579  16.0391  10.8335   H         1 RES1   0.0000
     9 N7      16.0967  17.1347   9.9773   N.2       1 RES1   0.0000
    10 N8      18.2791  17.4040  10.0605   N.pl3     1 RES1   0.0000
    11 H2      19.1178  17.3202  10.3172   H         1 RES1   0.0000
    12 C1      13.5454  16.2002   7.3127   C.2       1 RES1   0.0000
    13 C2      12.5809  16.7386   6.3633   C.2       1 RES1   0.0000
    14 C3      12.2448  17.9828   6.8065   C.2       1 RES1   0.0000
    15 C4      12.9979  18.2363   8.0197   C.2       1 RES1   0.0000
    16 C5      13.1299  19.4598   8.7053   C.2       1 RES1   0.0000
    17 C6      13.7456  19.5504   9.9702   C.2       1 RES1   0.0000
    18 C7      14.1974  20.7376  10.6256   C.2       1 RES1   0.0000
    19 C8      14.5615  20.3850  11.8819   C.2       1 RES1   0.0000
    20 C9      14.2843  18.9672  12.0124   C.2       1 RES1   0.0000
    21 C10     14.3118  18.2031  13.2128   C.2       1 RES1   0.0000
    22 C11     14.1956  16.7938  13.2113   C.2       1 RES1   0.0000
    23 C12     13.9475  15.9347  14.3558   C.2       1 RES1   0.0000
    24 C13     14.1093  14.6607  13.9370   C.2       1 RES1   0.0000
    25 C14     14.4676  14.6928  12.5215   C.2       1 RES1   0.0000
    26 C15     14.9689  13.6588  11.7327   C.2       1 RES1   0.0000
    27 C16     15.2698  13.8007  10.3789   C.2       1 RES1   0.0000
    28 C17     16.0813  12.9500   9.5500   C.2       1 RES1   0.0000
    29 C18     15.9459  13.3586   8.2535   C.2       1 RES1   0.0000
    30 C19     15.0250  14.4817   8.2750   C.2       1 RES1   0.0000
    31 C20     14.3323  15.0277   7.1951   C.2       1 RES1   0.0000
    32 C21     11.9617  16.0012   5.2088   C.3       1 RES1   0.0000
    33 H3      11.3484  16.5970   4.7312   H         1 RES1   0.0000
    34 H4      11.4678  15.2223   5.5430   H         1 RES1   0.0000
    35 H5      12.6667  15.6999   4.5964   H         1 RES1   0.0000
    36 C22     11.1925  18.8772   6.1554   C.3       1 RES1   0.0000
    37 H6      10.4979  18.3203   5.7481   H         1 RES1   0.0000
    38 H7      11.6157  19.4294   5.4641   H         1 RES1   0.0000
    39 H8      10.7906  19.4574   6.8351   H         1 RES1   0.0000
    40 C23     12.6636  20.7051   8.0226   C.ar      1 RES1   0.0000
    41 C24     13.3320  21.1916   6.9083   C.ar      1 RES1   0.0000
    42 H9      14.0824  20.7216   6.5626   H         1 RES1   0.0000
    43 C25     12.9034  22.3680   6.2945   C.ar      1 RES1   0.0000
    44 H10     13.3607  22.7036   5.5329   H         1 RES1   0.0000
    45 C26     11.8180  23.0350   6.7978   C.ar      1 RES1   0.0000
    46 H11     11.5219  23.8340   6.3776   H         1 RES1   0.0000
    47 C27     11.1500  22.5615   7.9007   C.ar      1 RES1   0.0000
    48 H12     10.3922  23.0271   8.2334   H         1 RES1   0.0000
    49 C28     11.5845  21.4043   8.5303   C.ar      1 RES1   0.0000
    50 H13     11.1411  21.0908   9.3105   H         1 RES1   0.0000
    51 C29     14.3820  22.1083  10.0361   C.3       1 RES1   0.0000
    52 H14     15.0637  22.5947  10.5453   H         1 RES1   0.0000
    53 H15     13.5344  22.5969  10.0749   H         1 RES1   0.0000
    54 H16     14.6690  22.0252   9.1025   H         1 RES1   0.0000
    55 C30     15.2023  21.3161  12.8887   C.3       1 RES1   0.0000
    56 H17     15.6475  22.0515  12.4183   H         1 RES1   0.0000
    57 H18     15.8621  20.8209  13.4179   H         1 RES1   0.0000
    58 H19     14.5134  21.6793  13.4838   H         1 RES1   0.0000
    59 C31     14.4028  18.9230  14.5193   C.ar      1 RES1   0.0000
    60 C32     13.3742  19.7782  14.9366   C.ar      1 RES1   0.0000
    61 H20     12.6010  19.8866  14.3960   H         1 RES1   0.0000
    62 C33     13.4792  20.4724  16.1427   C.ar      1 RES1   0.0000
    63 H21     12.7777  21.0442  16.4324   H         1 RES1   0.0000
    64 C34     14.6130  20.3160  16.9086   C.ar      1 RES1   0.0000
    65 H22     14.6958  20.8005  17.7217   H         1 RES1   0.0000
    66 C35     15.6257  19.4752  16.5199   C.ar      1 RES1   0.0000
    67 H23     16.3937  19.3692  17.0692   H         1 RES1   0.0000
    68 C36     15.5260  18.7782  15.3210   C.ar      1 RES1   0.0000
    69 H24     16.2297  18.2012  15.0499   H         1 RES1   0.0000
    70 C37     13.4935  16.3401  15.7340   C.3       1 RES1   0.0000
    71 H25     13.0680  15.5766  16.1757   H         1 RES1   0.0000
    72 H26     12.8520  17.0778  15.6637   H         1 RES1   0.0000
    73 H27     14.2679  16.6312  16.2603   H         1 RES1   0.0000
    74 C38     13.8652  13.4385  14.8047   C.3       1 RES1   0.0000
    75 H28     13.1934  13.6498  15.4859   H         1 RES1   0.0000
    76 H29     14.7019  13.1753  15.2407   H         1 RES1   0.0000
    77 H30     13.5427  12.7008  14.2454   H         1 RES1   0.0000
    78 C39     15.2369  12.3340  12.3666   C.ar      1 RES1   0.0000
    79 C40     16.2583  12.1459  13.2902   C.ar      1 RES1   0.0000
    80 H31     16.8091  12.8799  13.5398   H         1 RES1   0.0000
    81 C41     16.4795  10.9104  13.8438   C.ar      1 RES1   0.0000
    82 H32     17.1831  10.7999  14.4734   H         1 RES1   0.0000
    83 C42     15.6955   9.8260  13.5025   C.ar      1 RES1   0.0000
    84 H33     15.8520   8.9742  13.8897   H         1 RES1   0.0000
    85 C43     14.6835  10.0056  12.5904   C.ar      1 RES1   0.0000
    86 H34     14.1258   9.2727  12.3566   H         1 RES1   0.0000
    87 C44     14.4673  11.2562  12.0067   C.ar      1 RES1   0.0000
    88 H35     13.7822  11.3600  11.3556   H         1 RES1   0.0000
    89 C45     17.0025  11.8385   9.9860   C.3       1 RES1   0.0000
    90 H36     17.6959  11.7037   9.3062   H         1 RES1   0.0000
    91 H37     16.4886  11.0115  10.0964   H         1 RES1   0.0000
    92 H38     17.4232  12.0770  10.8378   H         1 RES1   0.0000
    93 C46     16.7084  12.8324   7.0703   C.3       1 RES1   0.0000
    94 H39     17.5549  12.4452   7.3729   H         1 RES1   0.0000
    95 H40     16.8883  13.5659   6.4450   H         1 RES1   0.0000
    96 H41     16.1761  12.1433   6.6186   H         1 RES1   0.0000
    97 C47     14.3796  14.3240   5.8843   C.ar      1 RES1   0.0000
    98 C48     13.7138  13.1223   5.7423   C.ar      1 RES1   0.0000
    99 H42     13.2579  12.7486   6.4866   H         1 RES1   0.0000
   100 C49     13.7030  12.4478   4.5161   C.ar      1 RES1   0.0000
   101 H43     13.2271  11.6316   4.4229   H         1 RES1   0.0000
   102 C50     14.3876  12.9784   3.4491   C.ar      1 RES1   0.0000
   103 H44     14.3986  12.5108   2.6231   H         1 RES1   0.0000
   104 C51     15.0598  14.1805   3.5581   C.ar      1 RES1   0.0000
   105 H45     15.5235  14.5385   2.8095   H         1 RES1   0.0000
   106 C52     15.0547  14.8702   4.7814   C.ar      1 RES1   0.0000
   107 H46     15.5076  15.7009   4.8632   H         1 RES1   0.0000
   108 C53     17.2123  16.8143  10.6385   C.2       1 RES1   0.0000
   109 C54     17.8370  18.1513   9.0136   C.2       1 RES1   0.0000
   110 H47     18.3600  18.6857   8.4270   H         1 RES1   0.0000
   111 C55     16.5263  17.9794   8.9821   C.2       1 RES1   0.0000
   112 H48     15.9508  18.3894   8.3482   H         1 RES1   0.0000
   113 C56     17.4062  16.0153  11.8589   C.3       1 RES1   0.0000
   114 H49     17.1009  15.0981  11.6998   H         1 RES1   0.0000
   115 H50     16.8908  16.4081  12.5932   H         1 RES1   0.0000
   116 H51     18.3577  16.0051  12.0941   H         1 RES1   0.0000
   117 C57     11.1674  16.6071  10.8436   C.2       1 RES1   0.0000
   118 C58     10.4752  14.7347   9.9157   C.2       1 RES1   0.0000
   119 H52      9.9158  14.0330   9.6002   H         1 RES1   0.0000
   120 C59     11.8026  14.8215   9.7794   C.2       1 RES1   0.0000
   121 H53     12.3517  14.1735   9.3549   H         1 RES1   0.0000
   122 C60     11.0274  17.8819  11.6123   C.3       1 RES1   0.0000
   123 H54     11.5986  17.8475  12.4068   H         1 RES1   0.0000
   124 H55     10.0936  17.9983  11.8862   H         1 RES1   0.0000
   125 H56     11.2978  18.6351  11.0472   H         1 RES1   0.0000
   126 Cl1     20.9731  16.5092  11.4096   Cl        2 RES2  -1.0000
   127 Cl2     19.7976  12.3701  13.3103   Cl        3 RES3   0.0000
   128 Cl3     21.4673  12.2691  11.0013   Cl        3 RES3   0.0000
   129 C61     21.0358  13.1229  12.4900   C.3       3 RES3   0.0000
   130 D1      21.8314  13.1732  13.0765   H         3 RES3   0.0000
   131 D2      20.7629  14.0471  12.2662   H         3 RES3   0.0000
   132 Cl4     10.2572  11.0246   8.6422   Cl        4 RES4   0.0000
   133 Cl5     13.0984  10.7558   8.6508   Cl        4 RES4   0.0000
   134 C62     11.5709  10.4475   9.5428   C.3       4 RES4   0.0000
   135 D3      11.4664   9.4752   9.7006   H         4 RES4   0.0000
   136 D4      11.5989  10.9013  10.4219   H         4 RES4   0.0000
   137 Cl6     18.6031  19.3300  13.5140   Cl        5 RES5   0.0000
   138 Cl7     20.9250  20.9405  12.9991   Cl        5 RES5   0.0000
   139 C63     19.8782  19.7046  12.4369   C.3       5 RES5   0.0000
   140 D5      19.4903  19.9852  11.5707   H         5 RES5   0.0000
   141 D6      20.4109  18.8852  12.2763   H         5 RES5   0.0000
@<TRIPOS>BOND
     1     1     2    1
     2     2    12    1
     3     3     1    1
     4     4     1    1
     5     5     1    1
     6     6     1    1
     7     7     8    1
     8     9     1    1
     9    10    11    1
    10    12    13    1
    11    13    14    2
    12    14    15    1
    13    15     2    1
    14    16    15    2
    15    17     3    2
    16    18    17    1
    17    19    18    2
    18    20     3    1
    19    21    20    2
    20    22     4    1
    21    23    22    2
    22    24    23    1
    23    25     4    1
    24    26    25    1
    25    27     5    1
    26    28    27    1
    27    29    28    2
    28    30     5    2
    29    31    12    2
    30    32    13    1
    31    33    32    1
    32    34    32    1
    33    35    32    1
    34    36    14    1
    35    37    36    1
    36    38    36    1
    37    39    36    1
    38    40    16    1
    39    41    40   ar
    40    42    41    1
    41    43    41   ar
    42    44    43    1
    43    45    43   ar
    44    46    45    1
    45    47    45   ar
    46    48    47    1
    47    49    40   ar
    48    50    49    1
    49    51    18    1
    50    52    51    1
    51    53    51    1
    52    54    51    1
    53    55    19    1
    54    56    55    1
    55    57    55    1
    56    58    55    1
    57    59    21    1
    58    60    59   ar
    59    61    60    1
    60    62    60   ar
    61    63    62    1
    62    64    62   ar
    63    65    64    1
    64    66    64   ar
    65    67    66    1
    66    68    59   ar
    67    69    68    1
    68    70    23    1
    69    71    70    1
    70    72    70    1
    71    73    70    1
    72    74    24    1
    73    75    74    1
    74    76    74    1
    75    77    74    1
    76    78    26    1
    77    79    78   ar
    78    80    79    1
    79    81    79   ar
    80    82    81    1
    81    83    81   ar
    82    84    83    1
    83    85    83   ar
    84    86    85    1
    85    87    78   ar
    86    88    87    1
    87    89    28    1
    88    90    89    1
    89    91    89    1
    90    92    89    1
    91    93    29    1
    92    94    93    1
    93    95    93    1
    94    96    93    1
    95    97    31    1
    96    98    97   ar
    97    99    98    1
    98   100    98   ar
    99   101   100    1
   100   102   100   ar
   101   103   102    1
   102   104   102   ar
   103   105   104    1
   104   106    97   ar
   105   107   106    1
   106   108     9    2
   107   109    10    1
   108   110   109    1
   109   111     9    1
   110   112   111    1
   111   113   108    1
   112   114   113    1
   113   115   113    1
   114   116   113    1
   115   117     6    2
   116   118     7    1
   117   119   118    1
   118   120     6    1
   119   121   120    1
   120   122   117    1
   121   123   122    1
   122   124   122    1
   123   125   122    1
   124     7   117    1
   125    10   108    1
   126    16    17    1
   127    19    20    1
   128    21    22    1
   129    24    25    2
   130    26    27    2
   131    29    30    1
   132    30    31    1
   133    47    49   ar
   134    66    68   ar
   135    85    87   ar
   136   104   106   ar
   137   109   111    2
   138   118   120    2
   139   127   129    1
   140   128   129    1
   141   129   130    1
   142   131   129    1
   143   132   134    1
   144   133   134    1
   145   134   135    1
   146   136   134    1
   147   137   139    1
   148   138   139    1
   149   139   140    1
   150   141   139    1
@<TRIPOS>SUBSTRUCTURE
     1 RES1        1 GROUP             0 ****  ****    0  
     2 RES2      126 GROUP             0 ****  ****    0  
     3 RES3      127 GROUP             0 ****  ****    0  
     4 RES4      132 GROUP             0 ****  ****    0  
     5 RES5      137 GROUP             0 ****  ****    0  
@<TRIPOS>CRYSIN
   13.8000   15.1510   16.5660   66.5130   71.8410   88.7190     2     1
