@<TRIPOS>MOLECULE
AQIYAA
   117   120     4     0     0
SMALL
USER_CHARGES
****
Generated from the CSD

@<TRIPOS>ATOM
     1 Fe1      7.0926  -0.6355   2.9245   Fe        1 RES1   0.0000
     2 S1       6.7078  -2.6795   3.9339   S.3       1 RES1  -1.0000
     3 S2       5.5638  -1.7181   1.5713   S.3       1 RES1  -1.0000
     4 S3       4.5669  -4.3606   2.6170   S.2       1 RES1   0.0000
     5 C1       8.4762  -1.4139   2.0834   C.1       1 RES1   0.0000
     6 C2       7.2312   0.8725   1.9974   C.1       1 RES1   0.0000
     7 C3       8.2867   0.0092   4.3190   C.1       1 RES1   0.0000
     8 C4       5.6335   0.0982   4.0071   C.1       1 RES1   0.0000
     9 C5       5.5572  -3.0189   2.6949   C.2       1 RES1   0.0000
    10 O1       9.3646  -1.9398   1.5918   O.2       1 RES1   0.0000
    11 O2       7.3442   1.8638   1.4350   O.2       1 RES1   0.0000
    12 N1       8.9115   0.4877   5.0795   N.1       1 RES1   0.0000
    13 N2       4.7028   0.4709   4.5786   N.1       1 RES1   0.0000
    14 P1      -1.2239   3.8909   4.3442   P.3       2 RES2   0.0000
    15 P2      -2.9852   5.9397   5.4925   P.3       2 RES2   0.0000
    16 N3      -1.9334   5.3042   4.4931   N.1       2 RES2   1.0000
    17 C6       0.5466   4.1398   4.1197   C.ar      2 RES2   0.0000
    18 C7       1.0212   5.3950   3.7520   C.ar      2 RES2   0.0000
    19 H1       0.4249   6.1310   3.6813   H         2 RES2   0.0000
    20 C8       2.3741   5.5588   3.4893   C.ar      2 RES2   0.0000
    21 H2       2.7064   6.4153   3.2435   H         2 RES2   0.0000
    22 C9       3.2468   4.4853   3.5799   C.ar      2 RES2   0.0000
    23 H3       4.1702   4.6060   3.3925   H         2 RES2   0.0000
    24 C10      2.7790   3.2437   3.9441   C.ar      2 RES2   0.0000
    25 H4       3.3760   2.5085   4.0071   H         2 RES2   0.0000
    26 C11      1.4271   3.0680   4.2206   C.ar      2 RES2   0.0000
    27 H5       1.1041   2.2124   4.4803   H         2 RES2   0.0000
    28 C12     -1.4421   2.7449   5.7110   C.ar      2 RES2   0.0000
    29 C13     -0.6446   2.8625   6.8511   C.ar      2 RES2   0.0000
    30 H6       0.0375   3.5212   6.8879   H         2 RES2   0.0000
    31 C14     -0.8522   2.0157   7.9281   C.ar      2 RES2   0.0000
    32 H7      -0.3077   2.0917   8.7025   H         2 RES2   0.0000
    33 C15     -1.8529   1.0571   7.8789   C.ar      2 RES2   0.0000
    34 H8      -1.9888   0.4772   8.6195   H         2 RES2   0.0000
    35 C16     -2.6485   0.9407   6.7635   C.ar      2 RES2   0.0000
    36 H9      -3.3321   0.2805   6.7358   H         2 RES2   0.0000
    37 C17     -2.4576   1.7836   5.6803   C.ar      2 RES2   0.0000
    38 H10     -3.0161   1.7080   4.9167   H         2 RES2   0.0000
    39 C18     -1.8090   3.0606   2.8584   C.ar      2 RES2   0.0000
    40 C19     -1.5140   1.7035   2.6296   C.ar      2 RES2   0.0000
    41 H11     -1.0310   1.2055   3.2788   H         2 RES2   0.0000
    42 C20     -1.9274   1.0965   1.4627   C.ar      2 RES2   0.0000
    43 H12     -1.7408   0.1772   1.3137   H         2 RES2   0.0000
    44 C21     -2.6157   1.8305   0.5086   C.ar      2 RES2   0.0000
    45 H13     -2.8960   1.4081  -0.2950   H         2 RES2   0.0000
    46 C22     -2.8963   3.1677   0.7098   C.ar      2 RES2   0.0000
    47 H14     -3.3566   3.6653   0.0430   H         2 RES2   0.0000
    48 C23     -2.5029   3.7843   1.8991   C.ar      2 RES2   0.0000
    49 H15     -2.7094   4.6995   2.0512   H         2 RES2   0.0000
    50 C24     -4.0920   4.7525   6.2810   C.ar      2 RES2   0.0000
    51 C25     -5.0910   4.1612   5.5067   C.ar      2 RES2   0.0000
    52 H16     -5.2148   4.4346   4.6048   H         2 RES2   0.0000
    53 C26     -5.9034   3.1767   6.0490   C.ar      2 RES2   0.0000
    54 H17     -6.5952   2.7870   5.5282   H         2 RES2   0.0000
    55 C27     -5.6995   2.7673   7.3519   C.ar      2 RES2   0.0000
    56 H18     -6.2518   2.0878   7.7222   H         2 RES2   0.0000
    57 C28     -4.7014   3.3342   8.1248   C.ar      2 RES2   0.0000
    58 H19     -4.5660   3.0382   9.0175   H         2 RES2   0.0000
    59 C29     -3.8988   4.3365   7.5947   C.ar      2 RES2   0.0000
    60 H20     -3.2210   4.7365   8.1263   H         2 RES2   0.0000
    61 C30     -4.0013   7.1040   4.5588   C.ar      2 RES2   0.0000
    62 C31     -5.3378   7.3260   4.8752   C.ar      2 RES2   0.0000
    63 H21     -5.7436   6.8399   5.5835   H         2 RES2   0.0000
    64 C32     -6.0782   8.2540   4.1607   C.ar      2 RES2   0.0000
    65 H22     -6.9888   8.4057   4.3835   H         2 RES2   0.0000
    66 C33     -5.4929   8.9633   3.1221   C.ar      2 RES2   0.0000
    67 H23     -6.0044   9.5918   2.6273   H         2 RES2   0.0000
    68 C34     -4.1629   8.7506   2.8086   C.ar      2 RES2   0.0000
    69 H24     -3.7604   9.2432   2.1034   H         2 RES2   0.0000
    70 C35     -3.4118   7.8211   3.5185   C.ar      2 RES2   0.0000
    71 H25     -2.4995   7.6754   3.2957   H         2 RES2   0.0000
    72 C36     -2.1534   6.8749   6.7871   C.ar      2 RES2   0.0000
    73 C37     -2.8914   7.5073   7.7883   C.ar      2 RES2   0.0000
    74 H26     -3.8384   7.4280   7.8037   H         2 RES2   0.0000
    75 C38     -2.2386   8.2507   8.7563   C.ar      2 RES2   0.0000
    76 H27     -2.7408   8.6803   9.4400   H         2 RES2   0.0000
    77 C39     -0.8621   8.3716   8.7378   C.ar      2 RES2   0.0000
    78 H28     -0.4207   8.8790   9.4093   H         2 RES2   0.0000
    79 C40     -0.1261   7.7568   7.7437   C.ar      2 RES2   0.0000
    80 H29      0.8192   7.8468   7.7314   H         2 RES2   0.0000
    81 C41     -0.7643   7.0044   6.7604   C.ar      2 RES2   0.0000
    82 H30     -0.2570   6.5828   6.0767   H         2 RES2   0.0000
    83 N4       4.6621   3.4996   8.0080   N.4       3 RES3   1.0000
    84 C42      3.6085   4.4541   7.4626   C.3       3 RES3   0.0000
    85 H31      4.0558   5.2974   7.1998   H         3 RES3   0.0000
    86 H32      3.2202   4.0568   6.6436   H         3 RES3   0.0000
    87 C43      2.4765   4.7891   8.4152   C.3       3 RES3   0.0000
    88 H33      1.8536   5.4084   7.9773   H         3 RES3   0.0000
    89 H34      2.8422   5.2097   9.2203   H         3 RES3   0.0000
    90 H35      2.0016   3.9672   8.6610   H         3 RES3   0.0000
    91 C44      4.0349   2.2485   8.5703   C.3       3 RES3   0.0000
    92 H36      3.5124   2.4987   9.3739   H         3 RES3   0.0000
    93 H37      4.7606   1.6437   8.8669   H         3 RES3   0.0000
    94 C45      3.1295   1.4763   7.6408   C.3       3 RES3   0.0000
    95 H38      2.7757   0.6894   8.1063   H         3 RES3   0.0000
    96 H39      3.6381   1.1900   6.8541   H         3 RES3   0.0000
    97 H40      2.3865   2.0508   7.3581   H         3 RES3   0.0000
    98 C46      5.5893   3.1726   6.8372   C.3       3 RES3   0.0000
    99 H41      5.0749   2.6565   6.1658   H         3 RES3   0.0000
   100 H42      5.8673   4.0217   6.4116   H         3 RES3   0.0000
   101 C47      6.8332   2.3877   7.1983   C.3       3 RES3   0.0000
   102 H43      7.3606   2.2183   6.3886   H         3 RES3   0.0000
   103 H44      6.5741   1.5327   7.6039   H         3 RES3   0.0000
   104 H45      7.3721   2.9019   7.8359   H         3 RES3   0.0000
   105 C48      5.4123   4.1386   9.1434   C.3       3 RES3   0.0000
   106 H46      6.0878   3.4959   9.4753   H         3 RES3   0.0000
   107 H47      4.7763   4.3119   9.8825   H         3 RES3   0.0000
   108 C49      6.1158   5.4376   8.8039   C.3       3 RES3   0.0000
   109 H48      6.5727   5.7804   9.5998   H         3 RES3   0.0000
   110 H49      5.4564   6.0959   8.4981   H         3 RES3   0.0000
   111 H50      6.7712   5.2779   8.0940   H         3 RES3   0.0000
   112 N5       0.1058   8.7426   3.5538   N.1       4 RES4   0.0000
   113 C50      0.5974   9.5256   4.1930   C.1       4 RES4   0.0000
   114 C51      1.2013  10.5578   5.0058   C.3       4 RES4   0.0000
   115 H51      2.1031  10.7486   4.6739   H         4 RES4   0.0000
   116 H52      1.2524  10.2520   5.9353   H         4 RES4   0.0000
   117 H53      0.6550  11.3699   4.9597   H         4 RES4   0.0000
@<TRIPOS>BOND
     1     1     2    1
     2     2     9    1
     3     3     1    1
     4     4     9    2
     5     5     1    1
     6     6     1    1
     7     7     1    1
     8     8     1    1
     9     9     3    1
    10    10     5    3
    11    11     6    3
    12    12     7    3
    13    13     8    3
    14    14    16    2
    15    15    16    2
    16    17    14    1
    17    18    17   ar
    18    19    18    1
    19    20    18   ar
    20    21    20    1
    21    22    20   ar
    22    23    22    1
    23    24    22   ar
    24    25    24    1
    25    26    17   ar
    26    27    26    1
    27    28    14    1
    28    29    28   ar
    29    30    29    1
    30    31    29   ar
    31    32    31    1
    32    33    31   ar
    33    34    33    1
    34    35    33   ar
    35    36    35    1
    36    37    28   ar
    37    38    37    1
    38    39    14    1
    39    40    39   ar
    40    41    40    1
    41    42    40   ar
    42    43    42    1
    43    44    42   ar
    44    45    44    1
    45    46    44   ar
    46    47    46    1
    47    48    39   ar
    48    49    48    1
    49    50    15    1
    50    51    50   ar
    51    52    51    1
    52    53    51   ar
    53    54    53    1
    54    55    53   ar
    55    56    55    1
    56    57    55   ar
    57    58    57    1
    58    59    50   ar
    59    60    59    1
    60    61    15    1
    61    62    61   ar
    62    63    62    1
    63    64    62   ar
    64    65    64    1
    65    66    64   ar
    66    67    66    1
    67    68    66   ar
    68    69    68    1
    69    70    61   ar
    70    71    70    1
    71    72    15    1
    72    73    72   ar
    73    74    73    1
    74    75    73   ar
    75    76    75    1
    76    77    75   ar
    77    78    77    1
    78    79    77   ar
    79    80    79    1
    80    81    72   ar
    81    82    81    1
    82    24    26   ar
    83    35    37   ar
    84    46    48   ar
    85    57    59   ar
    86    68    70   ar
    87    79    81   ar
    88    83    84    1
    89    84    85    1
    90    86    84    1
    91    87    84    1
    92    88    87    1
    93    89    87    1
    94    90    87    1
    95    91    83    1
    96    92    91    1
    97    93    91    1
    98    94    91    1
    99    95    94    1
   100    96    94    1
   101    97    94    1
   102    98    83    1
   103    99    98    1
   104   100    98    1
   105   101    98    1
   106   102   101    1
   107   103   101    1
   108   104   101    1
   109   105    83    1
   110   106   105    1
   111   107   105    1
   112   108   105    1
   113   109   108    1
   114   110   108    1
   115   111   108    1
   116   112   113    3
   117   113   114    1
   118   114   115    1
   119   116   114    1
   120   117   114    1
@<TRIPOS>SUBSTRUCTURE
     1 RES1        1 GROUP             0 ****  ****    0  
     2 RES2       14 GROUP             0 ****  ****    0  
     3 RES3       83 GROUP             0 ****  ****    0  
     4 RES4      112 GROUP             0 ****  ****    0  
@<TRIPOS>CRYSIN
   16.5866   19.4757   17.3778   90.0000  117.8531   90.0000    14     1
