@<TRIPOS>MOLECULE
AQODIT
   112   118     4     0     0
SMALL
USER_CHARGES
****
Generated from the CSD

@<TRIPOS>ATOM
     1 Fe1      4.2100  -5.6654  11.9712   Fe        1 RES1   3.0000
     2 O1       4.9865  -7.3690  12.2949   O.3       1 RES1   0.0000
     3 C1       4.8452  -8.1414  11.2607   C.2       1 RES1  -1.0000
     4 N1       3.2735  -6.5898  10.6405   N.2       1 RES1   0.0000
     5 C2       3.8711  -7.7504  10.2764   C.2       1 RES1   0.0000
     6 C3       3.7192  -8.4795   9.0825   C.2       1 RES1   0.0000
     7 H1       3.0748  -8.2117   8.4352   H         1 RES1   0.0000
     8 C4       4.5070  -9.5775   8.8626   C.2       1 RES1   0.0000
     9 C5       5.4102  -9.9907   9.9003   C.2       1 RES1   0.0000
    10 H2       5.9060 -10.7881   9.7565   H         1 RES1   0.0000
    11 C6       5.6108  -9.3280  11.0737   C.2       1 RES1   0.0000
    12 C7       6.6321  -9.7653  12.1360   C.3       1 RES1   0.0000
    13 C8       7.6928  -8.6885  12.3230   C.3       1 RES1   0.0000
    14 H3       7.2641  -7.8515  12.5984   H         1 RES1   0.0000
    15 H4       8.1708  -8.5488  11.4785   H         1 RES1   0.0000
    16 H5       8.3273  -8.9726  13.0135   H         1 RES1   0.0000
    17 C9       7.3437 -11.0463  11.7066   C.3       1 RES1   0.0000
    18 H6       6.6848 -11.7590  11.5771   H         1 RES1   0.0000
    19 H7       7.9833 -11.3140  12.4011   H         1 RES1   0.0000
    20 H8       7.8223 -10.8873  10.8661   H         1 RES1   0.0000
    21 C10      5.9297 -10.0234  13.4635   C.3       1 RES1   0.0000
    22 H9       5.4663  -9.2105  13.7491   H         1 RES1   0.0000
    23 H10      6.5921 -10.2767  14.1395   H         1 RES1   0.0000
    24 H11      5.2832 -10.7506  13.3525   H         1 RES1   0.0000
    25 C11      4.5080 -10.3634   7.5578   C.3       1 RES1   0.0000
    26 C12      5.9168 -10.3085   6.9495   C.3       1 RES1   0.0000
    27 H12      5.9308 -10.8122   6.1091   H         1 RES1   0.0000
    28 H13      6.5595 -10.7043   7.5763   H         1 RES1   0.0000
    29 H14      6.1628  -9.3762   6.7769   H         1 RES1   0.0000
    30 C13      3.5119  -9.7980   6.5262   C.3       1 RES1   0.0000
    31 H15      3.5477 -10.3355   5.7084   H         1 RES1   0.0000
    32 H16      3.7473  -8.8705   6.3187   H         1 RES1   0.0000
    33 H17      2.6073  -9.8288   6.8961   H         1 RES1   0.0000
    34 C14      4.1375 -11.8225   7.8352   C.3       1 RES1   0.0000
    35 H18      4.1366 -12.3253   6.9948   H         1 RES1   0.0000
    36 H19      3.2461 -11.8611   8.2379   H         1 RES1   0.0000
    37 H20      4.7921 -12.2136   8.4517   H         1 RES1   0.0000
    38 C15      2.2441  -5.8896  10.0236   C.ar      1 RES1   0.0000
    39 C16      1.2749  -6.3587   9.1503   C.ar      1 RES1   0.0000
    40 H21      1.2428  -7.2775   8.9078   H         1 RES1   0.0000
    41 C17      0.3372  -5.4369   8.6284   C.ar      1 RES1   0.0000
    42 H22     -0.3292  -5.7538   8.0284   H         1 RES1   0.0000
    43 C18      0.3501  -4.1213   8.9448   C.ar      1 RES1   0.0000
    44 H23     -0.2787  -3.5338   8.5462   H         1 RES1   0.0000
    45 C19      1.2973  -3.6137   9.8675   C.ar      1 RES1   0.0000
    46 C20      1.3540  -2.2826  10.3257   C.ar      1 RES1   0.0000
    47 H24      0.7363  -1.6402   9.9990   H         1 RES1   0.0000
    48 C21      2.2948  -1.9215  11.2339   C.ar      1 RES1   0.0000
    49 H25      2.3571  -1.0200  11.5257   H         1 RES1   0.0000
    50 C22      3.1700  -2.8865  11.7353   C.ar      1 RES1   0.0000
    51 H26      3.8071  -2.6226  12.3888   H         1 RES1   0.0000
    52 N2       3.1517  -4.1521  11.3461   N.ar      1 RES1   0.0000
    53 C23      2.2227  -4.5258  10.4099   C.ar      1 RES1   0.0000
    54 O2       5.6508  -5.2867  10.7778   O.3       1 RES1   0.0000
    55 C24      6.7499  -5.0536  11.4415   C.2       1 RES1  -1.0000
    56 C25      6.6281  -4.7791  12.8450   C.2       1 RES1   0.0000
    57 N3       5.3157  -4.8224  13.2270   N.2       1 RES1   0.0000
    58 C26      7.7593  -4.5653  13.6463   C.2       1 RES1   0.0000
    59 H27      7.6672  -4.4247  14.5813   H         1 RES1   0.0000
    60 C27      8.9999  -4.5614  13.0648   C.2       1 RES1   0.0000
    61 C28      9.0956  -4.7752  11.6655   C.2       1 RES1   0.0000
    62 H28      9.9639  -4.7464  11.2771   H         1 RES1   0.0000
    63 C29      8.0367  -5.0208  10.8271   C.2       1 RES1   0.0000
    64 C30      8.1906  -5.2770   9.3352   C.3       1 RES1   0.0000
    65 C31      9.6630  -5.2279   8.9037   C.3       1 RES1   0.0000
    66 H29      9.7245  -5.3945   7.9400   H         1 RES1   0.0000
    67 H30     10.1700  -5.9137   9.3866   H         1 RES1   0.0000
    68 H31     10.0340  -4.3438   9.1072   H         1 RES1   0.0000
    69 C32      7.4285  -4.1974   8.5606   C.3       1 RES1   0.0000
    70 H32      7.5227  -4.3563   7.5989   H         1 RES1   0.0000
    71 H33      7.7919  -3.3161   8.7845   H         1 RES1   0.0000
    72 H34      6.4805  -4.2291   8.8051   H         1 RES1   0.0000
    73 C33      7.6522  -6.6543   8.9613   C.3       1 RES1   0.0000
    74 H35      7.7627  -6.7959   7.9975   H         1 RES1   0.0000
    75 H36      6.7035  -6.7083   9.1935   H         1 RES1   0.0000
    76 H37      8.1467  -7.3430   9.4503   H         1 RES1   0.0000
    77 C34     10.2758  -4.3438  13.8642   C.3       1 RES1   0.0000
    78 C35      9.9963  -4.2253  15.3622   C.3       1 RES1   0.0000
    79 H38     10.8388  -4.0866  15.8409   H         1 RES1   0.0000
    80 H39      9.5708  -5.0478  15.6807   H         1 RES1   0.0000
    81 H40      9.3985  -3.4644  15.5224   H         1 RES1   0.0000
    82 C36     10.9488  -3.0532  13.3977   C.3       1 RES1   0.0000
    83 H41     11.1372  -3.1119  12.4360   H         1 RES1   0.0000
    84 H42     11.7886  -2.9270  13.8847   H         1 RES1   0.0000
    85 H43     10.3527  -2.2932  13.5683   H         1 RES1   0.0000
    86 C37     11.2417  -5.5034  13.6402   C.3       1 RES1   0.0000
    87 H44     11.4281  -5.5910  12.6826   H         1 RES1   0.0000
    88 H45     10.8380  -6.3326  13.9710   H         1 RES1   0.0000
    89 H46     12.0756  -5.3310  14.1231   H         1 RES1   0.0000
    90 C38      4.7438  -4.5008  14.4436   C.ar      1 RES1   0.0000
    91 C39      5.2242  -3.7081  15.4711   C.ar      1 RES1   0.0000
    92 H47      6.0777  -3.2930  15.4012   H         1 RES1   0.0000
    93 C40      4.4385  -3.5261  16.6197   C.ar      1 RES1   0.0000
    94 H48      4.7655  -2.9780  17.3246   H         1 RES1   0.0000
    95 C41      3.2090  -4.1174  16.7533   C.ar      1 RES1   0.0000
    96 H49      2.7126  -3.9903  17.5526   H         1 RES1   0.0000
    97 C42      2.6752  -4.9072  15.7259   C.ar      1 RES1   0.0000
    98 C43      1.4508  -5.5901  15.7690   C.ar      1 RES1   0.0000
    99 H50      0.8928  -5.5130  16.5355   H         1 RES1   0.0000
   100 C44      1.0587  -6.3509  14.7375   C.ar      1 RES1   0.0000
   101 H51      0.2463  -6.8421  14.7909   H         1 RES1   0.0000
   102 C45      1.8499  -6.4222  13.5765   C.ar      1 RES1   0.0000
   103 H52      1.5423  -6.9356  12.8388   H         1 RES1   0.0000
   104 N4       3.0040  -5.7952  13.4867   N.ar      1 RES1   0.0000
   105 C46      3.4474  -5.0719  14.5669   C.ar      1 RES1   0.0000
   106 Cl1     -0.2112  -9.3030  12.9130   Cl        2 RES2   0.0000
   107 O3       0.4439  -8.8195  11.6983   O.3       2 RES2  -1.0000
   108 O4      -1.0620  -8.2965  13.4059   O.2       2 RES2   0.0000
   109 O5       0.8595  -9.5726  13.8662   O.2       2 RES2   0.0000
   110 O6      -0.9017 -10.4549  12.7196   O.2       2 RES2   0.0000
   111 O7      -1.6443 -11.9429  15.0169   O.3       3 RES3   0.0000
   112 O8      -2.3059  -6.9346   6.2386   O.3       4 RES4   0.0000
@<TRIPOS>BOND
     1     1     2    1
     2     2     3    1
     3     3     5    1
     4     4     1    1
     5     5     4    2
     6     6     5    1
     7     7     6    1
     8     8     6    2
     9     9     8    1
    10    10     9    1
    11    11     3    1
    12    12    11    1
    13    13    12    1
    14    14    13    1
    15    15    13    1
    16    16    13    1
    17    17    12    1
    18    18    17    1
    19    19    17    1
    20    20    17    1
    21    21    12    1
    22    22    21    1
    23    23    21    1
    24    24    21    1
    25    25     8    1
    26    26    25    1
    27    27    26    1
    28    28    26    1
    29    29    26    1
    30    30    25    1
    31    31    30    1
    32    32    30    1
    33    33    30    1
    34    34    25    1
    35    35    34    1
    36    36    34    1
    37    37    34    1
    38    38     4    1
    39    39    38   ar
    40    40    39    1
    41    41    39   ar
    42    42    41    1
    43    43    41   ar
    44    44    43    1
    45    45    43   ar
    46    46    45   ar
    47    47    46    1
    48    48    46   ar
    49    49    48    1
    50    50    48   ar
    51    51    50    1
    52    52     1    1
    53    53    38   ar
    54    54     1    1
    55    55    54    1
    56    56    55    1
    57    57     1    1
    58    58    56    1
    59    59    58    1
    60    60    58    2
    61    61    60    1
    62    62    61    1
    63    63    55    1
    64    64    63    1
    65    65    64    1
    66    66    65    1
    67    67    65    1
    68    68    65    1
    69    69    64    1
    70    70    69    1
    71    71    69    1
    72    72    69    1
    73    73    64    1
    74    74    73    1
    75    75    73    1
    76    76    73    1
    77    77    60    1
    78    78    77    1
    79    79    78    1
    80    80    78    1
    81    81    78    1
    82    82    77    1
    83    83    82    1
    84    84    82    1
    85    85    82    1
    86    86    77    1
    87    87    86    1
    88    88    86    1
    89    89    86    1
    90    90    57    1
    91    91    90   ar
    92    92    91    1
    93    93    91   ar
    94    94    93    1
    95    95    93   ar
    96    96    95    1
    97    97    95   ar
    98    98    97   ar
    99    99    98    1
   100   100    98   ar
   101   101   100    1
   102   102   100   ar
   103   103   102    1
   104   104     1    1
   105   105    90   ar
   106     9    11    2
   107    45    53   ar
   108    50    52   ar
   109    52    53   ar
   110    56    57    2
   111    61    63    2
   112    97   105   ar
   113   102   104   ar
   114   104   105   ar
   115   106   107    1
   116   108   106    2
   117   109   106    2
   118   110   106    2
@<TRIPOS>SUBSTRUCTURE
     1 RES1        1 GROUP             0 ****  ****    0  
     2 RES2      106 GROUP             0 ****  ****    0  
     3 RES3      111 GROUP             0 ****  ****    0  
     4 RES4      112 GROUP             0 ****  ****    0  
@<TRIPOS>CRYSIN
   43.8270    9.6314   20.5708   90.0000   92.6600   90.0000    15     1
