@<TRIPOS>MOLECULE
ARECOP
   111   120     1     0     0
SMALL
NO_CHARGES
****
Generated from the CSD

@<TRIPOS>ATOM
     1 Fe1      4.9877   1.3977  22.2544   Fe        1 RES1   0.0000
     2 O1       3.8837   1.7363  24.2472   O.co2     1 RES1   0.0000
     3 O2       5.3460   3.1076  23.3559   O.co2     1 RES1   0.0000
     4 O3       4.5964  -0.6399  21.9203   O.co2     1 RES1   0.0000
     5 O4       6.1578  -0.1754  23.3883   O.co2     1 RES1   0.0000
     6 N1       6.3568   1.4906  20.5825   N.ar      1 RES1   0.0000
     7 N2       3.1652   1.9799  21.1815   N.ar      1 RES1   0.0000
     8 C1       4.5504   2.7823  24.2977   C.2       1 RES1   0.0000
     9 C2       4.4527   3.6934  25.4888   C.ar      1 RES1   0.0000
    10 C3       5.5755   3.9346  26.3007   C.ar      1 RES1   0.0000
    11 C4       5.4318   4.7800  27.3993   C.ar      1 RES1   0.0000
    12 H1       6.1646   4.9484  27.9470   H         1 RES1   0.0000
    13 C5       4.2160   5.3687  27.6822   C.ar      1 RES1   0.0000
    14 H2       4.1345   5.9323  28.4176   H         1 RES1   0.0000
    15 C6       3.1256   5.1287  26.8826   C.ar      1 RES1   0.0000
    16 H3       2.3125   5.5323  27.0845   H         1 RES1   0.0000
    17 C7       3.2161   4.2904  25.7751   C.ar      1 RES1   0.0000
    18 C8       6.9011   3.3136  26.0339   C.ar      1 RES1   0.0000
    19 C9       7.0393   1.9870  25.6287   C.ar      1 RES1   0.0000
    20 H4       6.2799   1.4652  25.5070   H         1 RES1   0.0000
    21 C10      8.2813   1.4365  25.4049   C.ar      1 RES1   0.0000
    22 H5       8.3400   0.5576  25.1073   H         1 RES1   0.0000
    23 C11      9.4409   2.1577  25.6100   C.ar      1 RES1   0.0000
    24 C12     10.7967   1.5129  25.3947   C.3       1 RES1   0.0000
    25 H6      10.6775   0.6018  25.1178   H         1 RES1   0.0000
    26 H7      11.2964   1.5356  26.2142   H         1 RES1   0.0000
    27 H8      11.2753   1.9941  24.7155   H         1 RES1   0.0000
    28 C13      9.3155   3.4760  26.0139   C.ar      1 RES1   0.0000
    29 H9      10.0807   3.9859  26.1511   H         1 RES1   0.0000
    30 C14      8.0748   4.0468  26.2156   C.ar      1 RES1   0.0000
    31 H10      8.0201   4.9364  26.4772   H         1 RES1   0.0000
    32 C15      2.0335   4.0838  24.9009   C.ar      1 RES1   0.0000
    33 C16      2.0467   4.4301  23.5513   C.ar      1 RES1   0.0000
    34 H11      2.8211   4.7824  23.1774   H         1 RES1   0.0000
    35 C17      0.9274   4.2582  22.7633   C.ar      1 RES1   0.0000
    36 H12      0.9566   4.5137  21.8706   H         1 RES1   0.0000
    37 C18     -0.2348   3.7148  23.2734   C.ar      1 RES1   0.0000
    38 C19     -1.4591   3.5118  22.4054   C.3       1 RES1   0.0000
    39 H13     -1.2715   3.8080  21.5130   H         1 RES1   0.0000
    40 H14     -2.1917   4.0181  22.7620   H         1 RES1   0.0000
    41 H15     -1.6915   2.5805  22.3912   H         1 RES1   0.0000
    42 C20     -0.2448   3.3674  24.6051   C.ar      1 RES1   0.0000
    43 H16     -1.0144   2.9960  24.9706   H         1 RES1   0.0000
    44 C21      0.8652   3.5584  25.4139   C.ar      1 RES1   0.0000
    45 H17      0.8212   3.3303  26.3142   H         1 RES1   0.0000
    46 C22      5.4450  -1.0102  22.7925   C.2       1 RES1   0.0000
    47 C23      5.5787  -2.4778  23.0996   C.ar      1 RES1   0.0000
    48 C24      6.8088  -3.1023  22.8577   C.ar      1 RES1   0.0000
    49 C25      6.9383  -4.4695  23.1077   C.ar      1 RES1   0.0000
    50 H18      7.7461  -4.8982  22.9355   H         1 RES1   0.0000
    51 C26      5.8696  -5.1908  23.6096   C.ar      1 RES1   0.0000
    52 H19      5.9627  -6.1007  23.7795   H         1 RES1   0.0000
    53 C27      4.6703  -4.5674  23.8592   C.ar      1 RES1   0.0000
    54 H20      3.9642  -5.0606  24.2081   H         1 RES1   0.0000
    55 C28      4.4906  -3.2074  23.5986   C.ar      1 RES1   0.0000
    56 C29      7.9666  -2.3357  22.3092   C.ar      1 RES1   0.0000
    57 C30      7.9183  -1.7709  21.0476   C.ar      1 RES1   0.0000
    58 H21      7.1616  -1.8903  20.5218   H         1 RES1   0.0000
    59 C31      8.9790  -1.0281  20.5552   C.ar      1 RES1   0.0000
    60 H22      8.9285  -0.6723  19.6988   H         1 RES1   0.0000
    61 C32     10.1068  -0.8084  21.3124   C.ar      1 RES1   0.0000
    62 C33     11.2583   0.0263  20.7795   C.3       1 RES1   0.0000
    63 H23     11.0468   0.3367  19.8960   H         1 RES1   0.0000
    64 H24     12.0553  -0.5099  20.7479   H         1 RES1   0.0000
    65 H25     11.4022   0.7797  21.3579   H         1 RES1   0.0000
    66 C34     10.1529  -1.3768  22.5650   C.ar      1 RES1   0.0000
    67 H26     10.9096  -1.2478  23.0906   H         1 RES1   0.0000
    68 C35      9.1060  -2.1374  23.0667   C.ar      1 RES1   0.0000
    69 H27      9.1703  -2.5136  23.9136   H         1 RES1   0.0000
    70 C36      3.1615  -2.5709  23.8494   C.ar      1 RES1   0.0000
    71 C37      3.0396  -1.3446  24.4994   C.ar      1 RES1   0.0000
    72 H28      3.8034  -0.9099  24.8023   H         1 RES1   0.0000
    73 C38      1.8028  -0.7666  24.6995   C.ar      1 RES1   0.0000
    74 H29      1.7515   0.0573  25.1283   H         1 RES1   0.0000
    75 C39      0.6351  -1.3816  24.2780   C.ar      1 RES1   0.0000
    76 C40     -0.7196  -0.7702  24.5452   C.3       1 RES1   0.0000
    77 H30     -0.6081   0.0681  24.9995   H         1 RES1   0.0000
    78 H31     -1.2373  -1.3649  25.0915   H         1 RES1   0.0000
    79 H32     -1.1744  -0.6233  23.7138   H         1 RES1   0.0000
    80 C41      0.7557  -2.6019  23.6309   C.ar      1 RES1   0.0000
    81 H33     -0.0135  -3.0354  23.3351   H         1 RES1   0.0000
    82 C42      1.9835  -3.1906  23.4159   C.ar      1 RES1   0.0000
    83 H34      2.0297  -4.0098  22.9776   H         1 RES1   0.0000
    84 C43      5.8676   0.9935  19.4330   C.ar      1 RES1   0.0000
    85 H35      5.0581   0.5373  19.4622   H         1 RES1   0.0000
    86 C44      6.4951   1.1213  18.2172   C.ar      1 RES1   0.0000
    87 H36      6.1217   0.7642  17.4429   H         1 RES1   0.0000
    88 C45      7.6977   1.7923  18.1798   C.ar      1 RES1   0.0000
    89 H37      8.1407   1.9165  17.3719   H         1 RES1   0.0000
    90 C46      8.2399   2.2783  19.3436   C.ar      1 RES1   0.0000
    91 H38      9.0602   2.7166  19.3307   H         1 RES1   0.0000
    92 C47      7.5478   2.1100  20.5494   C.ar      1 RES1   0.0000
    93 C48      8.0879   2.5745  21.8291   C.2       1 RES1   0.0000
    94 H39      7.6559   2.2771  22.5963   H         1 RES1   0.0000
    95 C49      9.1062   3.3590  22.0039   C.2       1 RES1   0.0000
    96 H40      9.5745   3.6850  21.2685   H         1 RES1   0.0000
    97 H41      9.3695   3.5954  22.8645   H         1 RES1   0.0000
    98 C50      2.1493   1.1917  21.5872   C.ar      1 RES1   0.0000
    99 H42      2.2870   0.6496  22.3307   H         1 RES1   0.0000
   100 C51      0.9208   1.1380  20.9695   C.ar      1 RES1   0.0000
   101 H43      0.2470   0.5839  21.2922   H         1 RES1   0.0000
   102 C52      0.7180   1.9225  19.8663   C.ar      1 RES1   0.0000
   103 H44     -0.0904   1.8831  19.4069   H         1 RES1   0.0000
   104 C53      1.7062   2.7643  19.4422   C.ar      1 RES1   0.0000
   105 H45      1.5732   3.3065  18.6970   H         1 RES1   0.0000
   106 C54      2.9295   2.8061  20.1387   C.ar      1 RES1   0.0000
   107 C55      3.9276   3.7686  19.7219   C.2       1 RES1   0.0000
   108 H46      3.9162   4.0229  18.8285   H         1 RES1   0.0000
   109 C56      4.8350   4.3095  20.4700   C.2       1 RES1   0.0000
   110 H47      4.8883   4.0862  21.3710   H         1 RES1   0.0000
   111 H48      5.4340   4.9197  20.1063   H         1 RES1   0.0000
@<TRIPOS>BOND
     1     1     2    1
     2     2     8   un
     3     3     1    1
     4     4     1    1
     5     5     1    1
     6     6     1    1
     7     7     1    1
     8     8     3   un
     9     9     8    1
    10    10     9   ar
    11    11    10   ar
    12    12    11    1
    13    13    11   ar
    14    14    13    1
    15    15    13   ar
    16    16    15    1
    17    17     9   ar
    18    18    10    1
    19    19    18   ar
    20    20    19    1
    21    21    19   ar
    22    22    21    1
    23    23    21   ar
    24    24    23    1
    25    25    24    1
    26    26    24    1
    27    27    24    1
    28    28    23   ar
    29    29    28    1
    30    30    18   ar
    31    31    30    1
    32    32    17    1
    33    33    32   ar
    34    34    33    1
    35    35    33   ar
    36    36    35    1
    37    37    35   ar
    38    38    37    1
    39    39    38    1
    40    40    38    1
    41    41    38    1
    42    42    37   ar
    43    43    42    1
    44    44    32   ar
    45    45    44    1
    46    46     4   un
    47    47    46    1
    48    48    47   ar
    49    49    48   ar
    50    50    49    1
    51    51    49   ar
    52    52    51    1
    53    53    51   ar
    54    54    53    1
    55    55    47   ar
    56    56    48    1
    57    57    56   ar
    58    58    57    1
    59    59    57   ar
    60    60    59    1
    61    61    59   ar
    62    62    61    1
    63    63    62    1
    64    64    62    1
    65    65    62    1
    66    66    61   ar
    67    67    66    1
    68    68    56   ar
    69    69    68    1
    70    70    55    1
    71    71    70   ar
    72    72    71    1
    73    73    71   ar
    74    74    73    1
    75    75    73   ar
    76    76    75    1
    77    77    76    1
    78    78    76    1
    79    79    76    1
    80    80    75   ar
    81    81    80    1
    82    82    70   ar
    83    83    82    1
    84    84     6   ar
    85    85    84    1
    86    86    84   ar
    87    87    86    1
    88    88    86   ar
    89    89    88    1
    90    90    88   ar
    91    91    90    1
    92    92     6   ar
    93    93    92    1
    94    94    93    1
    95    95    93    2
    96    96    95    1
    97    97    95    1
    98    98     7   ar
    99    99    98    1
   100   100    98   ar
   101   101   100    1
   102   102   100   ar
   103   103   102    1
   104   104   102   ar
   105   105   104    1
   106   106     7   ar
   107   107   106    1
   108   108   107    1
   109   109   107    2
   110   110   109    1
   111   111   109    1
   112     5    46   un
   113    15    17   ar
   114    28    30   ar
   115    42    44   ar
   116    53    55   ar
   117    66    68   ar
   118    80    82   ar
   119    90    92   ar
   120   104   106   ar
@<TRIPOS>SUBSTRUCTURE
     1 RES1        1 GROUP             0 ****  ****    0  
@<TRIPOS>CRYSIN
   14.5430   11.9410   26.9880   90.0000  103.0300   90.0000    14     1
