@<TRIPOS>MOLECULE
ARECIJ
   103   113     1     0     0
SMALL
NO_CHARGES
****
Generated from the CSD

@<TRIPOS>ATOM
     1 Fe1      6.3150   9.9614   9.2826   Fe        1 RES1   0.0000
     2 O1       4.3412  10.2984  10.0291   O.co2     1 RES1   0.0000
     3 O2       4.9426  11.2051   8.1335   O.co2     1 RES1   0.0000
     4 N1       6.1822   8.0535   8.1680   N.ar      1 RES1   0.0000
     5 C1       6.3150   7.2924   9.2826   C.ar      1 RES1   0.0000
     6 C2       6.3150   5.8934   9.2826   C.ar      1 RES1   0.0000
     7 C3       6.4068   5.2768  10.5499   C.ar      1 RES1   0.0000
     8 H1       6.3968   4.3499  10.6192   H         1 RES1   0.0000
     9 C4       6.5085   6.0432  11.6698   C.ar      1 RES1   0.0000
    10 H2       6.5505   5.6363  12.5055   H         1 RES1   0.0000
    11 C5       6.0793   7.4534   6.9916   C.ar      1 RES1   0.0000
    12 C6       5.9338   8.3214   5.7898   C.3       1 RES1   0.0000
    13 H3       5.9241   9.2424   6.0597   H         1 RES1   0.0000
    14 H4       5.1123   8.1107   5.3406   H         1 RES1   0.0000
    15 H5       6.6715   8.1702   5.1945   H         1 RES1   0.0000
    16 C7       4.0735  11.0037   9.0177   C.2       1 RES1   0.0000
    17 C8       2.7144  11.6285   8.8714   C.ar      1 RES1   0.0000
    18 C9       1.8071  11.1218   7.9159   C.ar      1 RES1   0.0000
    19 C10      0.5995  11.8035   7.7181   C.ar      1 RES1   0.0000
    20 H6       0.0024  11.4995   7.0733   H         1 RES1   0.0000
    21 C11      0.2841  12.9111   8.4620   C.ar      1 RES1   0.0000
    22 H7      -0.5219  13.3509   8.3184   H         1 RES1   0.0000
    23 C12      1.1594  13.3754   9.4212   C.ar      1 RES1   0.0000
    24 H8       0.9271  14.1220   9.9261   H         1 RES1   0.0000
    25 C13      2.3900  12.7477   9.6510   C.ar      1 RES1   0.0000
    26 C14      2.0613   9.8687   7.1653   C.ar      1 RES1   0.0000
    27 C15      2.5512   8.7257   7.7839   C.ar      1 RES1   0.0000
    28 H9       2.7481   8.7482   8.6922   H         1 RES1   0.0000
    29 C16      2.7518   7.5535   7.0762   C.ar      1 RES1   0.0000
    30 H10      3.0858   6.8067   7.5189   H         1 RES1   0.0000
    31 C17      2.4654   7.4670   5.7150   C.ar      1 RES1   0.0000
    32 C18      2.7302   6.1897   4.9519   C.3       1 RES1   0.0000
    33 H11      2.4740   6.3060   4.0348   H         1 RES1   0.0000
    34 H12      2.2184   5.4753   5.3381   H         1 RES1   0.0000
    35 H13      3.6647   5.9776   5.0002   H         1 RES1   0.0000
    36 C19      1.9602   8.6007   5.1054   C.ar      1 RES1   0.0000
    37 H14      1.7480   8.5695   4.2007   H         1 RES1   0.0000
    38 C20      1.7602   9.7769   5.7968   C.ar      1 RES1   0.0000
    39 H15      1.4213  10.5191   5.3505   H         1 RES1   0.0000
    40 C21      3.2848  13.3026  10.7096   C.ar      1 RES1   0.0000
    41 C22      4.6488  13.4800  10.5458   C.ar      1 RES1   0.0000
    42 H16      5.0457  13.2446   9.7380   H         1 RES1   0.0000
    43 C23      5.4385  14.0052  11.5661   C.ar      1 RES1   0.0000
    44 H17      6.3538  14.1027  11.4336   H         1 RES1   0.0000
    45 C24      4.8780  14.3848  12.7790   C.ar      1 RES1   0.0000
    46 C25      5.7482  14.9368  13.9028   C.3       1 RES1   0.0000
    47 H18      5.1980  15.1443  14.6615   H         1 RES1   0.0000
    48 H19      6.1911  15.7336  13.6020   H         1 RES1   0.0000
    49 H20      6.4033  14.2798  14.1516   H         1 RES1   0.0000
    50 C26      3.5113  14.2404  12.9287   C.ar      1 RES1   0.0000
    51 H21      3.1128  14.5052  13.7258   H         1 RES1   0.0000
    52 C27      2.7208  13.7097  11.9207   C.ar      1 RES1   0.0000
    53 H22      1.8050  13.6246  12.0525   H         1 RES1   0.0000
    54 O1B      8.2887  10.2984   8.5360   O.co2     1 RES1   0.0000
    55 C7B      8.5565  11.0037   9.5474   C.2       1 RES1   0.0000
    56 O2B      7.6873  11.2051  10.4316   O.co2     1 RES1   0.0000
    57 N1B      6.4477   8.0535  10.3971   N.ar      1 RES1   0.0000
    58 C5B      6.5506   7.4534  11.5735   C.ar      1 RES1   0.0000
    59 C3B      6.2232   5.2768   8.0152   C.ar      1 RES1   0.0000
    60 H1B      6.2331   4.3499   7.9459   H         1 RES1   0.0000
    61 C4B      6.1214   6.0432   6.8953   C.ar      1 RES1   0.0000
    62 H2B      6.0794   5.6363   6.0597   H         1 RES1   0.0000
    63 C6B      6.6961   8.3214  12.7753   C.3       1 RES1   0.0000
    64 H3B      6.7058   9.2424  12.5055   H         1 RES1   0.0000
    65 H4B      7.5176   8.1107  13.2245   H         1 RES1   0.0000
    66 H5B      5.9585   8.1702  13.3706   H         1 RES1   0.0000
    67 C8B      9.9155  11.6285   9.6937   C.ar      1 RES1   0.0000
    68 C9B     10.8228  11.1218  10.6492   C.ar      1 RES1   0.0000
    69 C10B    12.0304  11.8035  10.8470   C.ar      1 RES1   0.0000
    70 H6B     12.6275  11.4995  11.4918   H         1 RES1   0.0000
    71 C11B    12.3459  12.9111  10.1031   C.ar      1 RES1   0.0000
    72 H7B     13.1518  13.3509  10.2467   H         1 RES1   0.0000
    73 C12B    11.4705  13.3754   9.1439   C.ar      1 RES1   0.0000
    74 H8B     11.7028  14.1220   8.6390   H         1 RES1   0.0000
    75 C13B    10.2399  12.7477   8.9141   C.ar      1 RES1   0.0000
    76 C21B     9.3451  13.3026   7.8555   C.ar      1 RES1   0.0000
    77 C22B     7.9811  13.4800   8.0193   C.ar      1 RES1   0.0000
    78 H16B     7.5842  13.2446   8.8271   H         1 RES1   0.0000
    79 C23B     7.1914  14.0052   6.9990   C.ar      1 RES1   0.0000
    80 H17B     6.2761  14.1027   7.1315   H         1 RES1   0.0000
    81 C24B     7.7520  14.3848   5.7861   C.ar      1 RES1   0.0000
    82 C25B     6.8818  14.9368   4.6623   C.3       1 RES1   0.0000
    83 H18B     7.4319  15.1443   3.9036   H         1 RES1   0.0000
    84 H19B     6.4389  15.7336   4.9631   H         1 RES1   0.0000
    85 H20B     6.2267  14.2798   4.4135   H         1 RES1   0.0000
    86 C26B     9.1186  14.2404   5.6364   C.ar      1 RES1   0.0000
    87 H21B     9.5171  14.5052   4.8393   H         1 RES1   0.0000
    88 C27B     9.9091  13.7097   6.6445   C.ar      1 RES1   0.0000
    89 H22B    10.8249  13.6246   6.5126   H         1 RES1   0.0000
    90 C14B    10.5687   9.8687  11.3998   C.ar      1 RES1   0.0000
    91 C15B    10.0787   8.7257  10.7813   C.ar      1 RES1   0.0000
    92 H9B      9.8819   8.7482   9.8729   H         1 RES1   0.0000
    93 C16B     9.8782   7.5535  11.4890   C.ar      1 RES1   0.0000
    94 H10B     9.5442   6.8067  11.0462   H         1 RES1   0.0000
    95 C17B    10.1645   7.4670  12.8501   C.ar      1 RES1   0.0000
    96 C18B     9.8998   6.1897  13.6132   C.3       1 RES1   0.0000
    97 H11B    10.1559   6.3060  14.5303   H         1 RES1   0.0000
    98 H12B    10.4116   5.4753  13.2270   H         1 RES1   0.0000
    99 H13B     8.9652   5.9776  13.5649   H         1 RES1   0.0000
   100 C19B    10.6698   8.6007  13.4597   C.ar      1 RES1   0.0000
   101 H14B    10.8819   8.5695  14.3644   H         1 RES1   0.0000
   102 C20B    10.8697   9.7769  12.7683   C.ar      1 RES1   0.0000
   103 H15B    11.2087  10.5191  13.2146   H         1 RES1   0.0000
@<TRIPOS>BOND
     1     1     2    1
     2     2    16   un
     3     3     1    1
     4     4     1    1
     5     5     4   ar
     6     6     5   ar
     7     7     6   ar
     8     8     7    1
     9     9     7   ar
    10    10     9    1
    11    11     4   ar
    12    12    11    1
    13    13    12    1
    14    14    12    1
    15    15    12    1
    16    16     3   un
    17    17    16    1
    18    18    17   ar
    19    19    18   ar
    20    20    19    1
    21    21    19   ar
    22    22    21    1
    23    23    21   ar
    24    24    23    1
    25    25    17   ar
    26    26    18    1
    27    27    26   ar
    28    28    27    1
    29    29    27   ar
    30    30    29    1
    31    31    29   ar
    32    32    31    1
    33    33    32    1
    34    34    32    1
    35    35    32    1
    36    36    31   ar
    37    37    36    1
    38    38    26   ar
    39    39    38    1
    40    40    25    1
    41    41    40   ar
    42    42    41    1
    43    43    41   ar
    44    44    43    1
    45    45    43   ar
    46    46    45    1
    47    47    46    1
    48    48    46    1
    49    49    46    1
    50    50    45   ar
    51    51    50    1
    52    52    40   ar
    53    53    52    1
    54    54     1    1
    55    55    54   un
    56    56     1    1
    57    57     1    1
    58    58     9   ar
    59    59     6   ar
    60    60    59    1
    61    61    11   ar
    62    62    61    1
    63    63    58    1
    64    64    63    1
    65    65    63    1
    66    66    63    1
    67    67    55    1
    68    68    67   ar
    69    69    68   ar
    70    70    69    1
    71    71    69   ar
    72    72    71    1
    73    73    71   ar
    74    74    73    1
    75    75    67   ar
    76    76    75    1
    77    77    76   ar
    78    78    77    1
    79    79    77   ar
    80    80    79    1
    81    81    79   ar
    82    82    81    1
    83    83    82    1
    84    84    82    1
    85    85    82    1
    86    86    81   ar
    87    87    86    1
    88    88    76   ar
    89    89    88    1
    90    90    68    1
    91    91    90   ar
    92    92    91    1
    93    93    91   ar
    94    94    93    1
    95    95    93   ar
    96    96    95    1
    97    97    96    1
    98    98    96    1
    99    99    96    1
   100   100    95   ar
   101   101   100    1
   102   102    90   ar
   103   103   102    1
   104     5    57   ar
   105    23    25   ar
   106    36    38   ar
   107    50    52   ar
   108    55    56   un
   109    57    58   ar
   110    59    61   ar
   111    73    75   ar
   112    86    88   ar
   113   100   102   ar
@<TRIPOS>SUBSTRUCTURE
     1 RES1        1 GROUP             0 ****  ****    0  
@<TRIPOS>CRYSIN
   21.2720   16.0990   13.6520   90.0000  114.9620   90.0000    15     1
