@<TRIPOS>MOLECULE
AREDEG
   174   185     2     0     0
SMALL
NO_CHARGES
****
Generated from the CSD

@<TRIPOS>ATOM
     1 Fe1     11.5587   2.9429  12.1869   Fe        1 RES1   0.0000
     2 O1      10.2895   3.3884  10.6277   O.co2     1 RES1   0.0000
     3 O2      13.1510   4.7088  12.0173   O.co2     1 RES1   0.0000
     4 N1      12.8639   1.4855  11.2645   N.ar      1 RES1   0.0000
     5 N2      13.0441   0.3901  12.0878   N.ar      1 RES1   0.0000
     6 C1       9.6949   4.3670  11.1957   C.2       1 RES1   0.0000
     7 C2       8.6424   5.1136  10.4109   C.ar      1 RES1   0.0000
     8 C3       8.9917   5.7791   9.2133   C.ar      1 RES1   0.0000
     9 C4       7.9952   6.4999   8.5406   C.ar      1 RES1   0.0000
    10 H1       8.2072   6.9345   7.7460   H         1 RES1   0.0000
    11 C5       6.7215   6.5790   9.0232   C.ar      1 RES1   0.0000
    12 H2       6.0831   7.0776   8.5682   H         1 RES1   0.0000
    13 C6       6.3827   5.9186  10.1818   C.ar      1 RES1   0.0000
    14 H3       5.5091   5.9711  10.4970   H         1 RES1   0.0000
    15 C7       7.3209   5.1695  10.8951   C.ar      1 RES1   0.0000
    16 C8      10.3758   5.7950   8.6722   C.ar      1 RES1   0.0000
    17 C9      11.4876   6.0538   9.4619   C.ar      1 RES1   0.0000
    18 H4      11.3798   6.1873  10.3768   H         1 RES1   0.0000
    19 C10     12.7546   6.1177   8.9046   C.ar      1 RES1   0.0000
    20 H5      13.4836   6.2827   9.4587   H         1 RES1   0.0000
    21 C11     12.9720   5.9434   7.5462   C.ar      1 RES1   0.0000
    22 C12     11.8586   5.6770   6.7678   C.ar      1 RES1   0.0000
    23 H6      11.9675   5.5387   5.8546   H         1 RES1   0.0000
    24 C13     10.5866   5.6105   7.3105   C.ar      1 RES1   0.0000
    25 H7       9.8615   5.4401   6.7532   H         1 RES1   0.0000
    26 C14     14.3713   6.0573   6.9206   C.3       1 RES1   0.0000
    27 C15     14.4178   7.3351   6.0691   C.3       1 RES1   0.0000
    28 H8      13.7258   7.3033   5.4045   H         1 RES1   0.0000
    29 H9      15.2733   7.4019   5.6385   H         1 RES1   0.0000
    30 H10     14.2832   8.1014   6.6346   H         1 RES1   0.0000
    31 C16     14.6527   4.8456   6.0382   C.3       1 RES1   0.0000
    32 H11     13.9759   4.7788   5.3606   H         1 RES1   0.0000
    33 H12     14.6469   4.0507   6.5761   H         1 RES1   0.0000
    34 H13     15.5127   4.9441   5.6239   H         1 RES1   0.0000
    35 C17     15.4809   6.1364   7.9686   C.3       1 RES1   0.0000
    36 H14     15.4749   5.3352   8.5016   H         1 RES1   0.0000
    37 H15     15.3325   6.8963   8.5357   H         1 RES1   0.0000
    38 H16     16.3292   6.2223   7.5315   H         1 RES1   0.0000
    39 C18      6.8434   4.3963  12.0683   C.ar      1 RES1   0.0000
    40 C19      7.0890   3.0358  12.1967   C.ar      1 RES1   0.0000
    41 H17      7.6766   2.6167  11.6101   H         1 RES1   0.0000
    42 C20      6.4656   2.2981  13.1895   C.ar      1 RES1   0.0000
    43 H18      6.6270   1.3831  13.2399   H         1 RES1   0.0000
    44 C21      5.6021   2.8835  14.1222   C.ar      1 RES1   0.0000
    45 C22      5.4210   4.2500  14.0182   C.ar      1 RES1   0.0000
    46 H19      4.8816   4.6834  14.6406   H         1 RES1   0.0000
    47 C23      6.0254   4.9928  13.0075   C.ar      1 RES1   0.0000
    48 H20      5.8768   5.9107  12.9653   H         1 RES1   0.0000
    49 C24      4.8595   2.0889  15.1898   C.3       1 RES1   0.0000
    50 C25      3.3845   2.3751  15.1167   C.3       1 RES1   0.0000
    51 H21      3.2349   3.3162  15.2499   H         1 RES1   0.0000
    52 H22      2.9269   1.8791  15.7992   H         1 RES1   0.0000
    53 H23      3.0505   2.1175  14.2539   H         1 RES1   0.0000
    54 C26      5.0490   0.5501  14.9623   C.3       1 RES1   0.0000
    55 H24      4.5720   0.0668  15.6399   H         1 RES1   0.0000
    56 H25      5.9814   0.3338  15.0094   H         1 RES1   0.0000
    57 H26      4.7066   0.3116  14.0979   H         1 RES1   0.0000
    58 C27      5.4418   2.4069  16.5320   C.3       1 RES1   0.0000
    59 H27      5.3446   3.3480  16.7075   H         1 RES1   0.0000
    60 H28      6.3723   2.1748  16.5417   H         1 RES1   0.0000
    61 H29      4.9795   1.9077  17.2096   H         1 RES1   0.0000
    62 C28     14.9710  -0.8438   7.6258   C.ar      1 RES1   0.0000
    63 H30     15.2273  -0.8775   6.7321   H         1 RES1   0.0000
    64 C29     15.1530  -1.9598   8.4480   C.ar      1 RES1   0.0000
    65 H31     15.5471  -2.7280   8.1035   H         1 RES1   0.0000
    66 C30     14.4223   0.2884   8.1279   C.ar      1 RES1   0.0000
    67 H32     14.3245   1.0333   7.5787   H         1 RES1   0.0000
    68 C31     14.7540  -1.9261   9.7544   C.ar      1 RES1   0.0000
    69 H33     14.8810  -2.6708  10.2939   H         1 RES1   0.0000
    70 C32     13.9979   0.3539   9.4684   C.ar      1 RES1   0.0000
    71 C33     14.1521  -0.7729  10.2890   C.ar      1 RES1   0.0000
    72 C34     13.3539   1.5077  10.0502   C.ar      1 RES1   0.0000
    73 C35     13.6665  -0.6706  11.6312   C.ar      1 RES1   0.0000
    74 C36     13.2502   2.7884   9.2897   C.3       1 RES1   0.0000
    75 H34     12.7950   3.4434   9.8243   H         1 RES1   0.0000
    76 H35     12.7591   2.6390   8.4772   H         1 RES1   0.0000
    77 H36     14.1310   3.1064   9.0752   H         1 RES1   0.0000
    78 C37     13.8053  -1.8063  12.5932   C.3       1 RES1   0.0000
    79 H37     13.4312  -1.5548  13.4398   H         1 RES1   0.0000
    80 H38     14.7341  -2.0190  12.7037   H         1 RES1   0.0000
    81 H39     13.3394  -2.5722  12.2519   H         1 RES1   0.0000
    82 O2B      9.9664   4.7088  12.3566   O.co2     1 RES1   0.0000
    83 O1B     12.8279   3.3884  13.7462   O.co2     1 RES1   0.0000
    84 C1B     13.4225   4.3670  13.1782   C.2       1 RES1   0.0000
    85 N1B     10.2535   1.4855  13.1094   N.ar      1 RES1   0.0000
    86 N2B     10.0734   0.3901  12.2861   N.ar      1 RES1   0.0000
    87 C35B     9.4509  -0.6706  12.7427   C.ar      1 RES1   0.0000
    88 C33B     8.9653  -0.7729  14.0849   C.ar      1 RES1   0.0000
    89 C31B     8.3635  -1.9261  14.6195   C.ar      1 RES1   0.0000
    90 C29B     7.9644  -1.9598  15.9259   C.ar      1 RES1   0.0000
    91 C28B     8.1464  -0.8438  16.7481   C.ar      1 RES1   0.0000
    92 H30B     7.8901  -0.8775  17.6418   H         1 RES1   0.0000
    93 C30B     8.6951   0.2884  16.2460   C.ar      1 RES1   0.0000
    94 H32B     8.7929   1.0333  16.7952   H         1 RES1   0.0000
    95 C32B     9.1195   0.3539  14.9054   C.ar      1 RES1   0.0000
    96 C34B     9.7636   1.5077  14.3237   C.ar      1 RES1   0.0000
    97 C36B     9.8672   2.7884  15.0842   C.3       1 RES1   0.0000
    98 H34B    10.3224   3.4434  14.5496   H         1 RES1   0.0000
    99 H35B    10.3583   2.6390  15.8967   H         1 RES1   0.0000
   100 H36B     8.9864   3.1064  15.2987   H         1 RES1   0.0000
   101 H31B     7.5704  -2.7280  16.2704   H         1 RES1   0.0000
   102 H33B     8.2364  -2.6708  14.0800   H         1 RES1   0.0000
   103 C37B     9.3121  -1.8063  11.7807   C.3       1 RES1   0.0000
   104 H37B     9.6862  -1.5548  10.9341   H         1 RES1   0.0000
   105 H38B     8.3833  -2.0190  11.6702   H         1 RES1   0.0000
   106 H39B     9.7780  -2.5722  12.1220   H         1 RES1   0.0000
   107 C2B     14.4750   5.1136  13.9630   C.ar      1 RES1   0.0000
   108 C3B     14.1258   5.7791  15.1606   C.ar      1 RES1   0.0000
   109 C4B     15.1222   6.4999  15.8333   C.ar      1 RES1   0.0000
   110 H1B     14.9102   6.9345  16.6279   H         1 RES1   0.0000
   111 C5B     16.3959   6.5790  15.3507   C.ar      1 RES1   0.0000
   112 H2B     17.0343   7.0776  15.8057   H         1 RES1   0.0000
   113 C6B     16.7348   5.9186  14.1921   C.ar      1 RES1   0.0000
   114 H3B     17.6083   5.9711  13.8769   H         1 RES1   0.0000
   115 C7B     15.7965   5.1695  13.4788   C.ar      1 RES1   0.0000
   116 C18B    16.2740   4.3963  12.3056   C.ar      1 RES1   0.0000
   117 C19B    16.0284   3.0358  12.1772   C.ar      1 RES1   0.0000
   118 H17B    15.4408   2.6167  12.7638   H         1 RES1   0.0000
   119 C20B    16.6518   2.2981  11.1844   C.ar      1 RES1   0.0000
   120 H18B    16.4904   1.3831  11.1340   H         1 RES1   0.0000
   121 C21B    17.5154   2.8835  10.2517   C.ar      1 RES1   0.0000
   122 C22B    17.6964   4.2500  10.3557   C.ar      1 RES1   0.0000
   123 H19B    18.2358   4.6834   9.7333   H         1 RES1   0.0000
   124 C23B    17.0920   4.9928  11.3664   C.ar      1 RES1   0.0000
   125 H20B    17.2407   5.9107  11.4086   H         1 RES1   0.0000
   126 C24B    18.2579   2.0889   9.1841   C.3       1 RES1   0.0000
   127 C25B    19.7329   2.3751   9.2572   C.3       1 RES1   0.0000
   128 H21B    19.8825   3.3162   9.1240   H         1 RES1   0.0000
   129 H22B    20.1905   1.8791   8.5747   H         1 RES1   0.0000
   130 H23B    20.0669   2.1175  10.1200   H         1 RES1   0.0000
   131 C26B    18.0684   0.5501   9.4116   C.3       1 RES1   0.0000
   132 H24B    18.5454   0.0668   8.7340   H         1 RES1   0.0000
   133 H25B    17.1360   0.3338   9.3645   H         1 RES1   0.0000
   134 H26B    18.4109   0.3116  10.2760   H         1 RES1   0.0000
   135 C27B    17.6756   2.4069   7.8419   C.3       1 RES1   0.0000
   136 H27B    17.7728   3.3480   7.6664   H         1 RES1   0.0000
   137 H28B    16.7451   2.1748   7.8321   H         1 RES1   0.0000
   138 H29B    18.1379   1.9077   7.1643   H         1 RES1   0.0000
   139 C8B     12.7417   5.7950  15.7017   C.ar      1 RES1   0.0000
   140 C9B     11.6298   6.0538  14.9119   C.ar      1 RES1   0.0000
   141 H4B     11.7377   6.1873  13.9971   H         1 RES1   0.0000
   142 C10B    10.3628   6.1177  15.4693   C.ar      1 RES1   0.0000
   143 H5B      9.6338   6.2827  14.9152   H         1 RES1   0.0000
   144 C11B    10.1454   5.9434  16.8277   C.ar      1 RES1   0.0000
   145 C12B    11.2588   5.6770  17.6061   C.ar      1 RES1   0.0000
   146 H6B     11.1499   5.5387  18.5193   H         1 RES1   0.0000
   147 C13B    12.5308   5.6105  17.0634   C.ar      1 RES1   0.0000
   148 H7B     13.2559   5.4401  17.6207   H         1 RES1   0.0000
   149 C14B     8.7461   6.0573  17.4533   C.3       1 RES1   0.0000
   150 C15B     8.6996   7.3351  18.3048   C.3       1 RES1   0.0000
   151 H8B      9.3916   7.3033  18.9694   H         1 RES1   0.0000
   152 H9B      7.8441   7.4019  18.7354   H         1 RES1   0.0000
   153 H10B     8.8342   8.1014  17.7393   H         1 RES1   0.0000
   154 C16B     8.4647   4.8456  18.3357   C.3       1 RES1   0.0000
   155 H11B     9.1415   4.7788  19.0133   H         1 RES1   0.0000
   156 H12B     8.4705   4.0507  17.7978   H         1 RES1   0.0000
   157 H13B     7.6047   4.9441  18.7500   H         1 RES1   0.0000
   158 C17B     7.6366   6.1364  16.4053   C.3       1 RES1   0.0000
   159 H14B     7.6425   5.3352  15.8723   H         1 RES1   0.0000
   160 H15B     7.7849   6.8963  15.8382   H         1 RES1   0.0000
   161 H16B     6.7882   6.2223  16.8424   H         1 RES1   0.0000
   162 O3       9.5401   7.3001   4.4279   O.3       2 RES2   0.0000
   163 C38      8.3274   7.6499   3.9437   C.3       2 RES2   0.0000
   164 H40      8.2656   8.6069   3.7926   H         2 RES2   0.0000
   165 H41      7.6118   7.3701   4.5384   H         2 RES2   0.0000
   166 C39      9.8202   6.1523   3.7780   C.3       2 RES2   0.0000
   167 H42     10.0605   5.4878   4.4425   H         2 RES2   0.0000
   168 H43     10.6072   6.3081   3.2320   H         2 RES2   0.0000
   169 C40      8.2940   6.6738   2.3041   C.3       2 RES2   0.0000
   170 H44      7.4014   6.4925   1.9694   H         2 RES2   0.0000
   171 H45      8.8583   7.0521   1.6103   H         2 RES2   0.0000
   172 C41      8.8666   5.6150   2.9834   C.3       2 RES2   0.0000
   173 H46      8.2001   5.1540   3.5163   H         2 RES2   0.0000
   174 H47      9.2598   4.9855   2.3594   H         2 RES2   0.0000
@<TRIPOS>BOND
     1     1     2    1
     2     2     6   un
     3     3     1    1
     4     4     1    1
     5     5     4   ar
     6     6     7    1
     7     7     8   ar
     8     8     9   ar
     9     9    10    1
    10    11     9   ar
    11    12    11    1
    12    13    11   ar
    13    14    13    1
    14    15     7   ar
    15    16     8    1
    16    17    16   ar
    17    18    17    1
    18    19    17   ar
    19    20    19    1
    20    21    19   ar
    21    22    21   ar
    22    23    22    1
    23    24    16   ar
    24    25    24    1
    25    26    21    1
    26    27    26    1
    27    28    27    1
    28    29    27    1
    29    30    27    1
    30    31    26    1
    31    32    31    1
    32    33    31    1
    33    34    31    1
    34    35    26    1
    35    36    35    1
    36    37    35    1
    37    38    35    1
    38    39    15    1
    39    40    39   ar
    40    41    40    1
    41    42    40   ar
    42    43    42    1
    43    44    42   ar
    44    45    44   ar
    45    46    45    1
    46    47    39   ar
    47    48    47    1
    48    49    44    1
    49    50    49    1
    50    51    50    1
    51    52    50    1
    52    53    50    1
    53    54    49    1
    54    55    54    1
    55    56    54    1
    56    57    54    1
    57    58    49    1
    58    59    58    1
    59    60    58    1
    60    61    58    1
    61    62    63    1
    62    64    62   ar
    63    65    64    1
    64    66    62   ar
    65    67    66    1
    66    68    64   ar
    67    69    68    1
    68    70    66   ar
    69    71    68   ar
    70    72     4   ar
    71    73     5   ar
    72    74    72    1
    73    75    74    1
    74    76    74    1
    75    77    74    1
    76    78    73    1
    77    79    78    1
    78    80    78    1
    79    81    78    1
    80    82     1    1
    81    83     1    1
    82    84     3   un
    83    85     1    1
    84    86    85   ar
    85    87    86   ar
    86    88    87   ar
    87    89    88   ar
    88    90    89   ar
    89    91    90   ar
    90    92    91    1
    91    93    91   ar
    92    94    93    1
    93    95    88   ar
    94    96    85   ar
    95    97    96    1
    96    98    97    1
    97    99    97    1
    98   100    97    1
    99   101    90    1
   100   102    89    1
   101   103    87    1
   102   104   103    1
   103   105   103    1
   104   106   103    1
   105   107    84    1
   106   108   107   ar
   107   109   108   ar
   108   110   109    1
   109   111   109   ar
   110   112   111    1
   111   113   111   ar
   112   114   113    1
   113   115   107   ar
   114   116   115    1
   115   117   116   ar
   116   118   117    1
   117   119   117   ar
   118   120   119    1
   119   121   119   ar
   120   122   121   ar
   121   123   122    1
   122   124   116   ar
   123   125   124    1
   124   126   121    1
   125   127   126    1
   126   128   127    1
   127   129   127    1
   128   130   127    1
   129   131   126    1
   130   132   131    1
   131   133   131    1
   132   134   131    1
   133   135   126    1
   134   136   135    1
   135   137   135    1
   136   138   135    1
   137   139   108    1
   138   140   139   ar
   139   141   140    1
   140   142   140   ar
   141   143   142    1
   142   144   142   ar
   143   145   144   ar
   144   146   145    1
   145   147   139   ar
   146   148   147    1
   147   149   144    1
   148   150   149    1
   149   151   150    1
   150   152   150    1
   151   153   150    1
   152   154   149    1
   153   155   154    1
   154   156   154    1
   155   157   154    1
   156   158   149    1
   157   159   158    1
   158   160   158    1
   159   161   158    1
   160     6    82   un
   161    13    15   ar
   162    22    24   ar
   163    45    47   ar
   164    70    71   ar
   165    70    72   ar
   166    71    73   ar
   167    83    84   un
   168    93    95   ar
   169    95    96   ar
   170   113   115   ar
   171   122   124   ar
   172   145   147   ar
   173   162   163    1
   174   163   164    1
   175   165   163    1
   176   166   162    1
   177   167   166    1
   178   168   166    1
   179   169   163    1
   180   170   169    1
   181   171   169    1
   182   172   166    1
   183   173   172    1
   184   174   172    1
   185   169   172    1
@<TRIPOS>SUBSTRUCTURE
     1 RES1        1 GROUP             0 ****  ****    0  
     2 RES2      162 GROUP             0 ****  ****    0  
@<TRIPOS>CRYSIN
   14.8112   31.7950   16.8180   90.0000  104.9430   90.0000    15     1
