@<TRIPOS>MOLECULE
AROLID
   124   132     4     0     0
SMALL
USER_CHARGES
****
Generated from the CSD

@<TRIPOS>ATOM
     1 Fe1      5.3458  11.1152   1.7239   Fe        1 RES1   1.0000
     2 C1       7.3535  13.2666   1.6087   C.2       1 RES1   0.0000
     3 C2       8.2214  11.2332   1.1740   C.2       1 RES1   0.0000
     4 C3       9.3152  12.1973   1.1205   C.2       1 RES1   0.0000
     5 H1      10.2254  12.0030   0.9753   H         1 RES1   0.0000
     6 C4       8.7744  13.4281   1.3192   C.2       1 RES1   0.0000
     7 H2       9.2362  14.2448   1.2765   H         1 RES1   0.0000
     8 C5       5.3499  13.8060   2.9119   C.2       1 RES1   0.0000
     9 C6       6.4536  14.2073   2.1396   C.2       1 RES1   0.0000
    10 C7       3.9295  13.7288   4.6232   C.2       1 RES1   0.0000
    11 H3       3.4344  13.9417   5.3944   H         1 RES1   0.0000
    12 C8       4.7023  14.5712   3.9406   C.2       1 RES1   0.0000
    13 H4       4.8038  15.4920   4.1019   H         1 RES1   0.0000
    14 C9       3.9731  12.4266   3.9780   C.2       1 RES1   0.0000
    15 C10      3.0702  11.3420   4.1606   C.2       1 RES1   0.0000
    16 C11      2.9393   9.5273   1.0629   C.2       1 RES1   0.0000
    17 C12      1.6874   9.1517   1.6504   C.2       1 RES1   0.0000
    18 H5       1.0152   8.6451   1.2338   H         1 RES1   0.0000
    19 C13      2.8503  10.4540   3.1138   C.2       1 RES1   0.0000
    20 C14      1.6433   9.6502   2.9034   C.2       1 RES1   0.0000
    21 H6       0.9590   9.5074   3.5315   H         1 RES1   0.0000
    22 C15      3.5407   8.9751  -0.0748   C.2       1 RES1   0.0000
    23 C16      4.9408   8.9903  -0.2777   C.2       1 RES1   0.0000
    24 C17      7.1021   9.2535   0.2468   C.2       1 RES1   0.0000
    25 C18      5.6989   8.0730  -1.0757   C.2       1 RES1   0.0000
    26 H7       5.3568   7.4868  -1.7273   H         1 RES1   0.0000
    27 C19      7.0070   8.2076  -0.7146   C.2       1 RES1   0.0000
    28 H8       7.7242   7.6963  -1.0436   H         1 RES1   0.0000
    29 C20      8.2801   9.9251   0.7200   C.2       1 RES1   0.0000
    30 C21      6.7405  15.7154   2.0424   C.3       1 RES1   0.0000
    31 H9       5.9011  16.1542   2.3308   H         1 RES1   0.0000
    32 C22      7.8162  16.2045   3.0486   C.3       1 RES1   0.0000
    33 H10      8.6832  15.8594   2.7869   H         1 RES1   0.0000
    34 H11      7.5946  15.8851   3.9385   H         1 RES1   0.0000
    35 H12      7.8408  17.1744   3.0508   H         1 RES1   0.0000
    36 C23      6.9466  16.1647   0.6260   C.3       1 RES1   0.0000
    37 H13      7.6939  15.6839   0.2393   H         1 RES1   0.0000
    38 H14      7.1323  17.1171   0.6131   H         1 RES1   0.0000
    39 H15      6.1474  15.9845   0.1100   H         1 RES1   0.0000
    40 C24      2.2321  11.2355   5.4147   C.3       1 RES1   0.0000
    41 H16      1.8274  10.3311   5.3965   H         1 RES1   0.0000
    42 C25      3.0845  11.2905   6.6848   C.3       1 RES1   0.0000
    43 H17      3.7022  10.5440   6.6901   H         1 RES1   0.0000
    44 H18      2.5056  11.2379   7.4624   H         1 RES1   0.0000
    45 H19      3.5813  12.1235   6.7051   H         1 RES1   0.0000
    46 C26      2.7320   8.1479  -1.0661   C.3       1 RES1   0.0000
    47 H20      3.2918   8.0730  -1.8790   H         1 RES1   0.0000
    48 C27      9.6755   9.2781   0.5736   C.3       1 RES1   0.0000
    49 H21     10.2946   9.8186   1.1270   H         1 RES1   0.0000
    50 C28     10.2250   9.3237  -0.8642   C.3       1 RES1   0.0000
    51 H22     11.1024   8.9131  -0.8877   H         1 RES1   0.0000
    52 H23     10.2902  10.2469  -1.1547   H         1 RES1   0.0000
    53 H24      9.6250   8.8417  -1.4549   H         1 RES1   0.0000
    54 C29      9.7014   7.8495   1.1590   C.3       1 RES1   0.0000
    55 H25      9.0850   7.2868   0.6666   H         1 RES1   0.0000
    56 H26      9.4392   7.8788   2.0926   H         1 RES1   0.0000
    57 H27     10.5970   7.4868   1.0874   H         1 RES1   0.0000
    58 C30      5.8545   8.6919   3.5753   C.2       1 RES1   0.0000
    59 C31      7.1310   9.3998   5.2438   C.ar      1 RES1   0.0000
    60 C32      6.8783  10.4504   4.3551   C.ar      1 RES1   0.0000
    61 C33      7.8926   9.5378   6.4135   C.ar      1 RES1   0.0000
    62 H28      8.0309   8.8195   7.0042   H         1 RES1   0.0000
    63 C34      8.4335  10.7956   6.6517   C.ar      1 RES1   0.0000
    64 H29      8.9510  10.9442   7.4229   H         1 RES1   0.0000
    65 C35      7.4585  11.7199   4.6371   C.ar      1 RES1   0.0000
    66 H30      7.3181  12.4500   4.0624   H         1 RES1   0.0000
    67 C36      8.2110  11.8521   5.7394   C.ar      1 RES1   0.0000
    68 H31      8.6098  12.6863   5.9146   H         1 RES1   0.0000
    69 C37      5.0933   7.6787   2.8030   C.3       1 RES1   0.0000
    70 H32      5.4475   7.6249   1.9025   H         1 RES1   0.0000
    71 H33      4.1602   7.9361   2.7666   H         1 RES1   0.0000
    72 H34      5.1754   6.8141   3.2345   H         1 RES1   0.0000
    73 C38      5.2440  12.6489  -0.9187   C.2       1 RES1   0.0000
    74 C39      3.4335  13.9277  -0.8674   C.ar      1 RES1   0.0000
    75 C40      3.4309  13.0946   0.2126   C.ar      1 RES1   0.0000
    76 C41      2.3725  13.1531   1.1366   C.ar      1 RES1   0.0000
    77 H35      2.3414  12.5951   1.8929   H         1 RES1   0.0000
    78 C42      1.3794  14.0821   0.8674   C.ar      1 RES1   0.0000
    79 H36      0.6523  14.1453   1.4592   H         1 RES1   0.0000
    80 C43      1.4083  14.9163  -0.2275   C.ar      1 RES1   0.0000
    81 H37      0.7171  15.5458  -0.3376   H         1 RES1   0.0000
    82 N1       7.0731  11.9118   1.4944   N.2       1 RES1   0.0000
    83 N2       4.8522  12.4991   2.9440   N.2       1 RES1   0.0000
    84 N3       3.6076  10.3241   1.9804   N.2       1 RES1   0.0000
    85 N4       5.8251   9.7379   0.4978   N.2       1 RES1   0.0000
    86 N5       6.4601   8.3199   4.7108   N.pl3     1 RES1   0.0000
    87 H38      6.4325   7.5219   5.0569   H         1 RES1   0.0000
    88 N6       6.0800  10.0070   3.3029   N.2       1 RES1   0.0000
    89 N7       4.6172  12.2862   0.1730   N.2       1 RES1   0.0000
    90 N8       4.5840  13.6375  -1.6034   N.pl3     1 RES1   0.0000
    91 H39      4.8341  14.0096  -2.3490   H         1 RES1   0.0000
    92 C44      6.4895  12.1072  -1.5478   C.3       1 RES1   0.0000
    93 H40      7.2576  12.3505  -1.0073   H         1 RES1   0.0000
    94 H41      6.5923  12.4781  -2.4376   H         1 RES1   0.0000
    95 H42      6.4282  11.1407  -1.6044   H         1 RES1   0.0000
    96 C45      1.4144   8.7937  -1.5168   C.3       1 RES1   0.0000
    97 H43      0.7819   8.7820  -0.7830   H         1 RES1   0.0000
    98 H44      1.0498   8.2953  -2.2657   H         1 RES1   0.0000
    99 H45      1.5811   9.7098  -1.7882   H         1 RES1   0.0000
   100 C46      2.5043   6.6912  -0.5629   C.3       1 RES1   0.0000
   101 H46      3.3610   6.2700  -0.3910   H         1 RES1   0.0000
   102 H47      2.0261   6.1858  -1.2391   H         1 RES1   0.0000
   103 H48      1.9829   6.7088   0.2553   H         1 RES1   0.0000
   104 C47      1.0757  12.2031   5.4916   C.3       1 RES1   0.0000
   105 H49      1.3910  13.0607   5.8131   H         1 RES1   0.0000
   106 H50      0.4061  11.8568   6.1016   H         1 RES1   0.0000
   107 H51      0.6869  12.3107   4.6104   H         1 RES1   0.0000
   108 C48      2.4114  14.8590  -1.1654   C.ar      1 RES1   0.0000
   109 H52      2.4192  15.3937  -1.9377   H         1 RES1   0.0000
   110 Cl1      5.7737   5.0613   6.9647   Cl        2 RES2   0.0000
   111 O1       6.1849   3.6867   6.9807   O.3       2 RES2  -1.0000
   112 O2       5.6121   5.5364   5.6529   O.2       2 RES2   0.0000
   113 O3       6.7548   5.8523   7.6537   O.2       2 RES2   0.0000
   114 O4       4.5153   5.2241   7.6868   O.2       2 RES2   0.0000
   115 C49      2.2481   5.8009   5.3228   C.3       3 RES3   0.0000
   116 H53      3.0931   5.3071   5.4703   H         3 RES3   0.0000
   117 Cl2      1.0718   5.1971   6.4722   Cl        3 RES3   0.0000
   118 Cl3      2.5548   7.5015   5.6689   Cl        3 RES3   0.0000
   119 Cl4      1.7798   5.5540   3.7034   Cl        3 RES3   0.0000
   120 C50      9.3182   4.1301   7.9399   C.3       4 RES4   0.0000
   121 H54      8.3290   4.1792   7.9527   H         4 RES4   0.0000
   122 Cl5      9.9904   5.4743   8.8789   Cl        4 RES4   0.0000
   123 Cl6      9.8764   4.1921   6.3034   Cl        4 RES4   0.0000
   124 Cl7      9.8492   2.5927   8.6930   Cl        4 RES4   0.0000
@<TRIPOS>BOND
     1     1    82    1
     2     2     6    1
     3     3     4    1
     4     4     5    1
     5     6     4    2
     6     7     6    1
     7     8     9    2
     8     9     2    1
     9    10    11    1
    10    12     8    1
    11    13    12    1
    12    14    10    1
    13    15    14    2
    14    16    17    1
    15    17    18    1
    16    19    15    1
    17    20    17    2
    18    21    20    1
    19    22    16    2
    20    23    22    1
    21    24    27    2
    22    25    23    2
    23    26    25    1
    24    27    25    1
    25    28    27    1
    26    29     3    2
    27    30     9    1
    28    31    30    1
    29    32    30    1
    30    33    32    1
    31    34    32    1
    32    35    32    1
    33    36    30    1
    34    37    36    1
    35    38    36    1
    36    39    36    1
    37    40    15    1
    38    41    40    1
    39    42    40    1
    40    43    42    1
    41    44    42    1
    42    45    42    1
    43    46    22    1
    44    47    46    1
    45    48    29    1
    46    49    48    1
    47    50    48    1
    48    51    50    1
    49    52    50    1
    50    53    50    1
    51    54    48    1
    52    55    54    1
    53    56    54    1
    54    57    54    1
    55    58    69    1
    56    59    60   ar
    57    60    65   ar
    58    61    59   ar
    59    62    61    1
    60    63    61   ar
    61    64    63    1
    62    65    66    1
    63    67    63   ar
    64    68    67    1
    65    69    70    1
    66    71    69    1
    67    72    69    1
    68    73    89    2
    69    74    75   ar
    70    75    76   ar
    71    76    77    1
    72    78    76   ar
    73    79    78    1
    74    80    78   ar
    75    81    80    1
    76    82     2    2
    77    83     1    1
    78    84     1    1
    79    85     1    1
    80    86    58    1
    81    87    86    1
    82    88     1    1
    83    89     1    1
    84    90    73    1
    85    91    90    1
    86    92    73    1
    87    93    92    1
    88    94    92    1
    89    95    92    1
    90    96    46    1
    91    97    96    1
    92    98    96    1
    93    99    96    1
    94   100    46    1
    95   101   100    1
    96   102   100    1
    97   103   100    1
    98   104    40    1
    99   105   104    1
   100   106   104    1
   101   107   104    1
   102   108    74   ar
   103   109   108    1
   104     3    82    1
   105     8    83    1
   106    10    12    2
   107    14    83    1
   108    16    84    1
   109    19    20    1
   110    19    84    2
   111    23    85    1
   112    24    29    1
   113    24    85    1
   114    58    88    2
   115    59    86    1
   116    60    88    1
   117    65    67   ar
   118    74    90    1
   119    75    89    1
   120    80   108   ar
   121   110   111    1
   122   112   110    2
   123   113   110    2
   124   114   110    2
   125   115   116    1
   126   117   115    1
   127   118   115    1
   128   119   115    1
   129   120   121    1
   130   122   120    1
   131   123   120    1
   132   124   120    1
@<TRIPOS>SUBSTRUCTURE
     1 RES1        1 GROUP             0 ****  ****    0  
     2 RES2      110 GROUP             0 ****  ****    0  
     3 RES3      115 GROUP             0 ****  ****    0  
     4 RES4      120 GROUP             0 ****  ****    0  
@<TRIPOS>CRYSIN
   43.2000   11.7000   10.6820   90.0000   90.0000   90.0000    29     1
