@<TRIPOS>MOLECULE
AROTAE
   221   229     3     0     0
SMALL
USER_CHARGES
****
Generated from the CSD

@<TRIPOS>ATOM
     1 Fe1      4.1984  13.4176   4.5456   Fe        1 RES1   1.0000
     2 P1       4.4890  15.5453   4.1315   P.3       1 RES1   0.0000
     3 P2      -1.7505  12.1318   3.0060   P.3       1 RES1   1.0000
     4 P3       4.6477  11.2823   4.8165   P.3       1 RES1   0.0000
     5 P4       2.4198   9.2054  -0.8671   P.3       1 RES1   1.0000
     6 N1       4.5542  13.1015   2.5923   N.3       1 RES1   0.0000
     7 O1       3.1601  13.9373   7.2009   O.2       1 RES1   0.0000
     8 C1      -0.0558  12.5325   2.4569   C.3       1 RES1   0.0000
     9 H1      -0.0297  12.5122   1.4678   H         1 RES1   0.0000
    10 H2       0.1608  13.4548   2.7431   H         1 RES1   0.0000
    11 N2       2.3355  11.7197   2.3827   N.3       1 RES1   0.0000
    12 C2       3.6044  13.7060   6.1472   C.1       1 RES1   0.0000
    13 C3       3.3296  10.0483   5.2133   C.3       1 RES1   0.0000
    14 H3       2.6928  10.0945   4.4435   H         1 RES1   0.0000
    15 C4       5.0998  14.2558   1.8109   C.3       1 RES1   0.0000
    16 H4       4.8439  14.1477   0.8619   H         1 RES1   0.0000
    17 H5       6.0881  14.2350   1.8594   H         1 RES1   0.0000
    18 C5      -1.9751  12.8494   4.6811   C.3       1 RES1   0.0000
    19 H6      -2.9337  12.7082   4.9288   H         1 RES1   0.0000
    20 C6       6.1028  10.8496   5.8861   C.3       1 RES1   0.0000
    21 H7       6.1233   9.8559   5.9916   H         1 RES1   0.0000
    22 C7       1.0201  11.5838   2.9958   C.3       1 RES1   0.0000
    23 H8       1.1114  11.7359   3.9698   H         1 RES1   0.0000
    24 H9       0.7104  10.6525   2.8686   H         1 RES1   0.0000
    25 C8       1.9444   9.8907   0.7665   C.3       1 RES1   0.0000
    26 H10      0.9633   9.8178   0.8686   H         1 RES1   0.0000
    27 H11      2.3636   9.3426   1.4761   H         1 RES1   0.0000
    28 C9       5.1006  10.7164   3.1263   C.3       1 RES1   0.0000
    29 H12      5.8907  10.1209   3.1698   H         1 RES1   0.0000
    30 H13      4.3502  10.2073   2.7280   H         1 RES1   0.0000
    31 C10      8.5581  16.4796   4.6694   C.3       1 RES1   0.0000
    32 H14      9.3593  16.0903   4.2393   H         1 RES1   0.0000
    33 H15      8.5384  17.4478   4.4602   H         1 RES1   0.0000
    34 C11     -2.8312  13.1338   1.8996   C.3       1 RES1   0.0000
    35 H16     -2.4729  14.0673   1.8828   H         1 RES1   0.0000
    36 C12     -1.1334  12.0987   5.7204   C.3       1 RES1   0.0000
    37 H17     -1.3562  11.1346   5.6903   H         1 RES1   0.0000
    38 H18     -0.1738  12.1985   5.5012   H         1 RES1   0.0000
    39 C13      0.6942  17.2451   4.7029   C.3       1 RES1   0.0000
    40 H19     -0.1979  16.8857   4.4652   H         1 RES1   0.0000
    41 H20      0.7196  17.3716   5.6853   H         1 RES1   0.0000
    42 C14      1.7723  16.2426   4.2928   C.3       1 RES1   0.0000
    43 H21      1.6702  16.0294   3.3305   H         1 RES1   0.0000
    44 H22      1.6503  15.4045   4.8050   H         1 RES1   0.0000
    45 C15     -0.1395   8.0909  -1.3607   C.3       1 RES1   0.0000
    46 H23      0.2751   7.1931  -1.3941   H         1 RES1   0.0000
    47 H24     -0.3832   8.2805  -0.4201   H         1 RES1   0.0000
    48 C16     -1.9550  14.8720   6.1941   C.3       1 RES1   0.0000
    49 H25     -1.7281  15.8360   6.2275   H         1 RES1   0.0000
    50 H26     -2.9128  14.7745   6.4250   H         1 RES1   0.0000
    51 C17      5.4131  11.9284   2.2728   C.3       1 RES1   0.0000
    52 H27      6.3613  12.1785   2.4050   H         1 RES1   0.0000
    53 H28      5.2923  11.6912   1.3188   H         1 RES1   0.0000
    54 C18      0.2202  10.5252  -1.8828   C.3       1 RES1   0.0000
    55 H29      0.0013  10.8132  -0.9623   H         1 RES1   0.0000
    56 H30      0.8612  11.1768  -2.2644   H         1 RES1   0.0000
    57 C19      0.8682   9.1329  -1.8427   C.3       1 RES1   0.0000
    58 H31      1.1187   8.8946  -2.7816   H         1 RES1   0.0000
    59 C20     -1.1217  14.1281   7.1966   C.3       1 RES1   0.0000
    60 H32     -1.3274  14.4594   8.1070   H         1 RES1   0.0000
    61 H33     -0.1634  14.2972   7.0192   H         1 RES1   0.0000
    62 C21      3.1881  16.7937   4.5439   C.3       1 RES1   0.0000
    63 H34      3.2586  16.9659   5.5263   H         1 RES1   0.0000
    64 C22      7.4322  11.2880   5.2585   C.3       1 RES1   0.0000
    65 H35      7.5427  10.8411   4.3832   H         1 RES1   0.0000
    66 H36      7.4162  12.2643   5.1045   H         1 RES1   0.0000
    67 C23     -2.7898  12.5799   0.4619   C.3       1 RES1   0.0000
    68 H37     -1.8593  12.6094   0.1238   H         1 RES1   0.0000
    69 H38     -3.0836  11.6341   0.4653   H         1 RES1   0.0000
    70 C24      7.2988  15.8107   4.1071   C.3       1 RES1   0.0000
    71 H39      7.3609  14.8327   4.2426   H         1 RES1   0.0000
    72 H40      7.2482  15.9793   3.1313   H         1 RES1   0.0000
    73 C25      6.0243  16.3371   4.7799   C.3       1 RES1   0.0000
    74 H41      5.9633  17.3161   4.5841   H         1 RES1   0.0000
    75 C26      4.1460   7.4340   0.4218   C.3       1 RES1   0.0000
    76 H42      4.9113   7.8586  -0.0418   H         1 RES1   0.0000
    77 H43      3.9679   7.9441   1.2519   H         1 RES1   0.0000
    78 C27      7.1625  11.1604   8.1823   C.3       1 RES1   0.0000
    79 H44      7.0596  11.6299   9.0476   H         1 RES1   0.0000
    80 H45      7.1933  10.1881   8.3648   H         1 RES1   0.0000
    81 C28      2.3514  11.3539   0.9690   C.3       1 RES1   0.0000
    82 H46      3.2624  11.4941   0.6025   H         1 RES1   0.0000
    83 H47      1.7296  11.9396   0.4703   H         1 RES1   0.0000
    84 C29     -5.1172  13.4399   0.0402   C.3       1 RES1   0.0000
    85 H48     -5.5013  12.5272   0.0335   H         1 RES1   0.0000
    86 H49     -5.6684  14.0099  -0.5540   H         1 RES1   0.0000
    87 C30      1.6631   7.9939   6.5104   C.3       1 RES1   0.0000
    88 H50      0.8518   7.4281   6.4819   H         1 RES1   0.0000
    89 H51      2.1515   7.7859   7.3472   H         1 RES1   0.0000
    90 C31      2.4807  10.3860   6.4518   C.3       1 RES1   0.0000
    91 H52      2.1817  11.3287   6.4050   H         1 RES1   0.0000
    92 H53      3.0256  10.2748   7.2702   H         1 RES1   0.0000
    93 C32      3.3779  18.1455   3.8460   C.3       1 RES1   0.0000
    94 H54      3.3333  18.0218   2.8652   H         1 RES1   0.0000
    95 H55      4.2698  18.5131   4.0702   H         1 RES1   0.0000
    96 C33      2.2815  19.1366   4.2945   C.3       1 RES1   0.0000
    97 H56      2.3752  19.3141   5.2635   H         1 RES1   0.0000
    98 H57      2.3973  19.9933   3.8125   H         1 RES1   0.0000
    99 C34      3.5466   5.2215  -1.4008   C.3       1 RES1   0.0000
   100 H58      2.7717   4.7800  -0.9707   H         1 RES1   0.0000
   101 H59      3.7587   4.7246  -2.2309   H         1 RES1   0.0000
   102 C35      6.1201  16.1747   6.3096   C.3       1 RES1   0.0000
   103 H60      5.3292  16.5970   6.7313   H         1 RES1   0.0000
   104 H61      6.1091  15.2112   6.5372   H         1 RES1   0.0000
   105 C36     -1.0597  10.5149  -2.7314   C.3       1 RES1   0.0000
   106 H62     -1.4884  11.4062  -2.6895   H         1 RES1   0.0000
   107 H63     -0.8255  10.3328  -3.6753   H         1 RES1   0.0000
   108 C37      1.2563   9.4568   6.5154   C.3       1 RES1   0.0000
   109 H64      0.7402   9.6498   7.3372   H         1 RES1   0.0000
   110 H65      0.6702   9.6359   5.7372   H         1 RES1   0.0000
   111 C38      4.6141  15.6120   2.2979   C.3       1 RES1   0.0000
   112 H66      3.7300  15.8189   1.9029   H         1 RES1   0.0000
   113 H67      5.2510  16.3197   2.0251   H         1 RES1   0.0000
   114 C39     -4.2774  13.1901   2.4083   C.3       1 RES1   0.0000
   115 H68     -4.6348  12.2702   2.4870   H         1 RES1   0.0000
   116 H69     -4.2958  13.6061   3.3054   H         1 RES1   0.0000
   117 C40      5.9549  11.4721   7.2886   C.3       1 RES1   0.0000
   118 H70      5.8586  12.4543   7.2016   H         1 RES1   0.0000
   119 H71      5.1340  11.1234   7.7154   H         1 RES1   0.0000
   120 C41     -1.4035   8.0960  -2.2209   C.3       1 RES1   0.0000
   121 H72     -1.1726   7.8259  -3.1447   H         1 RES1   0.0000
   122 H73     -2.0491   7.4371  -1.8611   H         1 RES1   0.0000
   123 C42      4.5049   5.9884   0.7799   C.3       1 RES1   0.0000
   124 H74      5.3216   5.9824   1.3406   H         1 RES1   0.0000
   125 H75      3.7693   5.5877   1.3054   H         1 RES1   0.0000
   126 C43      3.1700   6.6613  -1.7607   C.3       1 RES1   0.0000
   127 H76      2.3579   6.6589  -2.3280   H         1 RES1   0.0000
   128 H77      3.9055   7.0776  -2.2761   H         1 RES1   0.0000
   129 C44      0.8977  18.5858   4.0167   C.3       1 RES1   0.0000
   130 H78      0.7760  18.4780   3.0393   H         1 RES1   0.0000
   131 H79      0.2162  19.2278   4.3397   H         1 RES1   0.0000
   132 C45      2.9053   7.4804  -0.4854   C.3       1 RES1   0.0000
   133 H80      2.1479   7.0482   0.0050   H         1 RES1   0.0000
   134 C46      3.7791   8.5904   5.2669   C.3       1 RES1   0.0000
   135 H81      4.3402   8.4435   6.0686   H         1 RES1   0.0000
   136 H82      4.3205   8.3797   4.4669   H         1 RES1   0.0000
   137 C47     -1.7178  14.3425   4.7648   C.3       1 RES1   0.0000
   138 H83     -2.3173  14.8147   4.1355   H         1 RES1   0.0000
   139 H84     -0.7829  14.5293   4.4953   H         1 RES1   0.0000
   140 C48      7.3911  16.8111   6.8736   C.3       1 RES1   0.0000
   141 H85      7.3440  17.7936   6.7598   H         1 RES1   0.0000
   142 H86      7.4497  16.6195   7.8426   H         1 RES1   0.0000
   143 C49      8.6177  10.9377   6.1573   C.3       1 RES1   0.0000
   144 H87      8.6752   9.9556   6.2644   H         1 RES1   0.0000
   145 H88      9.4577  11.2507   5.7355   H         1 RES1   0.0000
   146 C50     -1.3905  12.6353   7.1330   C.3       1 RES1   0.0000
   147 H89     -2.3301  12.4582   7.3874   H         1 RES1   0.0000
   148 H90     -0.8027  12.1664   7.7773   H         1 RES1   0.0000
   149 C51      2.5479   7.6634   5.3188   C.3       1 RES1   0.0000
   150 H91      2.0244   7.7639   4.4836   H         1 RES1   0.0000
   151 H92      2.8470   6.7225   5.3824   H         1 RES1   0.0000
   152 C52      4.7432   5.1568  -0.4619   C.3       1 RES1   0.0000
   153 H93      4.9077   4.2161  -0.2008   H         1 RES1   0.0000
   154 H94      5.5492   5.4891  -0.9305   H         1 RES1   0.0000
   155 C53     -5.1530  13.9955   1.4544   C.3       1 RES1   0.0000
   156 H95     -6.0861  13.9885   1.7841   H         1 RES1   0.0000
   157 H96     -4.8419  14.9360   1.4410   H         1 RES1   0.0000
   158 B1       3.0142  13.0388   2.6510   B         1 RES1  -1.0000
   159 H97      2.5441  13.8398   2.2778   H         1 RES1   0.0000
   160 B2       3.8070  10.1868  -1.7908   B         1 RES1  -1.0000
   161 C54     -3.6981  13.3944  -0.4753   C.3       1 RES1   0.0000
   162 H98     -3.3469  14.3171  -0.5523   H         1 RES1   0.0000
   163 H99     -3.6891  12.9876  -1.3774   H         1 RES1   0.0000
   164 C55      8.6452  16.2861   6.1807   C.3       1 RES1   0.0000
   165 H100     8.7549  15.3242   6.3849   H         1 RES1   0.0000
   166 H101     9.4394  16.7647   6.5288   H         1 RES1   0.0000
   167 C56      8.4649  11.5902   7.5280   C.3       1 RES1   0.0000
   168 H102     9.2258  11.3316   8.1054   H         1 RES1   0.0000
   169 H103     8.4753  12.5762   7.4275   H         1 RES1   0.0000
   170 B3      -2.1364  10.2414   2.9255   B         1 RES1  -1.0000
   171 C57     -2.0402   9.4591  -2.2410   C.3       1 RES1   0.0000
   172 H104    -2.3470   9.6933  -1.3305   H         1 RES1   0.0000
   173 H105    -2.8312   9.4439  -2.8368   H         1 RES1   0.0000
   174 H106    -1.9217   9.8800   1.8242   H         1 RES1   0.0000
   175 H107     3.4130  11.2181  -1.9749   H         1 RES1   0.0000
   176 H108     5.6092  13.4999   4.9204   H         1 RES1   0.0000
   177 H109     2.8645  13.3203   3.8493   H         1 RES1   0.0000
   178 H110    -3.1255  10.0827   3.2134   H         1 RES1   0.0000
   179 H111    -1.5053   9.6163   3.5983   H         1 RES1   0.0000
   180 H112     3.9423   9.6783  -2.7113   H         1 RES1   0.0000
   181 H113     4.7464  10.2219  -1.1381   H         1 RES1   0.0000
   182 C58     11.8349   9.2507   8.7095   C.3       2 RES2   0.0000
   183 H114    12.7974   9.0217   8.7480   H         2 RES2   0.0000
   184 H115    11.7562  10.1520   8.3095   H         2 RES2   0.0000
   185 C59     10.7506   5.9025   5.7757   C.3       2 RES2   0.0000
   186 H116    10.2693   5.4210   5.0694   H         2 RES2   0.0000
   187 H117    10.2874   5.7787   6.6292   H         2 RES2   0.0000
   188 H118    11.6638   5.5509   5.8443   H         2 RES2   0.0000
   189 C60     11.1318   8.2527   7.8074   C.3       2 RES2   0.0000
   190 H119    10.1664   8.4748   7.7840   H         2 RES2   0.0000
   191 H120    11.2207   7.3515   8.2058   H         2 RES2   0.0000
   192 C61     11.3050   9.2984  10.0869   C.3       2 RES2   0.0000
   193 H121    10.3456   9.4986  10.0618   H         2 RES2   0.0000
   194 H122    11.7709   9.9959  10.5940   H         2 RES2   0.0000
   195 H123    11.4441   8.4301  10.5221   H         2 RES2   0.0000
   196 C62     10.8013   7.3792   5.4359   C.3       2 RES2   0.0000
   197 H124     9.8787   7.7390   5.4443   H         2 RES2   0.0000
   198 H125    11.1541   7.4823   4.5171   H         2 RES2   0.0000
   199 C63     11.6532   8.2082   6.3815   C.3       2 RES2   0.0000
   200 H126    11.7085   9.1327   6.0317   H         2 RES2   0.0000
   201 H127    12.5720   7.8371   6.3899   H         2 RES2   0.0000
   202 C64      5.4688   6.1841   8.0903   C.3       3 RES3   0.0000
   203 H128     4.6605   6.2930   7.5296   H         3 RES3   0.0000
   204 H129     5.2422   5.5580   8.8233   H         3 RES3   0.0000
   205 C65      6.6719   5.4982   7.1598   C.3       3 RES3   0.0000
   206 H130     7.4814   5.3460   7.7087   H         3 RES3   0.0000
   207 H131     6.3697   4.6278   6.7999   H         3 RES3   0.0000
   208 C66      6.9747   6.4112   6.0686   C.3       3 RES3   0.0000
   209 H132     6.1717   6.5456   5.5230   H         3 RES3   0.0000
   210 H133     7.6858   6.0302   5.5112   H         3 RES3   0.0000
   211 H134     7.2694   7.2710   6.4334   H         3 RES3   0.0000
   212 C64A     5.7942   7.4211   8.6459   C.3       3 RES3   0.0000
   213 H128A    6.6025   7.3122   9.2066   H         3 RES3   0.0000
   214 H129A    6.0208   8.0472   7.9129   H         3 RES3   0.0000
   215 C65A     4.5911   8.1069   9.5765   C.3       3 RES3   0.0000
   216 H130A    3.7815   8.2592   9.0275   H         3 RES3   0.0000
   217 H131A    4.8933   8.9774   9.9363   H         3 RES3   0.0000
   218 C66A     4.2883   7.1940  10.6677   C.3       3 RES3   0.0000
   219 H132A    5.0912   7.0596  11.2133   H         3 RES3   0.0000
   220 H133A    3.5772   7.5750  11.2250   H         3 RES3   0.0000
   221 H134A    3.9936   6.3342  10.3028   H         3 RES3   0.0000
@<TRIPOS>BOND
     1     1     2    1
     2     2    62    1
     3     3     8    1
     4     4     1    1
     5     5    25    1
     6     6     1    1
     7     7    12    3
     8     8     9    1
     9    10     8    1
    10    11    22    1
    11    12     1    1
    12    13     4    1
    13    14    13    1
    14    15     6    1
    15    16    15    1
    16    17    15    1
    17    18     3    1
    18    19    18    1
    19    20     4    1
    20    21    20    1
    21    22     8    1
    22    23    22    1
    23    24    22    1
    24    25    26    1
    25    27    25    1
    26    28     4    1
    27    29    28    1
    28    30    28    1
    29    31    32    1
    30    33    31    1
    31    34     3    1
    32    35    34    1
    33    36    18    1
    34    37    36    1
    35    38    36    1
    36    39    40    1
    37    41    39    1
    38    42    39    1
    39    43    42    1
    40    44    42    1
    41    45    46    1
    42    47    45    1
    43    48    49    1
    44    50    48    1
    45    51     6    1
    46    52    51    1
    47    53    51    1
    48    54    55    1
    49    56    54    1
    50    57     5    1
    51    58    57    1
    52    59    48    1
    53    60    59    1
    54    61    59    1
    55    62    42    1
    56    63    62    1
    57    64    20    1
    58    65    64    1
    59    66    64    1
    60    67    34    1
    61    68    67    1
    62    69    67    1
    63    70    31    1
    64    71    70    1
    65    72    70    1
    66    73     2    1
    67    74    73    1
    68    75    76    1
    69    77    75    1
    70    78    79    1
    71    80    78    1
    72    81    11    1
    73    82    81    1
    74    83    81    1
    75    84    85    1
    76    86    84    1
    77    87    88    1
    78    89    87    1
    79    90    13    1
    80    91    90    1
    81    92    90    1
    82    93    62    1
    83    94    93    1
    84    95    93    1
    85    96    93    1
    86    97    96    1
    87    98    96    1
    88    99   100    1
    89   101    99    1
    90   102    73    1
    91   103   102    1
    92   104   102    1
    93   105    54    1
    94   106   105    1
    95   107   105    1
    96   108    87    1
    97   109   108    1
    98   110   108    1
    99   111     2    1
   100   112   111    1
   101   113   111    1
   102   114    34    1
   103   115   114    1
   104   116   114    1
   105   117    20    1
   106   118   117    1
   107   119   117    1
   108   120    45    1
   109   121   120    1
   110   122   120    1
   111   123    75    1
   112   124   123    1
   113   125   123    1
   114   126    99    1
   115   127   126    1
   116   128   126    1
   117   129    39    1
   118   130   129    1
   119   131   129    1
   120   132     5    1
   121   133   132    1
   122   134    13    1
   123   135   134    1
   124   136   134    1
   125   137    18    1
   126   138   137    1
   127   139   137    1
   128   140   102    1
   129   141   140    1
   130   142   140    1
   131   143    64    1
   132   144   143    1
   133   145   143    1
   134   146    36    1
   135   147   146    1
   136   148   146    1
   137   149    87    1
   138   150   149    1
   139   151   149    1
   140   152    99    1
   141   153   152    1
   142   154   152    1
   143   155    84    1
   144   156   155    1
   145   157   155    1
   146   158     6    1
   147   159   158    1
   148   160     5    1
   149   161    67    1
   150   162   161    1
   151   163   161    1
   152   164    31    1
   153   165   164    1
   154   166   164    1
   155   167    78    1
   156   168   167    1
   157   169   167    1
   158   170     3    1
   159   171   105    1
   160   172   171    1
   161   173   171    1
   162   174   170    1
   163   175   160    1
   164   176     1    1
   165   177     1    1
   166   178   170    1
   167   179   170    1
   168   180   160    1
   169   181   160    1
   170    11   158    1
   171    15   111    1
   172    25    81    1
   173    28    51    1
   174    45    57    1
   175    48   137    1
   176    54    57    1
   177    59   146    1
   178    70    73    1
   179    75   132    1
   180    78   117    1
   181    84   161    1
   182    90   108    1
   183    96   129    1
   184   114   155    1
   185   120   171    1
   186   123   152    1
   187   126   132    1
   188   134   149    1
   189   140   164    1
   190   143   167    1
   191   158   177    1
   192   182   183    1
   193   184   182    1
   194   185   186    1
   195   187   185    1
   196   188   185    1
   197   189   182    1
   198   190   189    1
   199   191   189    1
   200   192   182    1
   201   193   192    1
   202   194   192    1
   203   195   192    1
   204   196   185    1
   205   197   196    1
   206   198   196    1
   207   199   189    1
   208   200   199    1
   209   201   199    1
   210   196   199    1
   211   202   203    1
   212   204   202    1
   213   205   202    1
   214   206   205    1
   215   207   205    1
   216   208   205    1
   217   209   208    1
   218   210   208    1
   219   211   208    1
   220   212   202    1
   221   213   212    1
   222   214   212    1
   223   215   212    1
   224   216   215    1
   225   217   215    1
   226   218   215    1
   227   219   218    1
   228   220   218    1
   229   221   218    1
@<TRIPOS>SUBSTRUCTURE
     1 RES1        1 GROUP             0 ****  ****    0  
     2 RES2      182 GROUP             0 ****  ****    0  
     3 RES3      202 GROUP             0 ****  ****    0  
@<TRIPOS>CRYSIN
   14.3700   14.8540   16.8030   93.2300   93.4600   98.1000     2     1
