@<TRIPOS>MOLECULE
ASOHEY
   139   147     1     0     0
SMALL
NO_CHARGES
****
Generated from the CSD

@<TRIPOS>ATOM
     1 Fe1      5.5838   4.6657  11.8474   Fe        1 RES1   0.0000
     2 O1       5.7116   4.4828  13.8358   O.2       1 RES1   0.0000
     3 C1       5.5162   3.4369  14.5448   C.2       1 RES1   0.0000
     4 C2       4.7978   2.3173  14.1082   C.2       1 RES1   0.0000
     5 H1       4.7214   1.5745  14.6955   H         1 RES1   0.0000
     6 C3       4.1889   2.2355  12.8575   C.2       1 RES1   0.0000
     7 O2       4.3728   3.0837  11.9198   O.2       1 RES1   0.0000
     8 O3       3.9830   5.8380  11.7918   O.2       1 RES1   0.0000
     9 C4       3.8840   7.0856  12.0533   C.2       1 RES1   0.0000
    10 C5       4.9604   7.9491  12.2037   C.2       1 RES1   0.0000
    11 H2       4.7818   8.8597  12.4072   H         1 RES1   0.0000
    12 C6       6.2905   7.5503  12.0720   C.2       1 RES1   0.0000
    13 O4       6.6491   6.3490  11.8289   O.2       1 RES1   0.0000
    14 O5       7.3428   3.6803  11.8397   O.2       1 RES1   0.0000
    15 C7       7.8957   3.0236  10.9058   C.2       1 RES1   0.0000
    16 C8       7.3244   2.8212   9.6493   C.2       1 RES1   0.0000
    17 H3       7.7010   2.1557   9.0855   H         1 RES1   0.0000
    18 C9       6.2274   3.5459   9.1763   C.2       1 RES1   0.0000
    19 O6       5.5832   4.4009   9.8766   O.2       1 RES1   0.0000
    20 C10      6.0798   3.4661  15.9344   C.ar      1 RES1   0.0000
    21 C11      7.4700   3.5082  16.1083   C.ar      1 RES1   0.0000
    22 C12      7.9763   3.5603  17.4068   C.ar      1 RES1   0.0000
    23 H4       8.9185   3.5795  17.5265   H         1 RES1   0.0000
    24 C13      7.1688   3.5855  18.5253   C.ar      1 RES1   0.0000
    25 C14      5.8023   3.5385  18.3227   C.ar      1 RES1   0.0000
    26 H5       5.2275   3.5417  19.0789   H         1 RES1   0.0000
    27 C15      5.2358   3.4869  17.0482   C.ar      1 RES1   0.0000
    28 C16      8.4115   3.4680  14.9398   C.3       1 RES1   0.0000
    29 H6       8.2220   4.2208  14.3416   H         1 RES1   0.0000
    30 H7       8.2921   2.6259  14.4529   H         1 RES1   0.0000
    31 H8       9.3348   3.5311  15.2619   H         1 RES1   0.0000
    32 C17      7.7494   3.7037  19.9171   C.3       1 RES1   0.0000
    33 H9       7.2215   3.1611  20.5390   H         1 RES1   0.0000
    34 H10      7.7281   4.6412  20.2018   H         1 RES1   0.0000
    35 H11      8.6768   3.3853  19.9123   H         1 RES1   0.0000
    36 C18      3.7357   3.5138  16.9066   C.3       1 RES1   0.0000
    37 H12      3.4923   4.0241  16.1061   H         1 RES1   0.0000
    38 H13      3.3406   3.9379  17.6969   H         1 RES1   0.0000
    39 H14      3.3987   2.5973  16.8249   H         1 RES1   0.0000
    40 C19      3.2078   1.1418  12.5187   C.ar      1 RES1   0.0000
    41 C20      3.5889   0.1029  11.6539   C.ar      1 RES1   0.0000
    42 C21      2.6333  -0.8202  11.2510   C.ar      1 RES1   0.0000
    43 H15      2.8934  -1.5266  10.6714   H         1 RES1   0.0000
    44 C22      1.3180  -0.7469  11.6639   C.ar      1 RES1   0.0000
    45 C23      0.9733   0.2767  12.5386   C.ar      1 RES1   0.0000
    46 H16      0.0788   0.3275  12.8542   H         1 RES1   0.0000
    47 C24      1.8904   1.2290  12.9682   C.ar      1 RES1   0.0000
    48 C25      5.0147  -0.0440  11.1835   C.3       1 RES1   0.0000
    49 H17      5.3326   0.8135  10.8317   H         1 RES1   0.0000
    50 H18      5.0575  -0.7228  10.4780   H         1 RES1   0.0000
    51 H19      5.5801  -0.3184  11.9355   H         1 RES1   0.0000
    52 C26      0.2882  -1.7476  11.1936   C.3       1 RES1   0.0000
    53 H20     -0.5585  -1.2867  11.0174   H         1 RES1   0.0000
    54 H21      0.1524  -2.4268  11.8868   H         1 RES1   0.0000
    55 H22      0.6029  -2.1783  10.3714   H         1 RES1   0.0000
    56 C27      1.4257   2.3553  13.8538   C.3       1 RES1   0.0000
    57 H23      1.9645   2.3708  14.6723   H         1 RES1   0.0000
    58 H24      0.4831   2.2208  14.0857   H         1 RES1   0.0000
    59 H25      1.5272   3.2069  13.3796   H         1 RES1   0.0000
    60 C28      2.4867   7.5901  12.2456   C.ar      1 RES1   0.0000
    61 C29      1.8596   8.3736  11.2770   C.ar      1 RES1   0.0000
    62 C30      0.5335   8.7554  11.4930   C.ar      1 RES1   0.0000
    63 H26      0.0967   9.2961  10.8454   H         1 RES1   0.0000
    64 C31     -0.1601   8.3677  12.6243   C.ar      1 RES1   0.0000
    65 C32      0.4989   7.6137  13.5804   C.ar      1 RES1   0.0000
    66 H27      0.0372   7.3664  14.3731   H         1 RES1   0.0000
    67 C33      1.8161   7.2093  13.4116   C.ar      1 RES1   0.0000
    68 C34      2.5468   8.7633   9.9935   C.3       1 RES1   0.0000
    69 H28      1.9268   9.2754   9.4335   H         1 RES1   0.0000
    70 H29      2.8279   7.9554   9.5152   H         1 RES1   0.0000
    71 H30      3.3325   9.3123  10.1974   H         1 RES1   0.0000
    72 C35     -1.6178   8.7402  12.7888   C.3       1 RES1   0.0000
    73 H31     -1.8250   8.8350  13.7419   H         1 RES1   0.0000
    74 H32     -2.1802   8.0380  12.4004   H         1 RES1   0.0000
    75 H33     -1.7917   9.5889  12.3306   H         1 RES1   0.0000
    76 C36      2.5125   6.3810  14.4630   C.3       1 RES1   0.0000
    77 H34      3.4051   6.7492  14.6308   H         1 RES1   0.0000
    78 H35      2.5944   5.4562  14.1491   H         1 RES1   0.0000
    79 H36      1.9905   6.3994  15.2923   H         1 RES1   0.0000
    80 C37      7.4096   8.5250  12.2211   C.ar      1 RES1   0.0000
    81 C38      7.5386   9.6292  11.3674   C.ar      1 RES1   0.0000
    82 C39      8.6922  10.4084  11.4691   C.ar      1 RES1   0.0000
    83 H37      8.8036  11.1412  10.8749   H         1 RES1   0.0000
    84 C40      9.6779  10.1522  12.4027   C.ar      1 RES1   0.0000
    85 C41      9.4917   9.0874  13.2658   C.ar      1 RES1   0.0000
    86 H38     10.1422   8.9228  13.9383   H         1 RES1   0.0000
    87 C42      8.3871   8.2510  13.1828   C.ar      1 RES1   0.0000
    88 C43      6.5001   9.9856  10.3346   C.3       1 RES1   0.0000
    89 H39      6.1188   9.1649   9.9582   H         1 RES1   0.0000
    90 H40      6.9171  10.5099   9.6194   H         1 RES1   0.0000
    91 H41      5.7892  10.5133  10.7546   H         1 RES1   0.0000
    92 C44     10.9147  11.0115  12.4922   C.3       1 RES1   0.0000
    93 H42     11.7026  10.4392  12.6021   H         1 RES1   0.0000
    94 H43     10.8388  11.6142  13.2612   H         1 RES1   0.0000
    95 H44     11.0060  11.5391  11.6714   H         1 RES1   0.0000
    96 C45      8.2618   7.0888  14.1327   C.3       1 RES1   0.0000
    97 H45      7.3144   6.9149  14.3131   H         1 RES1   0.0000
    98 H46      8.7203   7.3022  14.9722   H         1 RES1   0.0000
    99 H47      8.6693   6.2931  13.7311   H         1 RES1   0.0000
   100 C46      9.2951   2.5425  11.1640   C.ar      1 RES1   0.0000
   101 C47     10.3352   3.4455  10.9337   C.ar      1 RES1   0.0000
   102 C48     11.6409   3.0145  11.1233   C.ar      1 RES1   0.0000
   103 H48     12.3545   3.6173  10.9506   H         1 RES1   0.0000
   104 C49     11.9354   1.7310  11.5568   C.ar      1 RES1   0.0000
   105 C50     10.8854   0.8652  11.8065   C.ar      1 RES1   0.0000
   106 H49     11.0732  -0.0119  12.1196   H         1 RES1   0.0000
   107 C51      9.5600   1.2463  11.6107   C.ar      1 RES1   0.0000
   108 C52     10.0337   4.8568  10.4955   C.3       1 RES1   0.0000
   109 H50      9.4074   5.2682  11.1271   H         1 RES1   0.0000
   110 H51      9.6338   4.8427   9.6010   H         1 RES1   0.0000
   111 H52     10.8643   5.3766  10.4738   H         1 RES1   0.0000
   112 C53     13.3673   1.2973  11.7423   C.3       1 RES1   0.0000
   113 H53     13.9542   1.8701  11.2057   H         1 RES1   0.0000
   114 H54     13.4667   0.3661  11.4535   H         1 RES1   0.0000
   115 H55     13.6119   1.3738  12.6882   H         1 RES1   0.0000
   116 C54      8.4408   0.2750  11.8747   C.3       1 RES1   0.0000
   117 H56      7.7891   0.6845  12.4812   H         1 RES1   0.0000
   118 H57      8.8035  -0.5376  12.2853   H         1 RES1   0.0000
   119 H58      8.0012   0.0456  11.0294   H         1 RES1   0.0000
   120 C55      5.7752   3.3764   7.7635   C.ar      1 RES1   0.0000
   121 C56      6.6340   3.6419   6.6915   C.ar      1 RES1   0.0000
   122 C57      6.1534   3.4943   5.3945   C.ar      1 RES1   0.0000
   123 H59      6.7325   3.6809   4.6649   H         1 RES1   0.0000
   124 C58      4.8582   3.0842   5.1345   C.ar      1 RES1   0.0000
   125 C59      4.0301   2.8309   6.2130   C.ar      1 RES1   0.0000
   126 H60      3.1389   2.5471   6.0462   H         1 RES1   0.0000
   127 C60      4.4473   2.9743   7.5278   C.ar      1 RES1   0.0000
   128 C61      8.0536   4.1305   6.8907   C.3       1 RES1   0.0000
   129 H61      8.0715   4.7998   7.6063   H         1 RES1   0.0000
   130 H62      8.3803   4.5329   6.0588   H         1 RES1   0.0000
   131 H63      8.6279   3.3751   7.1354   H         1 RES1   0.0000
   132 C62      4.3364   2.9618   3.7264   C.3       1 RES1   0.0000
   133 H64      3.9168   2.0841   3.6088   H         1 RES1   0.0000
   134 H65      5.0793   3.0560   3.0939   H         1 RES1   0.0000
   135 H66      3.6751   3.6654   3.5608   H         1 RES1   0.0000
   136 C63      3.4842   2.6777   8.6470   C.3       1 RES1   0.0000
   137 H67      3.8720   2.0016   9.2412   H         1 RES1   0.0000
   138 H68      2.6432   2.3405   8.2736   H         1 RES1   0.0000
   139 H69      3.3106   3.4978   9.1547   H         1 RES1   0.0000
@<TRIPOS>BOND
     1     1     2    1
     2     2     3   un
     3     3     4   un
     4     4     5    1
     5     6     4   un
     6     7     1    1
     7     8     1    1
     8     9     8   un
     9    10     9   un
    10    11    10    1
    11    12    10   un
    12    13     1    1
    13    14     1    1
    14    15    14   un
    15    16    15   un
    16    17    16    1
    17    18    16   un
    18    19     1    1
    19    20     3    1
    20    21    20   ar
    21    22    21   ar
    22    23    22    1
    23    24    22   ar
    24    25    24   ar
    25    26    25    1
    26    27    20   ar
    27    28    21    1
    28    29    28    1
    29    30    28    1
    30    31    28    1
    31    32    24    1
    32    33    32    1
    33    34    32    1
    34    35    32    1
    35    36    27    1
    36    37    36    1
    37    38    36    1
    38    39    36    1
    39    40     6    1
    40    41    40   ar
    41    42    41   ar
    42    43    42    1
    43    44    42   ar
    44    45    44   ar
    45    46    45    1
    46    47    40   ar
    47    48    41    1
    48    49    48    1
    49    50    48    1
    50    51    48    1
    51    52    44    1
    52    53    52    1
    53    54    52    1
    54    55    52    1
    55    56    47    1
    56    57    56    1
    57    58    56    1
    58    59    56    1
    59    60     9    1
    60    61    60   ar
    61    62    61   ar
    62    63    62    1
    63    64    62   ar
    64    65    64   ar
    65    66    65    1
    66    67    60   ar
    67    68    61    1
    68    69    68    1
    69    70    68    1
    70    71    68    1
    71    72    64    1
    72    73    72    1
    73    74    72    1
    74    75    72    1
    75    76    67    1
    76    77    76    1
    77    78    76    1
    78    79    76    1
    79    80    12    1
    80    81    80   ar
    81    82    81   ar
    82    83    82    1
    83    84    82   ar
    84    85    84   ar
    85    86    85    1
    86    87    80   ar
    87    88    81    1
    88    89    88    1
    89    90    88    1
    90    91    88    1
    91    92    84    1
    92    93    92    1
    93    94    92    1
    94    95    92    1
    95    96    87    1
    96    97    96    1
    97    98    96    1
    98    99    96    1
    99   100    15    1
   100   101   100   ar
   101   102   101   ar
   102   103   102    1
   103   104   102   ar
   104   105   104   ar
   105   106   105    1
   106   107   100   ar
   107   108   101    1
   108   109   108    1
   109   110   108    1
   110   111   108    1
   111   112   104    1
   112   113   112    1
   113   114   112    1
   114   115   112    1
   115   116   107    1
   116   117   116    1
   117   118   116    1
   118   119   116    1
   119   120    18    1
   120   121   120   ar
   121   122   121   ar
   122   123   122    1
   123   124   122   ar
   124   125   124   ar
   125   126   125    1
   126   127   120   ar
   127   128   121    1
   128   129   128    1
   129   130   128    1
   130   131   128    1
   131   132   124    1
   132   133   132    1
   133   134   132    1
   134   135   132    1
   135   136   127    1
   136   137   136    1
   137   138   136    1
   138   139   136    1
   139     6     7   un
   140    12    13   un
   141    18    19   un
   142    25    27   ar
   143    45    47   ar
   144    65    67   ar
   145    85    87   ar
   146   105   107   ar
   147   125   127   ar
@<TRIPOS>SUBSTRUCTURE
     1 RES1        1 GROUP             0 ****  ****    0  
@<TRIPOS>CRYSIN
   15.9100   17.6150   19.1330   90.0000   92.4300   90.0000   231     1
