@<TRIPOS>MOLECULE
AVEDUC
   121   133     1     0     0
SMALL
USER_CHARGES
****
Generated from the CSD

@<TRIPOS>ATOM
     1 Fe1     -1.2064   4.7110  12.7675   Fe        1 RES1   2.0000
     2 O1      -2.9002   2.4569  12.1188   O.3       1 RES1   0.0000
     3 O2      -1.0319   5.9550  15.3809   O.3       1 RES1   0.0000
     4 O3      -1.5962   7.4640  13.5278   O.3       1 RES1   0.0000
     5 O4      -1.8590   3.5977  10.1930   O.3       1 RES1   0.0000
     6 O5      -0.5249   2.1199  11.6331   O.3       1 RES1   0.0000
     7 O6       0.7014   6.6215  13.7854   O.3       1 RES1   0.0000
     8 N1      -2.5414   3.3830  13.0804   N.2       1 RES1   0.0000
     9 N2      -1.7508   4.7371  10.9557   N.2       1 RES1   0.0000
    10 N3       0.5165   5.4157  13.1457   N.2       1 RES1   0.0000
    11 N4      -1.5113   4.9021  14.6396   N.2       1 RES1   0.0000
    12 N5      -1.7770   6.5083  12.5587   N.2       1 RES1   0.0000
    13 N6      -0.0918   3.2254  12.3327   N.2       1 RES1   0.0000
    14 N7      -6.0106   1.4074   4.6887   N.ar      1 RES1   0.0000
    15 N8       0.0183  -4.9371   9.4221   N.ar      1 RES1   0.0000
    16 N9      -0.7758  14.6820  14.0342   N.ar      1 RES1   0.0000
    17 N10      2.7375   8.9613  21.1984   N.ar      1 RES1   0.0000
    18 B1      -1.8773   2.3584  11.0267   B         1 RES1  -1.0000
    19 B2      -0.5444   7.0671  14.5038   B         1 RES1  -1.0000
    20 C1      -3.0063  -0.8829   8.2664   C.ar      1 RES1   0.0000
    21 H1      -3.2767  -1.5837   7.6832   H         1 RES1   0.0000
    22 C2      -4.4202   0.7191   6.9361   C.ar      1 RES1   0.0000
    23 C3      -2.2752   1.1596  10.0480   C.ar      1 RES1   0.0000
    24 C4      -2.1828   6.9289  11.3890   C.2       1 RES1   0.0000
    25 C5      -3.1377   1.4074   8.9719   C.ar      1 RES1   0.0000
    26 H2      -3.4685   2.2880   8.8425   H         1 RES1   0.0000
    27 C6       0.4328  10.5967  16.9386   C.ar      1 RES1   0.0000
    28 H3       0.6168  11.3582  17.4733   H         1 RES1   0.0000
    29 C7      -2.8801   3.1156  14.3157   C.2       1 RES1   0.0000
    30 C8       1.5431   4.6001  13.1254   C.2       1 RES1   0.0000
    31 C9      -2.2251   5.8371  10.4352   C.2       1 RES1   0.0000
    32 C10      0.3998   8.1982  16.6585   C.ar      1 RES1   0.0000
    33 H4       0.5876   7.3309  16.9954   H         1 RES1   0.0000
    34 C11      0.7101   9.3235  17.4344   C.ar      1 RES1   0.0000
    35 C12     -2.5410   8.3566  11.1157   C.3       1 RES1   0.0000
    36 H5      -3.0224   8.7239  11.8983   H         1 RES1   0.0000
    37 H6      -3.1528   8.3932  10.3390   H         1 RES1   0.0000
    38 C13     -2.0957  -1.1592   9.2905   C.ar      1 RES1   0.0000
    39 C14     -3.5276   0.4008   8.0814   C.ar      1 RES1   0.0000
    40 C15     -2.7553   5.9348   9.0441   C.3       1 RES1   0.0000
    41 H7      -2.2617   5.2997   8.4642   H         1 RES1   0.0000
    42 H8      -2.5936   6.8484   8.7005   H         1 RES1   0.0000
    43 C16     -0.4167   9.6243  14.9111   C.ar      1 RES1   0.0000
    44 H9      -0.7936   9.7317  14.0461   H         1 RES1   0.0000
    45 C17     -5.1447   0.3981   4.6633   C.ar      1 RES1   0.0000
    46 H10     -5.0643  -0.0934   3.8532   H         1 RES1   0.0000
    47 C18     -4.3495   0.0086   5.7335   C.ar      1 RES1   0.0000
    48 H11     -3.7627  -0.7354   5.6487   H         1 RES1   0.0000
    49 C19     -3.6041   1.8779  14.7389   C.3       1 RES1   0.0000
    50 H12     -4.1634   1.5487  13.9915   H         1 RES1   0.0000
    51 H13     -4.2014   2.0856  15.5002   H         1 RES1   0.0000
    52 C20     -2.3448   4.0978  15.2431   C.2       1 RES1   0.0000
    53 C21     -0.1830   8.3360  15.3942   C.ar      1 RES1   0.0000
    54 C22     -1.7677  -0.1342  10.1875   C.ar      1 RES1   0.0000
    55 H14     -1.1830  -0.3230  10.9124   H         1 RES1   0.0000
    56 C23     -1.3151   9.2270  10.8286   C.3       1 RES1   0.0000
    57 H15     -1.5923  10.1636  10.7431   H         1 RES1   0.0000
    58 H16     -0.8943   8.9340   9.9935   H         1 RES1   0.0000
    59 H17     -0.6743   9.1403  11.5651   H         1 RES1   0.0000
    60 C24     -2.7183   4.2371  16.6862   C.3       1 RES1   0.0000
    61 H18     -1.9081   4.4476  17.2152   H         1 RES1   0.0000
    62 H19     -3.0811   3.3775  17.0145   H         1 RES1   0.0000
    63 C25      1.1983   3.3285  12.5216   C.2       1 RES1   0.0000
    64 C26     -1.3806  -3.3522   8.2703   C.ar      1 RES1   0.0000
    65 H20     -1.8431  -3.1285   7.4716   H         1 RES1   0.0000
    66 C27      1.3738   9.1718  18.7486   C.ar      1 RES1   0.0000
    67 C28     -1.4106  -2.4829   9.3610   C.ar      1 RES1   0.0000
    68 C29     -0.9065  13.1388  15.8770   C.ar      1 RES1   0.0000
    69 H21     -1.1437  12.9886  16.7851   H         1 RES1   0.0000
    70 C30     -5.3341   1.7732   6.9717   C.ar      1 RES1   0.0000
    71 H22     -5.4347   2.2880   7.7651   H         1 RES1   0.0000
    72 C31     -0.1116  10.7602  15.6670   C.ar      1 RES1   0.0000
    73 C32     -0.3536  12.1104  15.1104   C.ar      1 RES1   0.0000
    74 C33     -0.6916  -2.8997  10.4822   C.ar      1 RES1   0.0000
    75 H23     -0.6727  -2.3580  11.2620   H         1 RES1   0.0000
    76 C34     -0.0041  -4.1051  10.4612   C.ar      1 RES1   0.0000
    77 H24      0.4819  -4.3542  11.2388   H         1 RES1   0.0000
    78 C35     -6.0959   2.0736   5.8512   C.ar      1 RES1   0.0000
    79 H25     -6.7141   2.7938   5.9109   H         1 RES1   0.0000
    80 C36     -0.6769  -4.5410   8.3531   C.ar      1 RES1   0.0000
    81 H26     -0.6902  -5.1168   7.5972   H         1 RES1   0.0000
    82 C37      2.8706   4.9538  13.7210   C.3       1 RES1   0.0000
    83 H27      3.3411   4.1207  13.9696   H         1 RES1   0.0000
    84 H28      2.7200   5.4709  14.5513   H         1 RES1   0.0000
    85 C38      2.4249   8.2706  18.9183   C.ar      1 RES1   0.0000
    86 H29      2.6927   7.7044  18.2051   H         1 RES1   0.0000
    87 C39     -3.7605   5.3398  16.8998   C.3       1 RES1   0.0000
    88 H30     -3.9461   5.4320  17.8570   H         1 RES1   0.0000
    89 H31     -4.5866   5.1052  16.4287   H         1 RES1   0.0000
    90 H32     -3.4158   6.1869  16.5503   H         1 RES1   0.0000
    91 C40      2.1825   2.2977  12.0679   C.3       1 RES1   0.0000
    92 H33      1.7782   1.3969  12.1522   H         1 RES1   0.0000
    93 H34      2.9833   2.3308  12.6492   H         1 RES1   0.0000
    94 C41     -2.6083   0.7891  15.1518   C.3       1 RES1   0.0000
    95 H35     -3.0975  -0.0233  15.4006   H         1 RES1   0.0000
    96 H36     -2.0829   1.1012  15.9181   H         1 RES1   0.0000
    97 H37     -2.0090   0.5915  14.4011   H         1 RES1   0.0000
    98 C42      2.5987   2.5320  10.6224   C.3       1 RES1   0.0000
    99 H38      3.2432   1.8444  10.3526   H         1 RES1   0.0000
   100 H39      3.0112   3.4164  10.5410   H         1 RES1   0.0000
   101 H40      1.8100   2.4864  10.0427   H         1 RES1   0.0000
   102 C43      1.7073   9.8018  21.0352   C.ar      1 RES1   0.0000
   103 H41      1.4398  10.3271  21.7798   H         1 RES1   0.0000
   104 C44     -0.0140  12.4088  13.7928   C.ar      1 RES1   0.0000
   105 H42      0.3561  11.7396  13.2268   H         1 RES1   0.0000
   106 C45     -0.2243  13.6968  13.3172   C.ar      1 RES1   0.0000
   107 H43      0.0412  13.8914  12.4253   H         1 RES1   0.0000
   108 C46     -1.1043  14.3836  15.2907   C.ar      1 RES1   0.0000
   109 H44     -1.4995  15.0665  15.8198   H         1 RES1   0.0000
   110 C47      3.0714   8.2150  20.1405   C.ar      1 RES1   0.0000
   111 H45      3.7968   7.6111  20.2342   H         1 RES1   0.0000
   112 C48      3.7624   5.7616  12.7944   C.3       1 RES1   0.0000
   113 H46      4.5747   6.0274  13.2732   H         1 RES1   0.0000
   114 H47      3.2825   6.5605  12.4936   H         1 RES1   0.0000
   115 H48      4.0066   5.2180  12.0171   H         1 RES1   0.0000
   116 C49      1.0092   9.9500  19.8499   C.ar      1 RES1   0.0000
   117 H49      0.2923  10.5722  19.7863   H         1 RES1   0.0000
   118 C50     -4.2426   5.6281   8.9623   C.3       1 RES1   0.0000
   119 H50     -4.5432   5.7161   8.0341   H         1 RES1   0.0000
   120 H51     -4.7377   6.2608   9.5265   H         1 RES1   0.0000
   121 H52     -4.4053   4.7122   9.2753   H         1 RES1   0.0000
@<TRIPOS>BOND
     1     1     8    1
     2     2     8    1
     3     3    11    1
     4     4    12    1
     5     5     9    1
     6     6    13    1
     7     7    10    1
     8     8    29    2
     9     9     1    1
    10    10     1    1
    11    11     1    1
    12    12     1    1
    13    13     1    1
    14    14    45   ar
    15    15    76   ar
    16    16   106   ar
    17    17   102   ar
    18    18     2    1
    19    19     3    1
    20    20    21    1
    21    22    39    1
    22    23    18    1
    23    24    12    2
    24    25    23   ar
    25    26    25    1
    26    27    28    1
    27    29    49    1
    28    30    10    2
    29    31     9    2
    30    32    33    1
    31    34    27   ar
    32    35    24    1
    33    36    35    1
    34    37    35    1
    35    38    20   ar
    36    39    20   ar
    37    40    31    1
    38    41    40    1
    39    42    40    1
    40    43    44    1
    41    45    46    1
    42    47    22   ar
    43    48    47    1
    44    49    50    1
    45    51    49    1
    46    52    11    2
    47    53    19    1
    48    54    23   ar
    49    55    54    1
    50    56    35    1
    51    57    56    1
    52    58    56    1
    53    59    56    1
    54    60    52    1
    55    61    60    1
    56    62    60    1
    57    63    13    2
    58    64    65    1
    59    66    34    1
    60    67    38    1
    61    68    69    1
    62    70    22   ar
    63    71    70    1
    64    72    27   ar
    65    73    68   ar
    66    74    67   ar
    67    75    74    1
    68    76    74   ar
    69    77    76    1
    70    78    14   ar
    71    79    78    1
    72    80    15   ar
    73    81    80    1
    74    82    30    1
    75    83    82    1
    76    84    82    1
    77    85    66   ar
    78    86    85    1
    79    87    60    1
    80    88    87    1
    81    89    87    1
    82    90    87    1
    83    91    63    1
    84    92    91    1
    85    93    91    1
    86    94    49    1
    87    95    94    1
    88    96    94    1
    89    97    94    1
    90    98    91    1
    91    99    98    1
    92   100    98    1
    93   101    98    1
    94   102   103    1
    95   104    73   ar
    96   105   104    1
    97   106   104   ar
    98   107   106    1
    99   108    16   ar
   100   109   108    1
   101   110    17   ar
   102   111   110    1
   103   112    82    1
   104   113   112    1
   105   114   112    1
   106   115   112    1
   107   116    66   ar
   108   117   116    1
   109   118    40    1
   110   119   118    1
   111   120   118    1
   112   121   118    1
   113     4    19    1
   114     5    18    1
   115     6    18    1
   116     7    19    1
   117    24    31    1
   118    25    39   ar
   119    29    52    1
   120    30    63    1
   121    32    34   ar
   122    32    53   ar
   123    38    54   ar
   124    43    53   ar
   125    43    72   ar
   126    45    47   ar
   127    64    67   ar
   128    64    80   ar
   129    68   108   ar
   130    70    78   ar
   131    72    73    1
   132    85   110   ar
   133   102   116   ar
@<TRIPOS>SUBSTRUCTURE
     1 RES1        1 GROUP             0 ****  ****    0  
@<TRIPOS>CRYSIN
    8.8467   38.9114   14.1567   90.0000  105.3120   90.0000    14     1
