@<TRIPOS>MOLECULE
AWETUU
   115   126     1     0     0
SMALL
NO_CHARGES
****
Generated from the CSD

@<TRIPOS>ATOM
     1 Fe1     12.2505   4.3229  14.5164   Fe        1 RES1   0.0000
     2 H1      13.4988   3.8790  14.8942   H         1 RES1   0.0000
     3 Br1     10.0414   5.2065  13.6913   Br        1 RES1   0.0000
     4 P1      12.0859   5.2186  16.5531   P.3       1 RES1   0.0000
     5 P2      13.2346   6.2541  14.0321   P.3       1 RES1   0.0000
     6 P3      12.7287   3.2786  12.5996   P.3       1 RES1   0.0000
     7 P4      11.3573   2.3542  15.0274   P.3       1 RES1   0.0000
     8 C1      12.1543   7.0422  16.4152   C.ar      1 RES1   0.0000
     9 C2      11.7858   7.9344  17.4200   C.ar      1 RES1   0.0000
    10 H2      11.4406   7.5935  18.2376   H         1 RES1   0.0000
    11 C3      11.9094   9.2970  17.2604   C.ar      1 RES1   0.0000
    12 H3      11.6891   9.8929  17.9657   H         1 RES1   0.0000
    13 C4      12.3692   9.7793  16.0271   C.ar      1 RES1   0.0000
    14 H4      12.4486  10.7164  15.8931   H         1 RES1   0.0000
    15 C5      12.7049   8.9276  15.0223   C.ar      1 RES1   0.0000
    16 H5      12.9937   9.2781  14.1889   H         1 RES1   0.0000
    17 C6      12.6299   7.5325  15.1996   C.ar      1 RES1   0.0000
    18 C7      13.5035   4.8503  17.6603   C.ar      1 RES1   0.0000
    19 C8      13.7076   3.5285  18.0346   C.ar      1 RES1   0.0000
    20 H6      13.0962   2.8631  17.7411   H         1 RES1   0.0000
    21 C9      14.7872   3.1576  18.8325   C.ar      1 RES1   0.0000
    22 H7      14.9244   2.2464  19.0670   H         1 RES1   0.0000
    23 C10     15.6527   4.1331  19.2758   C.ar      1 RES1   0.0000
    24 H8      16.3860   3.8927  19.8294   H         1 RES1   0.0000
    25 C11     15.4739   5.4193  18.9350   C.ar      1 RES1   0.0000
    26 H9      16.0805   6.0789  19.2502   H         1 RES1   0.0000
    27 C12     14.4044   5.7937  18.1253   C.ar      1 RES1   0.0000
    28 H10     14.2934   6.7068  17.8869   H         1 RES1   0.0000
    29 C13     10.6912   5.0925  17.7450   C.ar      1 RES1   0.0000
    30 C14     10.8437   4.8597  19.1103   C.ar      1 RES1   0.0000
    31 H11     11.7077   4.6665  19.4551   H         1 RES1   0.0000
    32 C15      9.7733   4.9039  19.9673   C.ar      1 RES1   0.0000
    33 H12      9.8973   4.7151  20.8894   H         1 RES1   0.0000
    34 C16      8.5155   5.2209  19.4925   C.ar      1 RES1   0.0000
    35 H13      7.7740   5.2583  20.0856   H         1 RES1   0.0000
    36 C17      8.3499   5.4804  18.1588   C.ar      1 RES1   0.0000
    37 H14      7.4889   5.7146  17.8337   H         1 RES1   0.0000
    38 C18      9.4221   5.4062  17.2702   C.ar      1 RES1   0.0000
    39 H15      9.2864   5.5685  16.3443   H         1 RES1   0.0000
    40 C19     15.0505   6.4765  14.3544   C.ar      1 RES1   0.0000
    41 C20     15.6594   7.6967  14.0471   C.ar      1 RES1   0.0000
    42 H16     15.1407   8.4019  13.6767   H         1 RES1   0.0000
    43 C21     17.0015   7.8840  14.2736   C.ar      1 RES1   0.0000
    44 H17     17.4055   8.7140  14.0491   H         1 RES1   0.0000
    45 C22     17.7667   6.8788  14.8233   C.ar      1 RES1   0.0000
    46 H18     18.6928   7.0155  14.9809   H         1 RES1   0.0000
    47 C23     17.1745   5.6693  15.1405   C.ar      1 RES1   0.0000
    48 H19     17.6991   4.9670  15.5070   H         1 RES1   0.0000
    49 C24     15.8152   5.4805  14.9238   C.ar      1 RES1   0.0000
    50 H20     15.4091   4.6578  15.1701   H         1 RES1   0.0000
    51 C25     13.0868   7.1186  12.4020   C.ar      1 RES1   0.0000
    52 C26     11.9457   7.8610  12.0848   C.ar      1 RES1   0.0000
    53 H21     11.2230   7.9112  12.6995   H         1 RES1   0.0000
    54 C27     11.8756   8.5245  10.8732   C.ar      1 RES1   0.0000
    55 H22     11.1228   9.0732  10.6860   H         1 RES1   0.0000
    56 C28     12.8659   8.4062   9.9413   C.ar      1 RES1   0.0000
    57 H23     12.7853   8.8357   9.0981   H         1 RES1   0.0000
    58 C29     13.9786   7.6596  10.2349   C.ar      1 RES1   0.0000
    59 H24     14.6820   7.5946   9.6005   H         1 RES1   0.0000
    60 C30     14.0902   6.9930  11.4603   C.ar      1 RES1   0.0000
    61 H25     14.8524   6.4561  11.6455   H         1 RES1   0.0000
    62 C31     11.4250   2.0007  12.3094   C.ar      1 RES1   0.0000
    63 C32     11.1077   1.4732  11.0604   C.ar      1 RES1   0.0000
    64 H26     11.5383   1.7973  10.2782   H         1 RES1   0.0000
    65 C33     10.1588   0.4728  10.9737   C.ar      1 RES1   0.0000
    66 H27      9.9248   0.1132  10.1245   H         1 RES1   0.0000
    67 C34      9.5469  -0.0078  12.1223   C.ar      1 RES1   0.0000
    68 H28      8.9023  -0.7021  12.0592   H         1 RES1   0.0000
    69 C35      9.8747   0.5215  13.3654   C.ar      1 RES1   0.0000
    70 H29      9.4615   0.1835  14.1515   H         1 RES1   0.0000
    71 C36     10.8061   1.5453  13.4580   C.ar      1 RES1   0.0000
    72 C37     12.8100   4.0127  10.9264   C.ar      1 RES1   0.0000
    73 C38     11.7513   4.8194  10.5008   C.ar      1 RES1   0.0000
    74 H30     11.0375   5.0178  11.0958   H         1 RES1   0.0000
    75 C39     11.7428   5.3240   9.2340   C.ar      1 RES1   0.0000
    76 H31     11.0149   5.8696   8.9562   H         1 RES1   0.0000
    77 C40     12.7630   5.0616   8.3435   C.ar      1 RES1   0.0000
    78 H32     12.7504   5.4383   7.4708   H         1 RES1   0.0000
    79 C41     13.8086   4.2415   8.7395   C.ar      1 RES1   0.0000
    80 H33     14.5050   4.0308   8.1288   H         1 RES1   0.0000
    81 C42     13.8361   3.7232  10.0398   C.ar      1 RES1   0.0000
    82 H34     14.5593   3.1731  10.3156   H         1 RES1   0.0000
    83 C43     14.2534   2.2556  12.6246   C.ar      1 RES1   0.0000
    84 C44     15.4795   2.8869  12.7704   C.ar      1 RES1   0.0000
    85 H35     15.5066   3.8321  12.8512   H         1 RES1   0.0000
    86 C45     16.6557   2.1771  12.7980   C.ar      1 RES1   0.0000
    87 H36     17.4857   2.6323  12.8788   H         1 RES1   0.0000
    88 C46     16.6244   0.8002  12.7074   C.ar      1 RES1   0.0000
    89 H37     17.4326   0.3028  12.7507   H         1 RES1   0.0000
    90 C47     15.4303   0.1500  12.5577   C.ar      1 RES1   0.0000
    91 H38     15.4097  -0.7981  12.4946   H         1 RES1   0.0000
    92 C48     14.2442   0.8766  12.4966   C.ar      1 RES1   0.0000
    93 H39     13.4212   0.4228  12.3666   H         1 RES1   0.0000
    94 C49     12.4363   1.0197  15.7178   C.ar      1 RES1   0.0000
    95 C50     13.8002   1.1755  15.7769   C.ar      1 RES1   0.0000
    96 H40     14.1792   2.0010  15.4971   H         1 RES1   0.0000
    97 C51     14.6428   0.1677  16.2300   C.ar      1 RES1   0.0000
    98 H41     15.5836   0.2976  16.2536   H         1 RES1   0.0000
    99 C52     14.0879  -1.0242  16.6398   C.ar      1 RES1   0.0000
   100 H42     14.6526  -1.7291  16.9353   H         1 RES1   0.0000
   101 C53     12.7445  -1.2013  16.6280   C.ar      1 RES1   0.0000
   102 H43     12.3754  -2.0183  16.9432   H         1 RES1   0.0000
   103 C54     11.8928  -0.1970  16.1591   C.ar      1 RES1   0.0000
   104 H44     10.9535  -0.3366  16.1374   H         1 RES1   0.0000
   105 C55      9.8397   2.2134  16.0507   C.ar      1 RES1   0.0000
   106 C56      8.5962   2.5101  15.5030   C.ar      1 RES1   0.0000
   107 H45      8.5332   2.7754  14.5928   H         1 RES1   0.0000
   108 C57      7.4476   2.4223  16.2733   C.ar      1 RES1   0.0000
   109 H46      6.6025   2.6062  15.8813   H         1 RES1   0.0000
   110 C58      7.5233   2.0667  17.6091   C.ar      1 RES1   0.0000
   111 H47      6.7321   2.0153  18.1331   H         1 RES1   0.0000
   112 C59      8.7339   1.7902  18.1745   C.ar      1 RES1   0.0000
   113 H48      8.7769   1.5429  19.0906   H         1 RES1   0.0000
   114 C60      9.9165   1.8666  17.4259   C.ar      1 RES1   0.0000
   115 H49     10.7565   1.6894  17.8317   H         1 RES1   0.0000
@<TRIPOS>BOND
     1     1     2    1
     2     3     1    1
     3     4     1    1
     4     5     1    1
     5     6     1    1
     6     7     1    1
     7     8     4    1
     8     9     8   ar
     9    10     9    1
    10    11     9   ar
    11    12    11    1
    12    13    11   ar
    13    14    13    1
    14    15    13   ar
    15    16    15    1
    16    17     5    1
    17    18     4    1
    18    19    18   ar
    19    20    19    1
    20    21    19   ar
    21    22    21    1
    22    23    21   ar
    23    24    23    1
    24    25    23   ar
    25    26    25    1
    26    27    18   ar
    27    28    27    1
    28    29     4    1
    29    30    29   ar
    30    31    30    1
    31    32    30   ar
    32    33    32    1
    33    34    32   ar
    34    35    34    1
    35    36    34   ar
    36    37    36    1
    37    38    29   ar
    38    39    38    1
    39    40     5    1
    40    41    40   ar
    41    42    41    1
    42    43    41   ar
    43    44    43    1
    44    45    43   ar
    45    46    45    1
    46    47    45   ar
    47    48    47    1
    48    49    40   ar
    49    50    49    1
    50    51     5    1
    51    52    51   ar
    52    53    52    1
    53    54    52   ar
    54    55    54    1
    55    56    54   ar
    56    57    56    1
    57    58    56   ar
    58    59    58    1
    59    60    51   ar
    60    61    60    1
    61    62     6    1
    62    63    62   ar
    63    64    63    1
    64    65    63   ar
    65    66    65    1
    66    67    65   ar
    67    68    67    1
    68    69    67   ar
    69    70    69    1
    70    71     7    1
    71    72     6    1
    72    73    72   ar
    73    74    73    1
    74    75    73   ar
    75    76    75    1
    76    77    75   ar
    77    78    77    1
    78    79    77   ar
    79    80    79    1
    80    81    72   ar
    81    82    81    1
    82    83     6    1
    83    84    83   ar
    84    85    84    1
    85    86    84   ar
    86    87    86    1
    87    88    86   ar
    88    89    88    1
    89    90    88   ar
    90    91    90    1
    91    92    83   ar
    92    93    92    1
    93    94     7    1
    94    95    94   ar
    95    96    95    1
    96    97    95   ar
    97    98    97    1
    98    99    97   ar
    99   100    99    1
   100   101    99   ar
   101   102   101    1
   102   103    94   ar
   103   104   103    1
   104   105     7    1
   105   106   105   ar
   106   107   106    1
   107   108   106   ar
   108   109   108    1
   109   110   108   ar
   110   111   110    1
   111   112   110   ar
   112   113   112    1
   113   114   105   ar
   114   115   114    1
   115     8    17   ar
   116    15    17   ar
   117    25    27   ar
   118    36    38   ar
   119    47    49   ar
   120    58    60   ar
   121    62    71   ar
   122    69    71   ar
   123    79    81   ar
   124    90    92   ar
   125   101   103   ar
   126   112   114   ar
@<TRIPOS>SUBSTRUCTURE
     1 RES1        1 GROUP             0 ****  ****    0  
@<TRIPOS>CRYSIN
   10.8690   12.0085   20.3180   80.2740   76.6610   65.6210     2     1
