@<TRIPOS>MOLECULE
AXEHOC
   105   101    10     0     0
SMALL
USER_CHARGES
****
Generated from the CSD

@<TRIPOS>ATOM
     1 C1       3.3885  -0.8156  12.0096   C.ar      1 RES1   0.0000
     2 C2       2.2258  -0.5639  11.3473   C.ar      1 RES1   0.0000
     3 H1       1.4542  -0.3335  11.8119   H         1 RES1   0.0000
     4 C3       2.2143  -0.6577   9.9593   C.ar      1 RES1   0.0000
     5 C4       3.3352  -0.9961   9.2277   C.ar      1 RES1   0.0000
     6 C5       4.5184  -1.2683   9.9296   C.ar      1 RES1   0.0000
     7 H2       5.2907  -1.5039   9.4689   H         1 RES1   0.0000
     8 C6       4.5331  -1.1879  11.3097   C.ar      1 RES1   0.0000
     9 H3       5.3150  -1.3826  11.7743   H         1 RES1   0.0000
    10 C7       0.9859  -0.3788   8.0058   C.2       1 RES1   0.0000
    11 H4       0.1708  -0.1807   7.6024   H         1 RES1   0.0000
    12 C8       2.0138  -0.6281   7.1892   C.2       1 RES1   0.0000
    13 C9       3.2945  -0.9952   7.7705   C.2       1 RES1   0.0000
    14 C10      1.8336  -0.4848   5.7221   C.ar      1 RES1   0.0000
    15 C11      1.3963   0.7434   5.2001   C.ar      1 RES1   0.0000
    16 H5       1.2219   1.4525   5.7755   H         1 RES1   0.0000
    17 C12      1.2238   0.9087   3.8358   C.ar      1 RES1   0.0000
    18 H6       0.9243   1.7250   3.5076   H         1 RES1   0.0000
    19 C13      1.4912  -0.1253   2.9540   C.ar      1 RES1   0.0000
    20 C14      1.8812  -1.3701   3.4799   C.ar      1 RES1   0.0000
    21 C15      2.0699  -1.5288   4.8462   C.ar      1 RES1   0.0000
    22 H7       2.3586  -2.3485   5.1764   H         1 RES1   0.0000
    23 O1       3.4962  -0.7162  13.3555   O.3       1 RES1   0.0000
    24 H8       2.7740  -0.4930  13.6725   H         1 RES1   0.0000
    25 O2       1.0142  -0.3840   9.3521   O.3       1 RES1   0.0000
    26 O3       4.2916  -1.2820   7.0941   O.2       1 RES1   0.0000
    27 O4       1.3523  -0.0014   1.6229   O.3       1 RES1   0.0000
    28 H9       1.0976   0.7578   1.4453   H         1 RES1   0.0000
    29 O5       2.4659  -3.8581   3.2152   O.2       1 RES1   0.0000
    30 O6       0.7726  -2.9649   1.7744   O.2       1 RES1   0.0000
    31 O7       3.0528  -2.4101   1.3995   O.3       1 RES1   0.0000
    32 H10      3.7568  -2.2062   1.7676   H         1 RES1   0.0000
    33 S1       2.0615  -2.7573   2.4061   S.o2      1 RES1   0.0000
    34 C16      5.0840   2.4821  12.8223   C.ar      2 RES2   0.0000
    35 C17      3.9653   2.7195  12.0551   C.ar      2 RES2   0.0000
    36 H11      3.1393   2.8603  12.4585   H         2 RES2   0.0000
    37 C18      4.0882   2.7437  10.6691   C.ar      2 RES2   0.0000
    38 C19      5.2971   2.5586  10.0245   C.ar      2 RES2   0.0000
    39 C20      6.4163   2.3101  10.8332   C.ar      2 RES2   0.0000
    40 H12      7.2434   2.1722  10.4298   H         2 RES2   0.0000
    41 C21      6.3261   2.2640  12.1955   C.ar      2 RES2   0.0000
    42 H13      7.0826   2.0896  12.7056   H         2 RES2   0.0000
    43 C22      2.9859   2.9749   8.6088   C.2       2 RES2   0.0000
    44 H14      2.1848   3.0810   8.1481   H         2 RES2   0.0000
    45 C23      4.1038   2.8364   7.8794   C.2       2 RES2   0.0000
    46 C24      5.3756   2.6206   8.5554   C.2       2 RES2   0.0000
    47 C25      4.0015   2.8968   6.3844   C.ar      2 RES2   0.0000
    48 C26      3.1924   3.8461   5.7751   C.ar      2 RES2   0.0000
    49 H15      2.7348   4.4610   6.3014   H         2 RES2   0.0000
    50 C27      3.0535   3.8925   4.3855   C.ar      2 RES2   0.0000
    51 C28      3.7477   2.9839   3.5946   C.ar      2 RES2   0.0000
    52 C29      4.5925   2.0677   4.2016   C.ar      2 RES2   0.0000
    53 H16      5.0819   1.4729   3.6796   H         2 RES2   0.0000
    54 C30      4.7110   2.0306   5.5777   C.ar      2 RES2   0.0000
    55 H17      5.2810   1.4078   5.9692   H         2 RES2   0.0000
    56 O8       5.0664   2.4151  14.1676   O.3       2 RES2   0.0000
    57 H18      4.3034   2.5463  14.4377   H         2 RES2   0.0000
    58 O9       2.9298   2.9713   9.9701   O.3       2 RES2   0.0000
    59 O10      6.4571   2.5005   7.9581   O.2       2 RES2   0.0000
    60 O11      3.5727   3.0409   2.2445   O.3       2 RES2   0.0000
    61 H19      4.0300   2.4616   1.8863   H         2 RES2   0.0000
    62 O12      1.5331   5.9287   4.7451   O.3       2 RES2  -1.0000
    63 O13      0.9442   4.4112   2.9668   O.2       2 RES2   0.0000
    64 O14      2.8344   5.8742   2.7127   O.2       2 RES2   0.0000
    65 S2       2.0154   5.1075   3.6486   S.o2      2 RES2   0.0000
    66 Fe1     -0.5505   7.0606   0.0000   Fe        3 RES3   2.0000
    67 O15     -1.1527   5.8931   1.7277   O.3       3 RES3   0.0000
    68 H20     -0.6346   5.3448   2.1255   H         3 RES3   0.0000
    69 H21     -1.9153   5.8376   2.1255   H         3 RES3   0.0000
    70 O16      1.2933   7.4711   0.9162   O.3       3 RES3   0.0000
    71 H22      1.5815   7.2644   1.6846   H         3 RES3   0.0000
    72 H23      1.7272   8.1710   0.6643   H         3 RES3   0.0000
    73 O17     -1.4239   8.7481   0.8984   O.3       3 RES3   0.0000
    74 H24     -2.0950   9.1642   0.5833   H         3 RES3   0.0000
    75 H25     -0.9033   9.3887   1.1013   H         3 RES3   0.0000
    76 O15A     0.0517   8.2281  -1.7277   O.3       3 RES3   0.0000
    77 H20A    -0.4664   8.7763  -2.1255   H         3 RES3   0.0000
    78 H21A     0.8143   8.2835  -2.1255   H         3 RES3   0.0000
    79 O16A    -2.3943   6.6501  -0.9162   O.3       3 RES3   0.0000
    80 H22A    -2.6825   6.8567  -1.6846   H         3 RES3   0.0000
    81 H23A    -2.8281   5.9502  -0.6643   H         3 RES3   0.0000
    82 O17A     0.3230   5.3730  -0.8984   O.3       3 RES3   0.0000
    83 H24A     0.9941   4.9570  -0.5833   H         3 RES3   0.0000
    84 H25A    -0.1976   4.7324  -1.1013   H         3 RES3   0.0000
    85 O18      1.5368   0.2900  14.8173   O.3       4 RES4   0.0000
    86 H26      1.5304   1.0889  15.1040   H         4 RES4   0.0000
    87 H27      1.7071  -0.2206  15.4757   H         4 RES4   0.0000
    88 O19      4.8030   1.1329   0.9870   O.3       5 RES5   0.0000
    89 H28      4.3971   0.9929   0.2531   H         5 RES5   0.0000
    90 H29      5.5782   1.2922   0.6762   H         5 RES5   0.0000
    91 O20      0.6805   2.4026   0.8225   O.3       6 RES6   0.0000
    92 H30      1.4538   2.3541   0.4330   H         6 RES6   0.0000
    93 H31      0.7390   3.0637   1.3663   H         6 RES6   0.0000
    94 O21      2.8758   9.4845   0.0556   O.3       7 RES7   0.0000
    95 H32      2.4123  10.1519   0.2847   H         7 RES7   0.0000
    96 H33      2.9340   9.4742  -0.7889   H         7 RES7   0.0000
    97 O22      4.1987  12.8055   2.3351   O.3       8 RES8   0.0000
    98 H34      4.2106  13.6335   2.0741   H         8 RES8   0.0000
    99 H35      4.9811  12.5981   2.5407   H         8 RES8   0.0000
   100 O23      4.3576  12.2692   4.8719   O.3       9 RES9   0.0000
   101 H36      3.8473  11.5840   4.7196   H         9 RES9   0.0000
   102 H37      4.9266  12.0108   5.4532   H         9 RES9   0.0000
   103 O24      4.8307   9.8750   5.1704   O.3      10 RES10   0.0000
   104 H38      4.9785   9.8846   4.3360   H        10 RES10   0.0000
   105 H39      5.5556   9.6373   5.5580   H        10 RES10   0.0000
@<TRIPOS>BOND
     1     1     2   ar
     2     2     3    1
     3     4     2   ar
     4     5     4   ar
     5     6     5   ar
     6     7     6    1
     7     8     1   ar
     8     9     8    1
     9    10    11    1
    10    12    10    2
    11    13     5    1
    12    14    12    1
    13    15    14   ar
    14    16    15    1
    15    17    15   ar
    16    18    17    1
    17    19    17   ar
    18    20    19   ar
    19    21    14   ar
    20    22    21    1
    21    23     1    1
    22    24    23    1
    23    25     4    1
    24    26    13    2
    25    27    19    1
    26    28    27    1
    27    29    33    2
    28    30    33    2
    29    31    32    1
    30    33    20    1
    31     6     8   ar
    32    10    25    1
    33    12    13    1
    34    20    21   ar
    35    31    33    1
    36    34    35   ar
    37    35    36    1
    38    37    35   ar
    39    38    37   ar
    40    39    38   ar
    41    40    39    1
    42    41    34   ar
    43    42    41    1
    44    43    44    1
    45    45    43    2
    46    46    38    1
    47    47    45    1
    48    48    47   ar
    49    49    48    1
    50    50    48   ar
    51    51    50   ar
    52    52    51   ar
    53    53    52    1
    54    54    47   ar
    55    55    54    1
    56    56    34    1
    57    57    56    1
    58    58    37    1
    59    59    46    2
    60    60    51    1
    61    61    60    1
    62    62    65    1
    63    63    65    2
    64    64    65    2
    65    65    50    1
    66    39    41   ar
    67    43    58    1
    68    45    46    1
    69    52    54   ar
    70    66    67    1
    71    67    68    1
    72    69    67    1
    73    70    66    1
    74    71    70    1
    75    72    70    1
    76    73    66    1
    77    74    73    1
    78    75    73    1
    79    76    66    1
    80    77    76    1
    81    78    76    1
    82    79    66    1
    83    80    79    1
    84    81    79    1
    85    82    66    1
    86    83    82    1
    87    84    82    1
    88    85    86    1
    89    87    85    1
    90    88    89    1
    91    90    88    1
    92    91    92    1
    93    93    91    1
    94    94    95    1
    95    96    94    1
    96    97    98    1
    97    99    97    1
    98   100   101    1
    99   102   100    1
   100   103   104    1
   101   105   103    1
@<TRIPOS>SUBSTRUCTURE
     1 RES1        1 GROUP             0 ****  ****    0  
     2 RES2       34 GROUP             0 ****  ****    0  
     3 RES3       66 GROUP             0 ****  ****    0  
     4 RES4       85 GROUP             0 ****  ****    0  
     5 RES5       88 GROUP             0 ****  ****    0  
     6 RES6       91 GROUP             0 ****  ****    0  
     7 RES7       94 GROUP             0 ****  ****    0  
     8 RES8       97 GROUP             0 ****  ****    0  
     9 RES9      100 GROUP             0 ****  ****    0  
    10 RES10     103 GROUP             0 ****  ****    0  
@<TRIPOS>CRYSIN
    6.7811   14.1640   20.5340  104.4810   94.6870   94.4580     2     1
