@<TRIPOS>MOLECULE
AXUHEG
   106   110     4     0     0
SMALL
USER_CHARGES
****
Generated from the CSD

@<TRIPOS>ATOM
     1 Fe1     10.7484   3.2271  10.4984   Fe        1 RES1   0.0000
     2 N1      11.5073   4.6318  11.6634   N.ar      1 RES1   0.0000
     3 N2      11.4391   4.5100  13.0139   N.ar      1 RES1   0.0000
     4 N3       9.1737   3.1868  11.6997   N.ar      1 RES1   0.0000
     5 N4       9.3420   3.2003  13.0437   N.ar      1 RES1   0.0000
     6 N5      11.6268   1.9049  11.6819   N.ar      1 RES1   0.0000
     7 N6      11.5293   2.0407  13.0277   N.ar      1 RES1   0.0000
     8 N7       9.6078   0.9610   8.7706   N.1       1 RES1   0.0000
     9 N8      13.1537   3.3652   8.5913   N.1       1 RES1   0.0000
    10 N9       9.3028   5.2551   8.7092   N.1       1 RES1   0.0000
    11 B1      10.7723   3.2561  13.5941   B         1 RES1   0.0000
    12 H1      10.7713   3.2649  14.6473   H         1 RES1   0.0000
    13 C1      12.1563   5.7734  11.4149   C.ar      1 RES1   0.0000
    14 H2      12.3445   6.1049  10.5661   H         1 RES1   0.0000
    15 C2      12.5058   6.3898  12.5973   C.ar      1 RES1   0.0000
    16 H3      12.9586   7.1945  12.7001   H         1 RES1   0.0000
    17 C3      12.0432   5.5636  13.5891   C.ar      1 RES1   0.0000
    18 H4      12.1324   5.7080  14.5044   H         1 RES1   0.0000
    19 C4       7.8499   3.1836  11.4826   C.ar      1 RES1   0.0000
    20 H5       7.4490   3.1780  10.6426   H         1 RES1   0.0000
    21 C5       7.1686   3.1908  12.6763   C.ar      1 RES1   0.0000
    22 H6       6.2472   3.1853  12.8004   H         1 RES1   0.0000
    23 C6       8.1373   3.2069  13.6455   C.ar      1 RES1   0.0000
    24 H7       7.9885   3.2202  14.5633   H         1 RES1   0.0000
    25 C7      12.3418   0.7962  11.4601   C.ar      1 RES1   0.0000
    26 H8      12.5651   0.4675  10.6187   H         1 RES1   0.0000
    27 C8      12.7009   0.2093  12.6562   C.ar      1 RES1   0.0000
    28 H9      13.1973  -0.5674  12.7804   H         1 RES1   0.0000
    29 C9      12.1664   1.0256  13.6217   C.ar      1 RES1   0.0000
    30 H10     12.2350   0.8938  14.5395   H         1 RES1   0.0000
    31 C10     10.0314   1.8197   9.3975   C.1       1 RES1  -1.0000
    32 C11     12.2603   3.3084   9.3022   C.1       1 RES1   0.0000
    33 C12      9.8663   4.5024   9.3611   C.1       1 RES1   0.0000
    34 N10      7.5194  -1.1731   7.7022   N.3       2 RES2   0.0000
    35 H11      8.2122  -0.8494   8.2716   H         2 RES2   0.0000
    36 N11      6.7433   1.3581   6.7865   N.4       2 RES2   1.0000
    37 H12      7.4451   0.8262   6.4660   H         2 RES2   0.0000
    38 H13      5.9604   1.1903   6.2240   H         2 RES2   0.0000
    39 C13      6.2545  -0.5940   8.1938   C.3       2 RES2   0.0000
    40 H14      5.5440  -0.8546   7.5707   H         2 RES2   0.0000
    41 C14      5.8432  -1.0587   9.5919   C.3       2 RES2   0.0000
    42 H15      5.7149  -2.0209   9.5831   H         2 RES2   0.0000
    43 H16      6.5578  -0.8602  10.2175   H         2 RES2   0.0000
    44 C15      4.5583  -0.3875  10.0708   C.3       2 RES2   0.0000
    45 H17      3.8172  -0.6833   9.5204   H         2 RES2   0.0000
    46 H18      4.3767  -0.6552  10.9849   H         2 RES2   0.0000
    47 C16      4.6622   1.1261  10.0019   C.3       2 RES2   0.0000
    48 H19      3.8062   1.5182  10.2363   H         2 RES2   0.0000
    49 H20      5.3188   1.4326  10.6476   H         2 RES2   0.0000
    50 C17      5.0661   1.5948   8.6164   C.3       2 RES2   0.0000
    51 H21      5.1820   2.5569   8.6226   H         2 RES2   0.0000
    52 H22      4.3593   1.3822   7.9869   H         2 RES2   0.0000
    53 C18      6.3622   0.9284   8.1662   C.3       2 RES2   0.0000
    54 H23      7.0764   1.1980   8.7806   H         2 RES2   0.0000
    55 C19      7.1266   2.7969   6.6403   C.3       2 RES2   0.0000
    56 H24      7.8442   3.0065   7.2585   H         2 RES2   0.0000
    57 H25      6.3665   3.3592   6.8585   H         2 RES2   0.0000
    58 C20      7.5794   3.0877   5.2272   C.3       2 RES2   0.0000
    59 H26      7.5422   4.0474   5.0918   H         2 RES2   0.0000
    60 H27      6.9383   2.6860   4.6179   H         2 RES2   0.0000
    61 C21      7.5551  -2.6585   7.7073   C.3       2 RES2   0.0000
    62 C22      6.4756  -3.2300   6.7996   C.3       2 RES2   0.0000
    63 H28      6.4913  -2.7715   5.9570   H         2 RES2   0.0000
    64 H29      6.6395  -4.1656   6.6579   H         2 RES2   0.0000
    65 H30      5.6164  -3.1146   7.2121   H         2 RES2   0.0000
    66 C21A     8.9698   2.6082   4.8310   C.3       2 RES2   0.0000
    67 N10A     9.0055   1.1228   4.8362   N.3       2 RES2   0.0000
    68 H11A     8.3127   0.7990   4.2668   H         2 RES2   0.0000
    69 C13A    10.2704   0.5437   4.3445   C.3       2 RES2   0.0000
    70 H14A    10.9809   0.8042   4.9677   H         2 RES2   0.0000
    71 C14A    10.6818   1.0084   2.9465   C.3       2 RES2   0.0000
    72 H15A    10.8101   1.9706   2.9553   H         2 RES2   0.0000
    73 H16A     9.9672   0.8099   2.3209   H         2 RES2   0.0000
    74 C15A    11.9666   0.3372   2.4676   C.3       2 RES2   0.0000
    75 H17A    12.7078   0.6330   3.0180   H         2 RES2   0.0000
    76 H18A    12.1482   0.6049   1.5535   H         2 RES2   0.0000
    77 C16A    11.8627  -1.1764   2.5365   C.3       2 RES2   0.0000
    78 H19A    12.7187  -1.5686   2.3020   H         2 RES2   0.0000
    79 H20A    11.2061  -1.4829   1.8908   H         2 RES2   0.0000
    80 C17A    11.4588  -1.6451   3.9220   C.3       2 RES2   0.0000
    81 H21A    11.3429  -2.6073   3.9157   H         2 RES2   0.0000
    82 H22A    12.1657  -1.4326   4.5514   H         2 RES2   0.0000
    83 C18A    10.1628  -0.9787   4.3721   C.3       2 RES2   0.0000
    84 N11A     9.7816  -1.4084   5.7519   N.4       2 RES2   1.0000
    85 H12A     9.0798  -0.8765   6.0723   H         2 RES2   0.0000
    86 H13A    10.5645  -1.2406   6.3143   H         2 RES2   0.0000
    87 C19A     9.3984  -2.8473   5.8980   C.3       2 RES2   0.0000
    88 H24A     8.6808  -3.0568   5.2799   H         2 RES2   0.0000
    89 H25A    10.1585  -3.4095   5.6799   H         2 RES2   0.0000
    90 C20A     8.9456  -3.1380   7.3111   C.3       2 RES2   0.0000
    91 H26A     8.9828  -4.0977   7.4465   H         2 RES2   0.0000
    92 H27A     9.5867  -2.7363   7.9205   H         2 RES2   0.0000
    93 H23A     9.4486  -1.2483   3.7577   H         2 RES2   0.0000
    94 C22A    10.0493   3.1796   5.7388   C.3       2 RES2   0.0000
    95 H28A    10.0337   2.7212   6.5814   H         2 RES2   0.0000
    96 H29A     9.8854   4.1153   5.8805   H         2 RES2   0.0000
    97 H30A    10.9086   3.0643   5.3263   H         2 RES2   0.0000
    98 O1       7.8393   6.6257   6.6366   O.3       3 RES3   0.0000
    99 H31      8.2751   6.0457   7.3638   H         3 RES3   0.0000
   100 H32      8.3833   6.7052   5.7902   H         3 RES3   0.0000
   101 O2       4.4707   1.3171   5.2749   O.3       4 RES4   0.0000
   102 H33      3.7885   2.0063   5.5106   H         4 RES4   0.0000
   103 C23      3.8538   0.2729   4.7746   C.3       4 RES4   0.0000
   104 H34      3.7358   0.3937   3.8292   H         4 RES4   0.0000
   105 H35      4.3800  -0.5149   4.9338   H         4 RES4   0.0000
   106 H36      2.9969   0.1762   5.1946   H         4 RES4   0.0000
@<TRIPOS>BOND
     1     1     2    1
     2     2     3   ar
     3     3    11    1
     4     4     1    1
     5     5     4   ar
     6     6     1    1
     7     7     6   ar
     8     8    31    3
     9     9    32    3
    10    10    33    3
    11    11     5    1
    12    12    11    1
    13    13     2   ar
    14    14    13    1
    15    15    13   ar
    16    16    15    1
    17    17     3   ar
    18    18    17    1
    19    19     4   ar
    20    20    19    1
    21    21    19   ar
    22    22    21    1
    23    23     5   ar
    24    24    23    1
    25    25     6   ar
    26    26    25    1
    27    27    25   ar
    28    28    27    1
    29    29     7   ar
    30    30    29    1
    31    31     1    1
    32    32     1    1
    33    33     1    1
    34     7    11    1
    35    15    17   ar
    36    21    23   ar
    37    27    29   ar
    38    34    35    1
    39    36    37    1
    40    38    36    1
    41    39    34    1
    42    40    39    1
    43    41    39    1
    44    42    41    1
    45    43    41    1
    46    44    41    1
    47    45    44    1
    48    46    44    1
    49    47    44    1
    50    48    47    1
    51    49    47    1
    52    50    47    1
    53    51    50    1
    54    52    50    1
    55    53    36    1
    56    54    53    1
    57    55    36    1
    58    56    55    1
    59    57    55    1
    60    58    55    1
    61    59    58    1
    62    60    58    1
    63    61    34    1
    64    62    61    1
    65    63    62    1
    66    64    62    1
    67    65    62    1
    68    66    58    1
    69    67    66    1
    70    68    67    1
    71    69    67    1
    72    70    69    1
    73    71    69    1
    74    72    71    1
    75    73    71    1
    76    74    71    1
    77    75    74    1
    78    76    74    1
    79    77    74    1
    80    78    77    1
    81    79    77    1
    82    80    77    1
    83    81    80    1
    84    82    80    1
    85    83    69    1
    86    84    83    1
    87    85    84    1
    88    86    84    1
    89    87    84    1
    90    88    87    1
    91    89    87    1
    92    90    61    1
    93    91    90    1
    94    92    90    1
    95    93    83    1
    96    94    66    1
    97    95    94    1
    98    96    94    1
    99    97    94    1
   100    39    53    1
   101    50    53    1
   102    80    83    1
   103    87    90    1
   104    98    99    1
   105   100    98    1
   106   101   102    1
   107   103   101    1
   108   104   103    1
   109   105   103    1
   110   106   103    1
@<TRIPOS>SUBSTRUCTURE
     1 RES1        1 GROUP             0 ****  ****    0  
     2 RES2       34 GROUP             0 ****  ****    0  
     3 RES3       98 GROUP             0 ****  ****    0  
     4 RES4      101 GROUP             0 ****  ****    0  
@<TRIPOS>CRYSIN
   11.3800   11.4470   13.5530   79.5500   67.6900   60.9000     2     1
