@<TRIPOS>MOLECULE
AXUNEP
   102   108     5     0     0
SMALL
USER_CHARGES
****
Generated from the CSD

@<TRIPOS>ATOM
     1 Fe1     13.9399   3.7108   8.4979   Fe        1 RES1   2.0000
     2 N1      13.8031   1.7519   7.4912   N.ar      1 RES1   0.0000
     3 N2      12.3336   3.0428   9.9306   N.ar      1 RES1   0.0000
     4 N3      13.2117   5.7485   8.9663   N.ar      1 RES1   0.0000
     5 N4      12.1215   3.8338   7.2584   N.3       1 RES1   0.0000
     6 O1      15.8495   3.3929   9.2247   O.3       1 RES1   0.0000
     7 H1      16.4351   3.5460   8.6091   H         1 RES1   0.0000
     8 H2      15.9296   2.5735   9.4832   H         1 RES1   0.0000
     9 C1      14.7947   6.2341  10.7291   C.ar      1 RES1   0.0000
    10 H3      15.2334   5.4336  10.5523   H         1 RES1   0.0000
    11 N5      14.6571   4.3869   6.5135   N.ar      1 RES1   0.0000
    12 C2      12.8686   0.7235   5.5383   C.ar      1 RES1   0.0000
    13 H4      12.4088   0.8124   4.7349   H         1 RES1   0.0000
    14 C3      14.2784   0.5461   7.8703   C.ar      1 RES1   0.0000
    15 H5      14.7731   0.4896   8.6554   H         1 RES1   0.0000
    16 C4      13.6762   2.9295  11.9433   C.ar      1 RES1   0.0000
    17 H6      14.4352   3.1505  11.4544   H         1 RES1   0.0000
    18 C5      12.4396   2.8308  11.2935   C.ar      1 RES1   0.0000
    19 C6      11.0336   3.0584   7.8679   C.3       1 RES1   0.0000
    20 H7      11.0279   2.1690   7.4827   H         1 RES1   0.0000
    21 H8      10.1871   3.4796   7.6497   H         1 RES1   0.0000
    22 C7      14.0624  -0.6014   7.1413   C.ar      1 RES1   0.0000
    23 H9      14.3959  -1.4186   7.4339   H         1 RES1   0.0000
    24 C8      11.1469   2.9416   9.3601   C.ar      1 RES1   0.0000
    25 C9      13.0010   7.8043  10.2488   C.ar      1 RES1   0.0000
    26 C10     11.2963   2.4915  12.0640   C.ar      1 RES1   0.0000
    27 C11     12.6263   3.2167   5.9881   C.3       1 RES1   0.0000
    28 H10     11.9269   3.1931   5.3018   H         1 RES1   0.0000
    29 C12      9.9628   2.6634  10.0781   C.ar      1 RES1   0.0000
    30 H11      9.1403   2.6397   9.6441   H         1 RES1   0.0000
    31 C13     13.6617   6.5865   9.9793   C.ar      1 RES1   0.0000
    32 C14     11.4715   7.3192   8.4933   C.ar      1 RES1   0.0000
    33 H12     10.7343   7.5405   7.9703   H         1 RES1   0.0000
    34 C15     11.7503   5.2640   7.0840   C.3       1 RES1   0.0000
    35 H13     10.7889   5.3300   6.9682   H         1 RES1   0.0000
    36 H14     12.1695   5.6049   6.2782   H         1 RES1   0.0000
    37 C16     12.1649   6.1164   8.2556   C.ar      1 RES1   0.0000
    38 C17     13.1059   1.8112   6.3392   C.ar      1 RES1   0.0000
    39 C18     14.0699   4.3103   4.1924   C.ar      1 RES1   0.0000
    40 H15     13.4660   4.0710   3.5292   H         1 RES1   0.0000
    41 C19     14.6040   8.2711  12.0006   C.ar      1 RES1   0.0000
    42 H16     14.9228   8.8255  12.6759   H         1 RES1   0.0000
    43 C20     16.1097   5.3471   4.8897   C.ar      1 RES1   0.0000
    44 H17     16.9028   5.7934   4.6983   H         1 RES1   0.0000
    45 C21     13.3358  -0.5142   5.9625   C.ar      1 RES1   0.0000
    46 H18     13.1623  -1.2782   5.4602   H         1 RES1   0.0000
    47 C22     15.7684   5.0452   6.1844   C.ar      1 RES1   0.0000
    48 H19     16.3421   5.3142   6.8658   H         1 RES1   0.0000
    49 C23     10.0440   2.4279  11.4191   C.ar      1 RES1   0.0000
    50 H20      9.2786   2.2276  11.9067   H         1 RES1   0.0000
    51 C24     13.8246   4.0159   5.5224   C.ar      1 RES1   0.0000
    52 C25     13.5087   8.6341  11.2935   C.ar      1 RES1   0.0000
    53 H21     13.0803   9.4360  11.4910   H         1 RES1   0.0000
    54 C26     15.2456   4.9750   3.8815   C.ar      1 RES1   0.0000
    55 H22     15.4522   5.1682   2.9953   H         1 RES1   0.0000
    56 C27     13.7811   2.7023  13.2916   C.ar      1 RES1   0.0000
    57 H23     14.6079   2.7907  13.7073   H         1 RES1   0.0000
    58 C28     11.8719   8.1500   9.4759   C.ar      1 RES1   0.0000
    59 H24     11.4100   8.9394   9.6417   H         1 RES1   0.0000
    60 C29     15.2606   7.0617  11.7214   C.ar      1 RES1   0.0000
    61 H25     16.0131   6.8212  12.2090   H         1 RES1   0.0000
    62 C30     11.4291   2.2482  13.4440   C.ar      1 RES1   0.0000
    63 H26     10.6807   2.0245  13.9499   H         1 RES1   0.0000
    64 C31     12.6617   2.3389  14.0498   C.ar      1 RES1   0.0000
    65 H27     12.7508   2.1587  14.9580   H         1 RES1   0.0000
    66 S1       6.9991   5.3137   7.8959   S.o2      2 RES2   0.0000
    67 O2       6.3482   6.2080   6.9877   O.2       2 RES2   0.0000
    68 O3       6.1672   4.2339   8.3568   O.3       2 RES2  -1.0000
    69 F1       6.1142   6.6868   9.9318   F         2 RES2   0.0000
    70 F2       7.9228   7.4496   9.0553   F         2 RES2   0.0000
    71 F3       7.9602   5.6975  10.3000   F         2 RES2   0.0000
    72 O4       8.3194   4.9342   7.5314   O.2       2 RES2   0.0000
    73 C32      7.2514   6.3382   9.3759   C.3       2 RES2   0.0000
    74 S2       5.5617   2.9671  13.9784   S.o2      3 RES3   0.0000
    75 F4       6.8529   3.3012  11.7568   F         3 RES3   0.0000
    76 F5       6.8201   5.0363  13.0380   F         3 RES3   0.0000
    77 O5       6.7952   2.5364  14.5899   O.2       3 RES3   0.0000
    78 F6       5.0986   4.4626  11.9152   F         3 RES3   0.0000
    79 O6       4.8396   1.8990  13.3257   O.3       3 RES3  -1.0000
    80 O7       4.7813   3.8417  14.7935   O.2       3 RES3   0.0000
    81 C33      6.1227   4.0091  12.6028   C.3       3 RES3   0.0000
    82 O8       4.0769   1.3137  10.7047   O.3       4 RES4   0.0000
    83 H28      4.3290   2.0639  10.3963   H         4 RES4   0.0000
    84 H29      4.6269   0.7108  10.4670   H         4 RES4   0.0000
    85 C34      8.8091   0.1821   7.4132   C.ar      5 RES5   0.0000
    86 H30      8.6119   0.0021   8.3043   H         5 RES5   0.0000
    87 C35      8.6998   1.5672   5.5285   C.ar      5 RES5   0.0000
    88 C36      8.3781   1.3436   6.8536   C.ar      5 RES5   0.0000
    89 H31      7.8860   1.9644   7.3425   H         5 RES5   0.0000
    90 C37      8.3024   2.7682   4.9397   C.3       5 RES5   0.0000
    91 H32      8.8089   2.9140   4.1375   H         5 RES5   0.0000
    92 H33      8.4574   3.4916   5.5517   H         5 RES5   0.0000
    93 H34      7.3673   2.7268   4.7251   H         5 RES5   0.0000
    94 C34A     9.4425   0.6277   4.7776   C.ar      5 RES5   0.0000
    95 H30A     9.6397   0.8077   3.8864   H         5 RES5   0.0000
    96 C35A     9.5518  -0.7574   6.6622   C.ar      5 RES5   0.0000
    97 C36A     9.8736  -0.5338   5.3371   C.ar      5 RES5   0.0000
    98 H31A    10.3656  -1.1546   4.8483   H         5 RES5   0.0000
    99 C37A     9.9492  -1.9583   7.2511   C.3       5 RES5   0.0000
   100 H32A     9.4427  -2.1042   8.0532   H         5 RES5   0.0000
   101 H33A     9.7942  -2.6817   6.6391   H         5 RES5   0.0000
   102 H34A    10.8843  -1.9169   7.4656   H         5 RES5   0.0000
@<TRIPOS>BOND
     1     1     2    1
     2     2    14   ar
     3     3     1    1
     4     4     1    1
     5     5     1    1
     6     6     1    1
     7     7     6    1
     8     8     6    1
     9     9    10    1
    10    11     1    1
    11    12    13    1
    12    14    15    1
    13    16    17    1
    14    18     3   ar
    15    19     5    1
    16    20    19    1
    17    21    19    1
    18    22    14   ar
    19    23    22    1
    20    24     3   ar
    21    25    31   ar
    22    26    18   ar
    23    27     5    1
    24    28    27    1
    25    29    24   ar
    26    30    29    1
    27    31     4   ar
    28    32    33    1
    29    34     5    1
    30    35    34    1
    31    36    34    1
    32    37     4   ar
    33    38     2   ar
    34    39    40    1
    35    41    42    1
    36    43    44    1
    37    45    12   ar
    38    46    45    1
    39    47    11   ar
    40    48    47    1
    41    49    26   ar
    42    50    49    1
    43    51    11   ar
    44    52    25   ar
    45    53    52    1
    46    54    39   ar
    47    55    54    1
    48    56    16   ar
    49    57    56    1
    50    58    25   ar
    51    59    58    1
    52    60     9   ar
    53    61    60    1
    54    62    26   ar
    55    63    62    1
    56    64    56   ar
    57    65    64    1
    58     9    31   ar
    59    12    38   ar
    60    16    18   ar
    61    19    24    1
    62    22    45   ar
    63    27    38    1
    64    27    51    1
    65    29    49   ar
    66    32    37   ar
    67    32    58   ar
    68    34    37    1
    69    39    51   ar
    70    41    52   ar
    71    41    60   ar
    72    43    47   ar
    73    43    54   ar
    74    62    64   ar
    75    66    67    2
    76    68    66    1
    77    69    73    1
    78    70    73    1
    79    71    73    1
    80    72    66    2
    81    73    66    1
    82    74    77    2
    83    75    81    1
    84    76    81    1
    85    78    81    1
    86    79    74    1
    87    80    74    2
    88    81    74    1
    89    82    83    1
    90    84    82    1
    91    85    86    1
    92    87    88   ar
    93    88    85   ar
    94    89    88    1
    95    90    87    1
    96    91    90    1
    97    92    90    1
    98    93    90    1
    99    94    87   ar
   100    95    94    1
   101    96    85   ar
   102    97    94   ar
   103    98    97    1
   104    99    96    1
   105   100    99    1
   106   101    99    1
   107   102    99    1
   108    96    97   ar
@<TRIPOS>SUBSTRUCTURE
     1 RES1        1 GROUP             0 ****  ****    0  
     2 RES2       66 GROUP             0 ****  ****    0  
     3 RES3       74 GROUP             0 ****  ****    0  
     4 RES4       82 GROUP             0 ****  ****    0  
     5 RES5       85 GROUP             0 ****  ****    0  
@<TRIPOS>CRYSIN
   12.1870   12.9660   13.6400   84.7210   63.6010   85.7700     2     1
