@<TRIPOS>MOLECULE
AYEWOQ
   108   112     3     0     0
SMALL
USER_CHARGES
****
Generated from the CSD

@<TRIPOS>ATOM
     1 Fe1      6.1494   6.0868   5.3943   Fe        1 RES1   1.0000
     2 P1       6.1592   3.7765   5.3541   P.3       1 RES1   0.0000
     3 O1       4.2276   6.0868   5.8893   O.2       1 RES1   0.0000
     4 C1       4.9770   6.0868   6.9148   C.2       1 RES1   0.0000
     5 N1       4.5727   6.0868   8.1564   N.am      1 RES1   0.0000
     6 C2       3.0996   6.0868   8.5077   C.3       1 RES1   0.0000
     7 H1       3.0334   6.0868   9.4962   H         1 RES1   0.0000
     8 C3       2.4108   4.8353   8.0113   C.3       1 RES1   0.0000
     9 H2       2.8774   4.0538   8.3484   H         1 RES1   0.0000
    10 H3       2.4188   4.8231   7.0414   H         1 RES1   0.0000
    11 H4       1.4933   4.8231   8.3277   H         1 RES1   0.0000
    12 C4       5.5521   6.0868   9.2725   C.3       1 RES1   0.0000
    13 H5       6.4576   6.0868   8.8721   H         1 RES1   0.0000
    14 C5       5.4267   4.8256  10.1071   C.3       1 RES1   0.0000
    15 H6       5.5132   4.0489   9.5333   H         1 RES1   0.0000
    16 H7       4.5602   4.8110  10.5425   H         1 RES1   0.0000
    17 H8       6.1266   4.8110  10.7781   H         1 RES1   0.0000
    18 C6       6.0786   6.0868   3.5720   C.1       1 RES1   0.0000
    19 O2       5.9741   6.0868   2.4406   O.2       1 RES1   0.0000
    20 C7       7.8940   6.0868   5.6525   C.1       1 RES1   0.0000
    21 O3       9.0364   6.0868   5.7933   O.2       1 RES1   0.0000
    22 C8       7.9684   3.5145   3.2556   C.ar      1 RES1   0.0000
    23 H9       8.4392   4.1989   3.6964   H         1 RES1   0.0000
    24 C9       8.4718   2.9691   2.0806   C.ar      1 RES1   0.0000
    25 H10      9.2833   3.2844   1.7260   H         1 RES1   0.0000
    26 C10      7.7752   1.9573   1.4303   C.ar      1 RES1   0.0000
    27 H11      8.1159   1.5874   0.6350   H         1 RES1   0.0000
    28 C11      6.5752   1.4910   1.9540   C.ar      1 RES1   0.0000
    29 H12      6.1043   0.8059   1.5143   H         1 RES1   0.0000
    30 C12      6.0718   2.0366   3.1290   C.ar      1 RES1   0.0000
    31 H13      5.2602   1.7213   3.4847   H         1 RES1   0.0000
    32 C13      6.7683   3.0485   3.7804   C.ar      1 RES1   0.0000
    33 C14      3.5207   3.5225   4.6281   C.ar      1 RES1   0.0000
    34 H14      3.7401   4.1753   3.9877   H         1 RES1   0.0000
    35 C15      2.2298   3.0098   4.6837   C.ar      1 RES1   0.0000
    36 H15      1.5764   3.3161   4.0815   H         1 RES1   0.0000
    37 C16      1.9057   2.0444   5.6296   C.ar      1 RES1   0.0000
    38 H16      1.0330   1.6970   5.6667   H         1 RES1   0.0000
    39 C17      2.8725   1.5918   6.5199   C.ar      1 RES1   0.0000
    40 H17      2.6532   0.9398   7.1592   H         1 RES1   0.0000
    41 C18      4.1633   2.1046   6.4643   C.ar      1 RES1   0.0000
    42 H18      4.8168   1.7992   7.0665   H         1 RES1   0.0000
    43 C19      4.4875   3.0699   5.5183   C.ar      1 RES1   0.0000
    44 C20      7.4038   1.5137   6.4141   C.ar      1 RES1   0.0000
    45 H19      7.0600   1.0688   5.6613   H         1 RES1   0.0000
    46 C21      8.1297   0.8078   7.3665   C.ar      1 RES1   0.0000
    47 H20      8.2767  -0.1142   7.2574   H         1 RES1   0.0000
    48 C22      8.6392   1.4657   8.4804   C.ar      1 RES1   0.0000
    49 H21      9.1309   0.9885   9.1241   H         1 RES1   0.0000
    50 C23      8.4227   2.8291   8.6419   C.ar      1 RES1   0.0000
    51 H22      8.7674   3.2747   9.3947   H         1 RES1   0.0000
    52 C24      7.6967   3.5349   7.6895   C.ar      1 RES1   0.0000
    53 H23      7.5507   4.4570   7.7986   H         1 RES1   0.0000
    54 C25      7.1873   2.8773   6.5755   C.ar      1 RES1   0.0000
    55 P1A      6.1592   8.3970   5.3541   P.3       1 RES1   0.0000
    56 C13A     6.7683   9.1250   3.7804   C.ar      1 RES1   0.0000
    57 C8A      7.9684   8.6590   3.2556   C.ar      1 RES1   0.0000
    58 H9A      8.4392   7.9746   3.6964   H         1 RES1   0.0000
    59 C9A      8.4718   9.2044   2.0806   C.ar      1 RES1   0.0000
    60 H10A     9.2833   8.8891   1.7260   H         1 RES1   0.0000
    61 C10A     7.7752  10.2162   1.4303   C.ar      1 RES1   0.0000
    62 H11A     8.1159  10.5861   0.6350   H         1 RES1   0.0000
    63 C11A     6.5752  10.6825   1.9540   C.ar      1 RES1   0.0000
    64 H12A     6.1043  11.3676   1.5143   H         1 RES1   0.0000
    65 C12A     6.0718  10.1369   3.1290   C.ar      1 RES1   0.0000
    66 H13A     5.2602  10.4522   3.4847   H         1 RES1   0.0000
    67 C19A     4.4875   9.1036   5.5183   C.ar      1 RES1   0.0000
    68 C14A     3.5207   8.6510   4.6281   C.ar      1 RES1   0.0000
    69 H14A     3.7401   7.9982   3.9877   H         1 RES1   0.0000
    70 C15A     2.2298   9.1637   4.6837   C.ar      1 RES1   0.0000
    71 H15A     1.5764   8.8574   4.0815   H         1 RES1   0.0000
    72 C16A     1.9057  10.1291   5.6296   C.ar      1 RES1   0.0000
    73 H16A     1.0330  10.4765   5.6667   H         1 RES1   0.0000
    74 C17A     2.8725  10.5817   6.5199   C.ar      1 RES1   0.0000
    75 H17A     2.6532  11.2337   7.1592   H         1 RES1   0.0000
    76 C18A     4.1633  10.0689   6.4643   C.ar      1 RES1   0.0000
    77 H18A     4.8168  10.3743   7.0665   H         1 RES1   0.0000
    78 C25A     7.1873   9.2962   6.5755   C.ar      1 RES1   0.0000
    79 C20A     7.4038  10.6598   6.4141   C.ar      1 RES1   0.0000
    80 H19A     7.0600  11.1047   5.6613   H         1 RES1   0.0000
    81 C21A     8.1297  11.3657   7.3665   C.ar      1 RES1   0.0000
    82 H20A     8.2767  12.2877   7.2574   H         1 RES1   0.0000
    83 C22A     8.6392  10.7078   8.4804   C.ar      1 RES1   0.0000
    84 H21A     9.1309  11.1850   9.1241   H         1 RES1   0.0000
    85 C23A     8.4227   9.3444   8.6419   C.ar      1 RES1   0.0000
    86 H22A     8.7674   8.8988   9.3947   H         1 RES1   0.0000
    87 C24A     7.6967   8.6386   7.6895   C.ar      1 RES1   0.0000
    88 H23A     7.5507   7.7165   7.7986   H         1 RES1   0.0000
    89 C3A      2.4108   7.3382   8.0113   C.3       1 RES1   0.0000
    90 H2A      2.8774   8.1197   8.3484   H         1 RES1   0.0000
    91 H3A      2.4188   7.3504   7.0414   H         1 RES1   0.0000
    92 H4A      1.4933   7.3504   8.3277   H         1 RES1   0.0000
    93 C5A      5.4267   7.3479  10.1071   C.3       1 RES1   0.0000
    94 H6A      5.5132   8.1246   9.5333   H         1 RES1   0.0000
    95 H7A      4.5602   7.3625  10.5425   H         1 RES1   0.0000
    96 H8A      6.1266   7.3625  10.7781   H         1 RES1   0.0000
    97 P2       1.7067   6.0868   1.1336   P.3       2 RES2  -1.0000
    98 F1       0.1973   6.0868   1.5754   F         2 RES2   0.0000
    99 F2       1.9896   7.2091   2.1842   F         2 RES2   0.0000
   100 F3       1.3675   7.2043   0.0927   F         2 RES2   0.0000
   101 F4       3.1774   6.0868   0.6873   F         2 RES2   0.0000
   102 F2A      1.9896   4.9644   2.1842   F         2 RES2   0.0000
   103 F3A      1.3675   4.9692   0.0927   F         2 RES2   0.0000
   104 C26      1.9412   2.2156  11.7088   C.3       3 RES3   0.0000
   105 H24      2.5365   2.6270  12.3710   H         3 RES3   0.0000
   106 H25      1.2457   2.8681  11.4851   H         3 RES3   0.0000
   107 Cl1      2.8576   1.8477  10.2719   Cl        3 RES3   0.0000
   108 Cl2      1.2200   0.8590  12.3885   Cl        3 RES3   0.0000
@<TRIPOS>BOND
     1     1     2    1
     2     2    32    1
     3     3     1    1
     4     4     1    1
     5     5     4   am
     6     6     5    1
     7     7     6    1
     8     8     6    1
     9     9     8    1
    10    10     8    1
    11    11     8    1
    12    12     5    1
    13    13    12    1
    14    14    12    1
    15    15    14    1
    16    16    14    1
    17    17    14    1
    18    18     1    1
    19    19    18    3
    20    20     1    1
    21    21    20    3
    22    22    23    1
    23    24    22   ar
    24    25    24    1
    25    26    24   ar
    26    27    26    1
    27    28    26   ar
    28    29    28    1
    29    30    28   ar
    30    31    30    1
    31    32    22   ar
    32    33    34    1
    33    35    33   ar
    34    36    35    1
    35    37    35   ar
    36    38    37    1
    37    39    37   ar
    38    40    39    1
    39    41    39   ar
    40    42    41    1
    41    43     2    1
    42    44    45    1
    43    46    44   ar
    44    47    46    1
    45    48    46   ar
    46    49    48    1
    47    50    48   ar
    48    51    50    1
    49    52    50   ar
    50    53    52    1
    51    54     2    1
    52    55     1    1
    53    56    55    1
    54    57    56   ar
    55    58    57    1
    56    59    57   ar
    57    60    59    1
    58    61    59   ar
    59    62    61    1
    60    63    61   ar
    61    64    63    1
    62    65    56   ar
    63    66    65    1
    64    67    55    1
    65    68    67   ar
    66    69    68    1
    67    70    68   ar
    68    71    70    1
    69    72    70   ar
    70    73    72    1
    71    74    72   ar
    72    75    74    1
    73    76    67   ar
    74    77    76    1
    75    78    55    1
    76    79    78   ar
    77    80    79    1
    78    81    79   ar
    79    82    81    1
    80    83    81   ar
    81    84    83    1
    82    85    83   ar
    83    86    85    1
    84    87    78   ar
    85    88    87    1
    86    89     6    1
    87    90    89    1
    88    91    89    1
    89    92    89    1
    90    93    12    1
    91    94    93    1
    92    95    93    1
    93    96    93    1
    94     3     4    2
    95    30    32   ar
    96    33    43   ar
    97    41    43   ar
    98    44    54   ar
    99    52    54   ar
   100    63    65   ar
   101    74    76   ar
   102    85    87   ar
   103    97    98    1
   104    99    97    1
   105   100    97    1
   106   101    97    1
   107   102    97    1
   108   103    97    1
   109   104   105    1
   110   106   104    1
   111   107   104    1
   112   108   104    1
@<TRIPOS>SUBSTRUCTURE
     1 RES1        1 GROUP             0 ****  ****    0  
     2 RES2       97 GROUP             0 ****  ****    0  
     3 RES3      104 GROUP             0 ****  ****    0  
@<TRIPOS>CRYSIN
    9.3490   24.3470   10.9800   90.0000   96.4670   90.0000    11     1
