@<TRIPOS>MOLECULE
AYIXOY
   125   132     3     0     0
SMALL
USER_CHARGES
****
Generated from the CSD

@<TRIPOS>ATOM
     1 Fe1      0.8112   3.4168   5.2139   Fe        1 RES1   1.0000
     2 N1       0.1683   6.0579   4.5250   N.pl3     1 RES1   0.0000
     3 C1       1.5008   3.5774   2.4525   C.ar      1 RES1   0.0000
     4 C2       2.3543   1.2212   2.1086   C.2       1 RES1   0.0000
     5 H1       2.6392   1.2382   1.2026   H         1 RES1   0.0000
     6 N2       1.0287   4.2575   3.5124   N.ar      1 RES1   0.0000
     7 C3       2.3872   0.1792   2.9526   C.2       1 RES1   0.0000
     8 H2       2.7009  -0.6941   2.7493   H         1 RES1   0.0000
     9 N3       1.8122   2.2785   2.8467   N.pl3     1 RES1   0.0000
    10 P1      -1.2930   2.7947   4.7930   P.3       1 RES1   0.0000
    11 Br1      0.5099   2.3175   7.4571   Br        1 RES1   0.0000
    12 P2       2.8646   3.8904   5.9518   P.3       1 RES1   0.0000
    13 N4       1.8753   0.6060   4.1867   N.pl3     1 RES1   0.0000
    14 C4       1.5142   1.9157   4.1560   C.3       1 RES1   0.0000
    15 C5       0.6503   5.5387   3.3300   C.ar      1 RES1   0.0000
    16 C6       0.7102   6.1766   2.1047   C.ar      1 RES1   0.0000
    17 H3       0.4356   7.0803   2.0043   H         1 RES1   0.0000
    18 C7       1.1891   5.4387   1.0252   C.ar      1 RES1   0.0000
    19 H4       1.2373   5.8414   0.1667   H         1 RES1   0.0000
    20 C8       1.5995   4.1171   1.1882   C.ar      1 RES1   0.0000
    21 H5       1.9336   3.6087   0.4576   H         1 RES1   0.0000
    22 N5      -0.4163   6.0002   6.5838   N.pl3     1 RES1   0.0000
    23 C9      -0.3984   7.3040   4.7965   C.2       1 RES1   0.0000
    24 H6      -0.5002   8.0307   4.1949   H         1 RES1   0.0000
    25 C10     -0.7670   7.2606   6.0821   C.2       1 RES1   0.0000
    26 H7      -1.1915   7.9583   6.5682   H         1 RES1   0.0000
    27 C11      0.1531   5.2130   5.6325   C.3       1 RES1   0.0000
    28 C12      1.7320  -0.2887   5.3340   C.3       1 RES1   0.0000
    29 H8       1.2788   0.1953   6.0680   H         1 RES1   0.0000
    30 H9       2.6312  -0.5526   5.6529   H         1 RES1   0.0000
    31 C13      0.9477  -1.5222   5.0000   C.2       1 RES1   0.0000
    32 H10      0.1129  -1.4190   4.5603   H         1 RES1   0.0000
    33 C14      1.3566  -2.7468   5.2856   C.2       1 RES1   0.0000
    34 H11      2.1878  -2.8795   5.7256   H         1 RES1   0.0000
    35 H12      0.8184  -3.4929   5.0498   H         1 RES1   0.0000
    36 C15     -0.7058   5.6124   7.9708   C.3       1 RES1   0.0000
    37 H13     -0.2762   4.7416   8.1645   H         1 RES1   0.0000
    38 H14     -1.6829   5.5035   8.0847   H         1 RES1   0.0000
    39 C16     -1.9377   3.3446   3.1801   C.3       1 RES1   0.0000
    40 H15     -1.3934   2.9572   2.4619   H         1 RES1   0.0000
    41 H16     -1.8994   4.3219   3.1289   H         1 RES1   0.0000
    42 H17     -2.8665   3.0481   3.0810   H         1 RES1   0.0000
    43 C17     -2.5752   3.4127   5.9277   C.3       1 RES1   0.0000
    44 H18     -2.6152   4.3914   5.8728   H         1 RES1   0.0000
    45 H19     -2.3557   3.1462   6.8449   H         1 RES1   0.0000
    46 H20     -3.4431   3.0350   5.6760   H         1 RES1   0.0000
    47 C18     -1.6481   1.0162   4.7329   C.3       1 RES1   0.0000
    48 H21     -2.6153   0.8781   4.6578   H         1 RES1   0.0000
    49 H22     -1.3210   0.5903   5.5518   H         1 RES1   0.0000
    50 H23     -1.2011   0.6188   3.9572   H         1 RES1   0.0000
    51 C19      2.9694   4.9335   7.4415   C.3       1 RES1   0.0000
    52 H24      2.6562   5.8378   7.2298   H         1 RES1   0.0000
    53 H25      3.8990   4.9735   7.7477   H         1 RES1   0.0000
    54 H26      2.4076   4.5512   8.1486   H         1 RES1   0.0000
    55 C20      3.9258   4.7825   4.7795   C.3       1 RES1   0.0000
    56 H27      4.0399   4.2444   3.9679   H         1 RES1   0.0000
    57 H28      4.8010   4.9451   5.1900   H         1 RES1   0.0000
    58 H29      3.5090   5.6388   4.5479   H         1 RES1   0.0000
    59 C21      3.8975   2.4598   6.4076   C.3       1 RES1   0.0000
    60 H30      4.1418   1.9621   5.5997   H         1 RES1   0.0000
    61 H31      3.3966   1.8738   7.0116   H         1 RES1   0.0000
    62 H32      4.7104   2.7724   6.8573   H         1 RES1   0.0000
    63 C22     -0.9929   7.3925   9.6734   C.2       1 RES1   0.0000
    64 H33     -1.9355   7.3008   9.6066   H         1 RES1   0.0000
    65 H34     -0.6182   8.0295  10.2717   H         1 RES1   0.0000
    66 C23     -0.2047   6.6388   8.9375   C.2       1 RES1   0.0000
    67 H35      0.7343   6.7520   9.0248   H         1 RES1   0.0000
    68 B1       3.1508  10.2711   2.7268   B         2 RES2  -1.0000
    69 C24      3.8342  13.7944   1.0318   C.ar      2 RES2   0.0000
    70 H36      3.3072  14.5338   0.7538   H         2 RES2   0.0000
    71 C25      5.2135  13.8446   0.9158   C.ar      2 RES2   0.0000
    72 H37      5.6396  14.6134   0.5570   H         2 RES2   0.0000
    73 C26      5.9629  12.7553   1.3319   C.ar      2 RES2   0.0000
    74 H38      6.9094  12.7752   1.2558   H         2 RES2   0.0000
    75 C27      5.3302  11.6290   1.8631   C.ar      2 RES2   0.0000
    76 H39      5.8662  10.8933   2.1338   H         2 RES2   0.0000
    77 C28      3.9404  11.5380   2.0135   C.ar      2 RES2   0.0000
    78 C29      3.9314   7.7856   1.9788   C.ar      2 RES2   0.0000
    79 H40      3.1862   7.7444   1.3924   H         2 RES2   0.0000
    80 C30      4.8026   6.6991   2.0350   C.ar      2 RES2   0.0000
    81 H41      4.6349   5.9334   1.4988   H         2 RES2   0.0000
    82 C31      3.2194  12.6593   1.5556   C.ar      2 RES2   0.0000
    83 H42      2.2711  12.6392   1.6070   H         2 RES2   0.0000
    84 C32      1.7620   9.9825   1.9022   C.ar      2 RES2   0.0000
    85 C33      1.7766   9.6803   0.5298   C.ar      2 RES2   0.0000
    86 H43      2.6089   9.6790   0.0727   H         2 RES2   0.0000
    87 C34      0.6222   9.3827  -0.1884   C.ar      2 RES2   0.0000
    88 H44      0.6837   9.1606  -1.1104   H         2 RES2   0.0000
    89 C35     -0.6190   9.4089   0.4344   C.ar      2 RES2   0.0000
    90 H45     -1.4084   9.1975  -0.0497   H         2 RES2   0.0000
    91 C36      0.4829  10.0220   2.4847   C.ar      2 RES2   0.0000
    92 H46      0.4111  10.2451   3.4056   H         2 RES2   0.0000
    93 C37      2.7660  10.6402   4.2834   C.ar      2 RES2   0.0000
    94 C38      2.4228   9.6190   5.1907   C.ar      2 RES2   0.0000
    95 H47      2.4744   8.7146   4.9026   H         2 RES2   0.0000
    96 C39      2.0109   9.8827   6.4940   C.ar      2 RES2   0.0000
    97 H48      1.7765   9.1629   7.0701   H         2 RES2   0.0000
    98 C40      1.9403  11.1884   6.9573   C.ar      2 RES2   0.0000
    99 H49      1.6751  11.3723   7.8506   H         2 RES2   0.0000
   100 C41      2.2647  12.2176   6.0900   C.ar      2 RES2   0.0000
   101 H50      2.2159  13.1184   6.3890   H         2 RES2   0.0000
   102 C42      2.6639  11.9457   4.7790   C.ar      2 RES2   0.0000
   103 H51      2.8732  12.6725   4.2038   H         2 RES2   0.0000
   104 C43     -0.6837   9.7481   1.7744   C.ar      2 RES2   0.0000
   105 H52     -1.5259   9.7935   2.2119   H         2 RES2   0.0000
   106 C44      4.1175   8.9384   2.7590   C.ar      2 RES2   0.0000
   107 C45      6.1159   7.8333   3.6709   C.ar      2 RES2   0.0000
   108 H53      6.8624   7.8588   4.2587   H         2 RES2   0.0000
   109 C46      5.2339   8.9071   3.6191   C.ar      2 RES2   0.0000
   110 H54      5.3899   9.6519   4.1878   H         2 RES2   0.0000
   111 C47      5.9071   6.7251   2.8648   C.ar      2 RES2   0.0000
   112 H55      6.5145   5.9949   2.8823   H         2 RES2   0.0000
   113 O1       0.3112  -1.5650  10.5596   O.3       3 RES3   0.0000
   114 C48      1.0655  -2.7572  10.3217   C.3       3 RES3   0.0000
   115 H56      0.4622  -3.5175  10.1298   H         3 RES3   0.0000
   116 H57      1.6193  -2.9807  11.1107   H         3 RES3   0.0000
   117 C49      1.9402  -2.4579   9.1245   C.3       3 RES3   0.0000
   118 H58      1.4953  -2.7256   8.2816   H         3 RES3   0.0000
   119 H59      2.8110  -2.9244   9.1933   H         3 RES3   0.0000
   120 C50      2.1203  -0.9370   9.1951   C.3       3 RES3   0.0000
   121 H60      3.0639  -0.7019   9.3795   H         3 RES3   0.0000
   122 H61      1.8421  -0.5085   8.3472   H         3 RES3   0.0000
   123 C51      1.2273  -0.5042  10.3320   C.3       3 RES3   0.0000
   124 H62      1.7643  -0.3324  11.1462   H         3 RES3   0.0000
   125 H63      0.7419   0.3253  10.0926   H         3 RES3   0.0000
@<TRIPOS>BOND
     1     1     6    1
     2     2    15    1
     3     3     6   ar
     4     4     5    1
     5     6    15   ar
     6     7     4    2
     7     8     7    1
     8     9     3    1
     9    10     1    1
    10    11     1    1
    11    12     1    1
    12    13     7    1
    13    14     1    1
    14    15    16   ar
    15    16    17    1
    16    18    16   ar
    17    19    18    1
    18    20     3   ar
    19    21    20    1
    20    22    25    1
    21    23     2    1
    22    24    23    1
    23    25    23    2
    24    26    25    1
    25    27     1    1
    26    28    13    1
    27    29    28    1
    28    30    28    1
    29    31    28    1
    30    32    31    1
    31    33    31    2
    32    34    33    1
    33    35    33    1
    34    36    22    1
    35    37    36    1
    36    38    36    1
    37    39    10    1
    38    40    39    1
    39    41    39    1
    40    42    39    1
    41    43    10    1
    42    44    43    1
    43    45    43    1
    44    46    43    1
    45    47    10    1
    46    48    47    1
    47    49    47    1
    48    50    47    1
    49    51    12    1
    50    52    51    1
    51    53    51    1
    52    54    51    1
    53    55    12    1
    54    56    55    1
    55    57    55    1
    56    58    55    1
    57    59    12    1
    58    60    59    1
    59    61    59    1
    60    62    59    1
    61    63    64    1
    62    65    63    1
    63    66    36    1
    64    67    66    1
    65     2    27    1
    66     4     9    1
    67     9    14    1
    68    13    14    1
    69    18    20   ar
    70    22    27    1
    71    63    66    2
    72    68    77    1
    73    69    70    1
    74    71    69   ar
    75    72    71    1
    76    73    71   ar
    77    74    73    1
    78    75    73   ar
    79    76    75    1
    80    77    75   ar
    81    78    79    1
    82    80    78   ar
    83    81    80    1
    84    82    69   ar
    85    83    82    1
    86    84    68    1
    87    85    84   ar
    88    86    85    1
    89    87    85   ar
    90    88    87    1
    91    89    87   ar
    92    90    89    1
    93    91    84   ar
    94    92    91    1
    95    93    68    1
    96    94    93   ar
    97    95    94    1
    98    96    94   ar
    99    97    96    1
   100    98    96   ar
   101    99    98    1
   102   100    98   ar
   103   101   100    1
   104   102    93   ar
   105   103   102    1
   106   104    89   ar
   107   105   104    1
   108   106    68    1
   109   107   108    1
   110   109   106   ar
   111   110   109    1
   112   111    80   ar
   113   112   111    1
   114    77    82   ar
   115    78   106   ar
   116    91   104   ar
   117   100   102   ar
   118   107   109   ar
   119   107   111   ar
   120   113   114    1
   121   114   115    1
   122   116   114    1
   123   117   114    1
   124   118   117    1
   125   119   117    1
   126   120   117    1
   127   121   120    1
   128   122   120    1
   129   123   113    1
   130   124   123    1
   131   125   123    1
   132   120   123    1
@<TRIPOS>SUBSTRUCTURE
     1 RES1        1 GROUP             0 ****  ****    0  
     2 RES2       68 GROUP             0 ****  ****    0  
     3 RES3      113 GROUP             0 ****  ****    0  
@<TRIPOS>CRYSIN
   10.1812   13.7593   18.8328  108.9540   90.7950  102.5130     2     1
