@<TRIPOS>MOLECULE
AYUNUD
   100   104     3     0     0
SMALL
USER_CHARGES
****
Generated from the CSD

@<TRIPOS>ATOM
     1 Fe1     -4.5656   6.0899  -4.2227   Fe        1 RES1   2.0000
     2 N1      -4.7549   5.7005  -2.2418   N.3       1 RES1   0.0000
     3 H1      -5.4575   6.2504  -1.9797   H         1 RES1   0.0000
     4 N2      -5.7638   4.4660  -4.4149   N.3       1 RES1   0.0000
     5 H2      -5.1945   3.7731  -4.6623   H         1 RES1   0.0000
     6 N3      -6.2238   7.3048  -4.3589   N.3       1 RES1   0.0000
     7 H3      -6.6473   7.3026  -3.5311   H         1 RES1   0.0000
     8 N4      -3.6192   7.8272  -3.7875   N.3       1 RES1   0.0000
     9 H4      -3.1303   8.0333  -4.5511   H         1 RES1   0.0000
    10 C1      -5.2819   4.3588  -2.0380   C.3       1 RES1   0.0000
    11 H5      -5.6963   4.2927  -1.1417   H         1 RES1   0.0000
    12 H6      -4.5473   3.6968  -2.0899   H         1 RES1   0.0000
    13 C2      -6.3066   4.0684  -3.0985   C.3       1 RES1   0.0000
    14 H7      -6.5238   3.1025  -3.1027   H         1 RES1   0.0000
    15 H8      -7.1381   4.5727  -2.9114   H         1 RES1   0.0000
    16 C3      -6.8330   4.4714  -5.4463   C.3       1 RES1   0.0000
    17 H9      -7.3143   3.6071  -5.4110   H         1 RES1   0.0000
    18 H10     -6.4156   4.5480  -6.3405   H         1 RES1   0.0000
    19 C4      -7.8328   5.5947  -5.2737   C.3       1 RES1   0.0000
    20 H11     -8.5451   5.4904  -5.9537   H         1 RES1   0.0000
    21 H12     -8.2543   5.5094  -4.3816   H         1 RES1   0.0000
    22 C5      -7.2471   6.9728  -5.3985   C.3       1 RES1   0.0000
    23 H13     -6.8306   7.0595  -6.2927   H         1 RES1   0.0000
    24 H14     -7.9811   7.6343  -5.3444   H         1 RES1   0.0000
    25 C6      -5.7164   8.6779  -4.6062   C.3       1 RES1   0.0000
    26 H15     -6.4428   9.3368  -4.4752   H         1 RES1   0.0000
    27 H16     -5.3884   8.7561  -5.5378   H         1 RES1   0.0000
    28 C7      -4.6005   8.9438  -3.6434   C.3       1 RES1   0.0000
    29 H17     -4.1674   9.8098  -3.8492   H         1 RES1   0.0000
    30 H18     -4.9469   8.9785  -2.7159   H         1 RES1   0.0000
    31 C8      -2.6275   7.8714  -2.6660   C.3       1 RES1   0.0000
    32 H19     -2.2766   8.7939  -2.5828   H         1 RES1   0.0000
    33 H20     -1.8659   7.2782  -2.8885   H         1 RES1   0.0000
    34 C9      -3.2137   7.4442  -1.3330   C.3       1 RES1   0.0000
    35 H21     -2.5263   7.5674  -0.6322   H         1 RES1   0.0000
    36 H22     -3.9725   8.0416  -1.1167   H         1 RES1   0.0000
    37 C10     -3.6911   6.0303  -1.2893   C.3       1 RES1   0.0000
    38 H23     -2.9204   5.4335  -1.4619   H         1 RES1   0.0000
    39 H24     -4.0187   5.8373  -0.3764   H         1 RES1   0.0000
    40 O1      -4.4129   6.3523  -6.0906   O.3       1 RES1   0.0000
    41 C11     -3.4767   5.6750  -6.6837   C.2       1 RES1   0.0000
    42 C12     -3.2614   5.6457  -8.0998   C.2       1 RES1   0.0000
    43 C13     -2.2568   4.7984  -8.5241   C.2       1 RES1   0.0000
    44 H25     -2.0658   4.7751  -9.4536   H         1 RES1   0.0000
    45 C14     -1.4753   3.9475  -7.6610   C.2       1 RES1   0.0000
    46 C15     -1.6674   4.0109  -6.3114   C.2       1 RES1   0.0000
    47 H26     -1.1429   3.4777  -5.7250   H         1 RES1   0.0000
    48 C16     -2.6579   4.8815  -5.7957   C.2       1 RES1   0.0000
    49 N5      -3.0032   5.0070  -4.4966   N.2       1 RES1   0.0000
    50 C17     -2.2409   4.0869  -3.6267   C.ar      1 RES1   0.0000
    51 C18     -1.1164   4.5176  -2.9342   C.ar      1 RES1   0.0000
    52 H27     -0.8183   5.4168  -3.0049   H         1 RES1   0.0000
    53 C19     -0.4348   3.6008  -2.1378   C.ar      1 RES1   0.0000
    54 H28      0.3608   3.8722  -1.6948   H         1 RES1   0.0000
    55 C20     -0.8835   2.3227  -1.9776   C.ar      1 RES1   0.0000
    56 H29     -0.4408   1.7311  -1.3808   H         1 RES1   0.0000
    57 C21     -1.9496   1.9080  -2.6681   C.ar      1 RES1   0.0000
    58 H30     -2.2294   1.0031  -2.5849   H         1 RES1   0.0000
    59 C22     -2.6638   2.7607  -3.5040   C.ar      1 RES1   0.0000
    60 H31     -3.4238   2.4477  -3.9803   H         1 RES1   0.0000
    61 C23     -4.1582   6.4089  -9.0731   C.3       1 RES1   0.0000
    62 C24     -3.6968   6.2586 -10.5246   C.3       1 RES1   0.0000
    63 H32     -4.2982   6.7624 -11.1110   H         1 RES1   0.0000
    64 H33     -3.7120   5.3122 -10.7741   H         1 RES1   0.0000
    65 H34     -2.7847   6.6063 -10.6140   H         1 RES1   0.0000
    66 C25     -4.1669   7.9097  -8.7279   C.3       1 RES1   0.0000
    67 H35     -4.7458   8.3862  -9.3580   H         1 RES1   0.0000
    68 H36     -3.2551   8.2643  -8.7882   H         1 RES1   0.0000
    69 H37     -4.5064   8.0328  -7.8170   H         1 RES1   0.0000
    70 C26     -5.5765   5.8223  -8.9670   C.3       1 RES1   0.0000
    71 H38     -6.1739   6.2963  -9.5826   H         1 RES1   0.0000
    72 H39     -5.9052   5.9270  -8.0478   H         1 RES1   0.0000
    73 H40     -5.5551   4.8711  -9.1999   H         1 RES1   0.0000
    74 C27     -0.4972   2.9574  -8.3078   C.3       1 RES1   0.0000
    75 C28      0.0348   1.9511  -7.3034   C.3       1 RES1   0.0000
    76 H41      0.6533   1.3376  -7.7505   H         1 RES1   0.0000
    77 H42     -0.7119   1.4428  -6.9228   H         1 RES1   0.0000
    78 H43      0.5064   2.4236  -6.5859   H         1 RES1   0.0000
    79 C29     -1.2331   2.1627  -9.4162   C.3       1 RES1   0.0000
    80 H44     -1.5901   2.7848 -10.0837   H         1 RES1   0.0000
    81 H45     -1.9693   1.6536  -9.0169   H         1 RES1   0.0000
    82 H46     -0.6050   1.5462  -9.8467   H         1 RES1   0.0000
    83 C30      0.6741   3.7469  -8.9192   C.3       1 RES1   0.0000
    84 H47      0.3283   4.3948  -9.5680   H         1 RES1   0.0000
    85 H48      1.2846   3.1271  -9.3704   H         1 RES1   0.0000
    86 H49      1.1556   4.2195  -8.2100   H         1 RES1   0.0000
    87 P1       4.6086   0.8397  -6.2736   P.3       2 RES2  -1.0000
    88 F1       6.1533   0.6395  -5.9974   F         2 RES2   0.0000
    89 F2       4.3280  -0.7264  -6.0598   F         2 RES2   0.0000
    90 F3       3.0483   1.0409  -6.4840   F         2 RES2   0.0000
    91 F4       4.8649   2.4114  -6.4483   F         2 RES2   0.0000
    92 F5       4.8211   0.5985  -7.8120   F         2 RES2   0.0000
    93 F6       4.3465   1.1120  -4.7019   F         2 RES2   0.0000
    94 P2      -2.3652  -1.8424  -0.7975   P.3       3 RES3  -1.0000
    95 F7      -1.5116  -3.1903  -0.6887   F         3 RES3   0.0000
    96 F8      -0.9967  -1.0358  -1.0583   F         3 RES3   0.0000
    97 F9      -3.2128  -0.5156  -0.9325   F         3 RES3   0.0000
    98 F10     -3.7086  -2.6761  -0.6012   F         3 RES3   0.0000
    99 F11     -2.4862  -2.0614  -2.3983   F         3 RES3   0.0000
   100 F12     -2.2195  -1.6406   0.7738   F         3 RES3   0.0000
@<TRIPOS>BOND
     1     1     2    1
     2     2     3    1
     3     4     1    1
     4     5     4    1
     5     6     1    1
     6     7     6    1
     7     8     1    1
     8     9     8    1
     9    10     2    1
    10    11    10    1
    11    12    10    1
    12    13     4    1
    13    14    13    1
    14    15    13    1
    15    16     4    1
    16    17    16    1
    17    18    16    1
    18    19    16    1
    19    20    19    1
    20    21    19    1
    21    22     6    1
    22    23    22    1
    23    24    22    1
    24    25     6    1
    25    26    25    1
    26    27    25    1
    27    28     8    1
    28    29    28    1
    29    30    28    1
    30    31     8    1
    31    32    31    1
    32    33    31    1
    33    34    31    1
    34    35    34    1
    35    36    34    1
    36    37     2    1
    37    38    37    1
    38    39    37    1
    39    40     1    1
    40    41    40    1
    41    42    41    1
    42    43    42    2
    43    44    43    1
    44    45    43    1
    45    46    45    2
    46    47    46    1
    47    48    41    1
    48    49     1    1
    49    50    49    1
    50    51    50   ar
    51    52    51    1
    52    53    51   ar
    53    54    53    1
    54    55    53   ar
    55    56    55    1
    56    57    55   ar
    57    58    57    1
    58    59    50   ar
    59    60    59    1
    60    61    42    1
    61    62    61    1
    62    63    62    1
    63    64    62    1
    64    65    62    1
    65    66    61    1
    66    67    66    1
    67    68    66    1
    68    69    66    1
    69    70    61    1
    70    71    70    1
    71    72    70    1
    72    73    70    1
    73    74    45    1
    74    75    74    1
    75    76    75    1
    76    77    75    1
    77    78    75    1
    78    79    74    1
    79    80    79    1
    80    81    79    1
    81    82    79    1
    82    83    74    1
    83    84    83    1
    84    85    83    1
    85    86    83    1
    86    10    13    1
    87    19    22    1
    88    25    28    1
    89    34    37    1
    90    46    48    1
    91    48    49    2
    92    57    59   ar
    93    87    88    1
    94    89    87    1
    95    90    87    1
    96    91    87    1
    97    92    87    1
    98    93    87    1
    99    94    95    1
   100    96    94    1
   101    97    94    1
   102    98    94    1
   103    99    94    1
   104   100    94    1
@<TRIPOS>SUBSTRUCTURE
     1 RES1        1 GROUP             0 ****  ****    0  
     2 RES2       87 GROUP             0 ****  ****    0  
     3 RES3       94 GROUP             0 ****  ****    0  
@<TRIPOS>CRYSIN
    9.5149    9.8258   21.2440   78.3700   87.6700   69.0100     2     1
