@<TRIPOS>MOLECULE
AZOQOV
   311   341    14     0     0
SMALL
NO_CHARGES
****
Generated from the CSD

@<TRIPOS>ATOM
     1 Fe1     13.2411  16.8860   7.5397   Fe        1 RES1   0.0000
     2 Fe2     15.3669  16.3459   5.4737   Fe        1 RES1   0.0000
     3 Fe3     12.1508  17.9678   4.8076   Fe        1 RES1   0.0000
     4 Fe4     11.1511  15.1454   5.1178   Fe        1 RES1   0.0000
     5 Fe5     13.4495  15.6702   2.6123   Fe        1 RES1   0.0000
     6 Fe6     16.7866  15.2214   3.0657   Fe        1 RES1   0.0000
     7 Fe7     16.8260  13.0308   5.3398   Fe        1 RES1   0.0000
     8 Fe8     13.7706  13.5849   6.8285   Fe        1 RES1   0.0000
     9 Fe9     11.0583  12.1399   5.3685   Fe        1 RES1   0.0000
    10 Fe10    11.6863  12.7475   2.3466   Fe        1 RES1   0.0000
    11 Fe11    14.3698  12.4258   3.6476   Fe        1 RES1   0.0000
    12 O1      16.9787  15.0639   5.1940   O.3       1 RES1   0.0000
    13 O2      14.0942  15.4425   6.6119   O.3       1 RES1   0.0000
    14 O3      14.9081  13.0708   5.3840   O.3       1 RES1   0.0000
    15 O4      16.2875  13.1533   3.2743   O.3       1 RES1   0.0000
    16 O5      15.0781  15.7362   3.6488   O.3       1 RES1   0.0000
    17 O6      13.9818  17.8358   5.8029   O.3       1 RES1   0.0000
    18 O7      11.4965  16.7106   6.4012   O.3       1 RES1   0.0000
    19 O8      12.1073  13.6378   5.8404   O.3       1 RES1   0.0000
    20 O9      12.4868  11.5524   3.9274   O.3       1 RES1   0.0000
    21 O10     13.2179  13.7614   2.8633   O.3       1 RES1   0.0000
    22 O11     10.5295  13.5691   3.8732   O.3       1 RES1   0.0000
    23 O12     12.3494  16.2026   4.0732   O.3       1 RES1   0.0000
    24 O13     14.8225  17.3117   8.6901   O.co2     1 RES1   0.0000
    25 O14     16.4581  16.8083   7.2206   O.co2     1 RES1   0.0000
    26 C1      16.0346  17.0802   8.3646   C.2       1 RES1   0.0000
    27 C2      17.0465  17.1887   9.4980   C.ar      1 RES1   0.0000
    28 C3      18.3378  16.7301   9.3213   C.ar      1 RES1   0.0000
    29 H1      18.6088  16.3551   8.4928   H         1 RES1   0.0000
    30 C4      19.2383  16.8273  10.3818   C.ar      1 RES1   0.0000
    31 H2      20.1202  16.4907  10.2846   H         1 RES1   0.0000
    32 C5      18.8572  17.4024  11.5572   C.ar      1 RES1   0.0000
    33 H3      19.4923  17.4957  12.2575   H         1 RES1   0.0000
    34 C6      17.5713  17.8500  11.7494   C.ar      1 RES1   0.0000
    35 H4      17.3121  18.2222  12.5845   H         1 RES1   0.0000
    36 C7      16.6610  17.7508  10.7132   C.ar      1 RES1   0.0000
    37 H5      15.7727  18.0673  10.8303   H         1 RES1   0.0000
    38 O15     15.2967  13.5155   8.2447   O.co2     1 RES1   0.0000
    39 O16     17.2723  13.0772   7.2688   O.co2     1 RES1   0.0000
    40 C8      16.5396  13.3080   8.2718   C.2       1 RES1   0.0000
    41 C9      17.1954  13.3413   9.6151   C.ar      1 RES1   0.0000
    42 C10     18.4631  12.8020   9.7875   C.ar      1 RES1   0.0000
    43 H6      18.9391  12.4376   9.0517   H         1 RES1   0.0000
    44 C11     19.0167  12.8027  11.0446   C.ar      1 RES1   0.0000
    45 H7      19.8796  12.4272  11.1683   H         1 RES1   0.0000
    46 C12     18.3622  13.3316  12.1205   C.ar      1 RES1   0.0000
    47 H8      18.7703  13.3167  12.9800   H         1 RES1   0.0000
    48 C13     17.1032  13.8883  11.9615   C.ar      1 RES1   0.0000
    49 H9      16.6465  14.2618  12.7060   H         1 RES1   0.0000
    50 C14     16.5136  13.8966  10.6999   C.ar      1 RES1   0.0000
    51 H10     15.6527  14.2778  10.5762   H         1 RES1   0.0000
    52 O17     15.0400  10.5221   4.2497   O.co2     1 RES1   0.0000
    53 O18     16.9712  11.0420   5.2998   O.co2     1 RES1   0.0000
    54 C15     16.0350  10.2255   4.9821   C.2       1 RES1   0.0000
    55 C16     16.1550   8.8435   5.4925   C.ar      1 RES1   0.0000
    56 C17     15.1960   7.8767   5.1920   C.ar      1 RES1   0.0000
    57 H11     14.4539   8.1055   4.6441   H         1 RES1   0.0000
    58 C18     15.3102   6.5825   5.6847   C.ar      1 RES1   0.0000
    59 H12     14.6533   5.9325   5.4660   H         1 RES1   0.0000
    60 C19     16.3734   6.2376   6.4889   C.ar      1 RES1   0.0000
    61 H13     16.4501   5.3518   6.8225   H         1 RES1   0.0000
    62 C20     17.3420   7.1915   6.8181   C.ar      1 RES1   0.0000
    63 H14     18.0686   6.9578   7.3837   H         1 RES1   0.0000
    64 C21     17.2416   8.4754   6.3210   C.ar      1 RES1   0.0000
    65 H15     17.9076   9.1170   6.5353   H         1 RES1   0.0000
    66 O19     13.6438  11.5236   7.3181   O.co2     1 RES1   0.0000
    67 O20     11.6579  10.7480   6.5890   O.co2     1 RES1   0.0000
    68 C22     12.8069  10.6106   7.1782   C.2       1 RES1   0.0000
    69 C23     13.0895   9.2595   7.7261   C.ar      1 RES1   0.0000
    70 C24     12.2321   8.2020   7.4743   C.ar      1 RES1   0.0000
    71 H16     11.4762   8.3286   6.9131   H         1 RES1   0.0000
    72 C25     12.4730   6.9503   8.0421   C.ar      1 RES1   0.0000
    73 H17     11.8896   6.2230   7.8587   H         1 RES1   0.0000
    74 C26     13.5702   6.7718   8.8772   C.ar      1 RES1   0.0000
    75 H18     13.7154   5.9322   9.2970   H         1 RES1   0.0000
    76 C27     14.4401   7.8084   9.0937   C.ar      1 RES1   0.0000
    77 H19     15.2032   7.6782   9.6438   H         1 RES1   0.0000
    78 C28     14.2104   9.0447   8.5127   C.ar      1 RES1   0.0000
    79 H20     14.8290   9.7519   8.6541   H         1 RES1   0.0000
    80 O21     12.5363  13.7679   8.5312   O.co2     1 RES1   0.0000
    81 O22     12.3138  15.9545   8.9879   O.co2     1 RES1   0.0000
    82 C29     11.9389  14.7213   9.0672   C.2       1 RES1   0.0000
    83 C30     10.6540  14.4581   9.8029   C.ar      1 RES1   0.0000
    84 C31      9.9574  15.5144  10.3575   C.ar      1 RES1   0.0000
    85 H21     10.3085  16.3973  10.3155   H         1 RES1   0.0000
    86 C32      8.7396  15.2723  10.9805   C.ar      1 RES1   0.0000
    87 H22      8.2454  15.9969  11.3451   H         1 RES1   0.0000
    88 C33      8.2466  13.9991  11.0755   C.ar      1 RES1   0.0000
    89 H23      7.4317  13.8398  11.5373   H         1 RES1   0.0000
    90 C34      8.9309  12.9481  10.5055   C.ar      1 RES1   0.0000
    91 H24      8.5773  12.0666  10.5563   H         1 RES1   0.0000
    92 C35     10.1423  13.1777   9.8515   C.ar      1 RES1   0.0000
    93 H25     10.6124  12.4582   9.4450   H         1 RES1   0.0000
    94 O23     11.8139  19.5182   6.0735   O.co2     1 RES1   0.0000
    95 O24     12.4917  18.7068   8.0659   O.co2     1 RES1   0.0000
    96 C36     12.0129  19.6111   7.3306   C.2       1 RES1   0.0000
    97 C37     11.6284  20.9021   7.9714   C.ar      1 RES1   0.0000
    98 C38     11.7242  21.0699   9.3500   C.ar      1 RES1   0.0000
    99 H26     12.0279  20.3537   9.8957   H         1 RES1   0.0000
   100 C39     11.3740  22.2791   9.9222   C.ar      1 RES1   0.0000
   101 H27     11.4473  22.3925  10.8634   H         1 RES1   0.0000
   102 C40     10.9171  23.3349   9.1335   C.ar      1 RES1   0.0000
   103 H28     10.6568  24.1554   9.5334   H         1 RES1   0.0000
   104 C41     10.8450  23.1783   7.7769   C.ar      1 RES1   0.0000
   105 H29     10.5498  23.8983   7.2312   H         1 RES1   0.0000
   106 C42     11.1993  21.9841   7.2025   C.ar      1 RES1   0.0000
   107 H30     11.1503  21.8935   6.2591   H         1 RES1   0.0000
   108 O25     16.4878  17.9279   4.7464   O.co2     1 RES1   0.0000
   109 O26     17.5927  17.0536   2.9957   O.co2     1 RES1   0.0000
   110 C43     17.2742  18.0081   3.7868   C.2       1 RES1   0.0000
   111 C44     17.9293  19.3489   3.5571   C.ar      1 RES1   0.0000
   112 C45     19.1234  19.4530   2.8633   C.ar      1 RES1   0.0000
   113 H31     19.5450  18.6788   2.5142   H         1 RES1   0.0000
   114 C46     19.6924  20.6891   2.6910   C.ar      1 RES1   0.0000
   115 H32     20.5069  20.7622   2.2071   H         1 RES1   0.0000
   116 C47     19.1074  21.8229   3.1991   C.ar      1 RES1   0.0000
   117 H33     19.5242  22.6684   3.0776   H         1 RES1   0.0000
   118 C48     17.9189  21.7374   3.8885   C.ar      1 RES1   0.0000
   119 H34     17.5058  22.5221   4.2309   H         1 RES1   0.0000
   120 C49     17.3315  20.4966   4.0807   C.ar      1 RES1   0.0000
   121 H35     16.5207  20.4261   4.5690   H         1 RES1   0.0000
   122 O27     18.6816  14.4921   2.9762   O.co2     1 RES1   0.0000
   123 O28     18.8112  13.0593   4.7059   O.co2     1 RES1   0.0000
   124 C50     19.3083  13.6965   3.7294   C.2       1 RES1   0.0000
   125 C51     20.7579  13.4678   3.4090   C.ar      1 RES1   0.0000
   126 C52     21.6225  12.8854   4.3082   C.ar      1 RES1   0.0000
   127 H36     21.3120  12.6544   5.1765   H         1 RES1   0.0000
   128 C53     22.9463  12.6287   3.9570   C.ar      1 RES1   0.0000
   129 H37     23.5442  12.2536   4.5910   H         1 RES1   0.0000
   130 C54     23.3723  12.9217   2.7065   C.ar      1 RES1   0.0000
   131 H38     24.2637  12.7078   2.4568   H         1 RES1   0.0000
   132 C55     22.5317  13.5250   1.7807   C.ar      1 RES1   0.0000
   133 H39     22.8411  13.7403   0.9103   H         1 RES1   0.0000
   134 C56     21.2263  13.8038   2.1630   C.ar      1 RES1   0.0000
   135 H40     20.6451  14.2379   1.5488   H         1 RES1   0.0000
   136 O29     14.3809  15.1954   0.8340   O.co2     1 RES1   0.0000
   137 O30     16.5844  14.9646   1.1206   O.co2     1 RES1   0.0000
   138 C57     15.4930  14.8006   0.4485   C.2       1 RES1   0.0000
   139 C58     15.5993  14.0877  -0.8329   C.ar      1 RES1   0.0000
   140 C59     16.8152  13.6515  -1.3367   C.ar      1 RES1   0.0000
   141 H41     17.6111  13.7941  -0.8396   H         1 RES1   0.0000
   142 C60     16.8770  13.0081  -2.5673   C.ar      1 RES1   0.0000
   143 H42     17.7200  12.7371  -2.9119   H         1 RES1   0.0000
   144 C61     15.7424  12.7600  -3.2853   C.ar      1 RES1   0.0000
   145 H43     15.7943  12.3124  -4.1227   H         1 RES1   0.0000
   146 C62     14.5175  13.1628  -2.7860   C.ar      1 RES1   0.0000
   147 H44     13.7260  12.9820  -3.2809   H         1 RES1   0.0000
   148 C63     14.4309  13.8281  -1.5753   C.ar      1 RES1   0.0000
   149 H45     13.5857  14.1083  -1.2461   H         1 RES1   0.0000
   150 O31     12.5787  11.6782   0.9458   O.co2     1 RES1   0.0000
   151 O32     14.6617  11.5291   1.7821   O.co2     1 RES1   0.0000
   152 C64     13.7856  11.2976   0.8749   C.2       1 RES1   0.0000
   153 C65     14.1990  10.5265  -0.3226   C.ar      1 RES1   0.0000
   154 C66     15.5354  10.3102  -0.6496   C.ar      1 RES1   0.0000
   155 H46     16.2157  10.6630  -0.0884   H         1 RES1   0.0000
   156 C67     15.8875   9.5977  -1.7675   C.ar      1 RES1   0.0000
   157 H47     16.8054   9.4864  -1.9884   H         1 RES1   0.0000
   158 C68     14.8918   9.0331  -2.5894   C.ar      1 RES1   0.0000
   159 H48     15.1279   8.5237  -3.3538   H         1 RES1   0.0000
   160 C69     13.5646   9.2363  -2.2602   C.ar      1 RES1   0.0000
   161 H49     12.8840   8.8625  -2.8081   H         1 RES1   0.0000
   162 C70     13.2186   9.9650  -1.1621   C.ar      1 RES1   0.0000
   163 H50     12.3006  10.0967  -0.9589   H         1 RES1   0.0000
   164 O33     10.1879  11.2979   2.2659   O.co2     1 RES1   0.0000
   165 O34      9.8439  10.7900   4.4269   O.co2     1 RES1   0.0000
   166 C71      9.7002  10.5964   3.1793   C.2       1 RES1   0.0000
   167 C72      8.8137   9.4343   2.7993   C.ar      1 RES1   0.0000
   168 C73      7.9290   8.8899   3.7073   C.ar      1 RES1   0.0000
   169 H51      7.8664   9.2529   4.5822   H         1 RES1   0.0000
   170 C74      7.1188   7.8011   3.3405   C.ar      1 RES1   0.0000
   171 H52      6.5011   7.4271   3.9570   H         1 RES1   0.0000
   172 C75      7.2362   7.2892   2.0635   C.ar      1 RES1   0.0000
   173 H53      6.6948   6.5513   1.8117   H         1 RES1   0.0000
   174 C76      8.1096   7.8086   1.1555   C.ar      1 RES1   0.0000
   175 H54      8.1671   7.4402   0.2828   H         1 RES1   0.0000
   176 C77      8.9283   8.8996   1.5245   C.ar      1 RES1   0.0000
   177 H55      9.5518   9.2637   0.9058   H         1 RES1   0.0000
   178 O35      9.5972  14.8016   6.4343   O.co2     1 RES1   0.0000
   179 O36      9.3917  12.5540   6.4277   O.co2     1 RES1   0.0000
   180 C78      8.9997  13.7356   6.7231   C.2       1 RES1   0.0000
   181 C79      7.6492  13.8956   7.4190   C.ar      1 RES1   0.0000
   182 C80      7.2536  15.1472   7.8300   C.ar      1 RES1   0.0000
   183 H56      7.8210  15.8972   7.6886   H         1 RES1   0.0000
   184 C81      6.0281  15.3167   8.4508   C.ar      1 RES1   0.0000
   185 H57      5.7619  16.1752   8.7601   H         1 RES1   0.0000
   186 C82      5.1987  14.2358   8.6187   C.ar      1 RES1   0.0000
   187 H58      4.3474  14.3544   9.0230   H         1 RES1   0.0000
   188 C83      5.5857  12.9836   8.2033   C.ar      1 RES1   0.0000
   189 H59      5.0029  12.2427   8.3293   H         1 RES1   0.0000
   190 C84      6.8149  12.7928   7.6068   C.ar      1 RES1   0.0000
   191 H60      7.0880  11.9276   7.3284   H         1 RES1   0.0000
   192 O37      9.5604  16.0705   4.1163   O.co2     1 RES1   0.0000
   193 O38     10.2777  18.2209   4.1622   O.co2     1 RES1   0.0000
   194 C85      9.4422  17.2961   3.8509   C.2       1 RES1   0.0000
   195 C86      8.2103  17.7677   3.1064   C.ar      1 RES1   0.0000
   196 C87      7.8452  19.0721   3.1505   C.ar      1 RES1   0.0000
   197 H61      8.3432  19.6885   3.6742   H         1 RES1   0.0000
   198 C88      6.7438  19.4990   2.4281   C.ar      1 RES1   0.0000
   199 H62      6.4599  20.4027   2.4833   H         1 RES1   0.0000
   200 C89      6.0524  18.5961   1.6217   C.ar      1 RES1   0.0000
   201 H63      5.3303  18.8975   1.0826   H         1 RES1   0.0000
   202 C90      6.4046  17.2900   1.6040   C.ar      1 RES1   0.0000
   203 H64      5.9096  16.6748   1.0760   H         1 RES1   0.0000
   204 C91      7.4855  16.8426   2.3552   C.ar      1 RES1   0.0000
   205 H65      7.7250  15.9246   2.3574   H         1 RES1   0.0000
   206 O39     13.8598  17.6315   2.0057   O.co2     1 RES1   0.0000
   207 O40     12.9670  19.1139   3.4451   O.co2     1 RES1   0.0000
   208 C92     13.7432  18.7836   2.4701   C.2       1 RES1   0.0000
   209 C93     14.5424  19.8799   1.8559   C.ar      1 RES1   0.0000
   210 C94     14.3915  21.2051   2.2447   C.ar      1 RES1   0.0000
   211 H66     13.7729  21.4234   2.9318   H         1 RES1   0.0000
   212 C95     15.1268  22.2044   1.6504   C.ar      1 RES1   0.0000
   213 H67     14.9895  23.1085   1.9067   H         1 RES1   0.0000
   214 C96     16.0676  21.8956   0.6783   C.ar      1 RES1   0.0000
   215 H68     16.5771  22.5853   0.2718   H         1 RES1   0.0000
   216 C97     16.2602  20.5867   0.3071   C.ar      1 RES1   0.0000
   217 H69     16.9090  20.3725  -0.3535   H         1 RES1   0.0000
   218 C98     15.5018  19.5671   0.8948   C.ar      1 RES1   0.0000
   219 H70     15.6424  18.6630   0.6385   H         1 RES1   0.0000
   220 O41     11.7584  15.8550   1.3753   O.co2     1 RES1   0.0000
   221 O42     10.7420  13.8801   1.0543   O.co2     1 RES1   0.0000
   222 C99     10.8625  15.1316   0.8572   C.2       1 RES1   0.0000
   223 C100     9.8740  15.8137  -0.0199   C.ar      1 RES1   0.0000
   224 C101     9.9583  17.1451  -0.2850   C.ar      1 RES1   0.0000
   225 H71     10.6659  17.6523   0.0928   H         1 RES1   0.0000
   226 C102     9.0257  17.7841  -1.1047   C.ar      1 RES1   0.0000
   227 H72      9.0902  18.7188  -1.2593   H         1 RES1   0.0000
   228 C103     8.0043  17.0541  -1.6902   C.ar      1 RES1   0.0000
   229 H73      7.3749  17.4816  -2.2602   H         1 RES1   0.0000
   230 C104     7.9094  15.6924  -1.4339   C.ar      1 RES1   0.0000
   231 H74      7.2088  15.1863  -1.8293   H         1 RES1   0.0000
   232 C105     8.8283  15.0625  -0.6054   C.ar      1 RES1   0.0000
   233 H75      8.7552  14.1302  -0.4352   H         1 RES1   0.0000
   234 N1      23.4239  23.1838   3.2478   N.1       2 RES2   0.0000
   235 C106    24.1047  23.1736   4.1867   C.1       2 RES2   0.0000
   236 C107    24.9196  23.3097   5.1257   C.3       2 RES2   0.0000
   237 H76     25.4739  22.5044   5.1964   H         2 RES2   0.0000
   238 H77     24.4341  23.4477   5.9653   H         2 RES2   0.0000
   239 H78     25.4926  24.0850   4.9490   H         2 RES2   0.0000
   240 N2      21.6725  20.7328   6.2724   N.1       3 RES3   0.0000
   241 C108    21.3294  21.8795   6.1685   C.1       3 RES3   0.0000
   242 C109    20.9208  23.2096   6.0934   C.3       3 RES3   0.0000
   243 H79     20.0129  23.2940   6.4513   H         3 RES3   0.0000
   244 H80     20.9323  23.5032   5.1566   H         3 RES3   0.0000
   245 H81     21.5322  23.7702   6.6170   H         3 RES3   0.0000
   246 N3      15.0034  15.5815  15.6400   N.1       4 RES4   0.0000
   247 C110    14.9565  14.4504  15.8190   C.1       4 RES4   0.0000
   248 C111    14.8461  13.0065  15.9803   C.3       4 RES4   0.0000
   249 H82     13.9077  12.7396  15.8853   H         4 RES4   0.0000
   250 H83     15.1707  12.7516  16.8684   H         4 RES4   0.0000
   251 H84     15.3847  12.5592  15.2932   H         4 RES4   0.0000
   252 N4      14.0476  18.9785  13.0418   N.1       5 RES5   0.0000
   253 C112    13.6627  17.9825  12.6530   C.1       5 RES5   0.0000
   254 C113    13.3523  16.6208  12.2641   C.3       5 RES5   0.0000
   255 H85     14.1468  16.0604  12.3746   H         5 RES5   0.0000
   256 H86     13.0697  16.6060  11.3252   H         5 RES5   0.0000
   257 H87     12.6273  16.2770  12.8275   H         5 RES5   0.0000
   258 N5      13.5020   4.0864  11.2964   N.1       6 RES6   0.0000
   259 C114    14.1806   3.2258  11.3583   C.1       6 RES6   0.0000
   260 C115    15.0900   2.1210  11.4091   C.3       6 RES6   0.0000
   261 H88     15.9812   2.4182  11.1285   H         6 RES6   0.0000
   262 H89     14.7781   1.4136  10.8082   H         6 RES6   0.0000
   263 H90     15.1348   1.7762  12.3260   H         6 RES6   0.0000
   264 N6      12.4099   5.0106   4.2022   N.1       7 RES7   0.0000
   265 C116    11.4836   5.6641   4.2574   C.1       7 RES7   0.0000
   266 C117    10.3325   6.5008   4.2773   C.3       7 RES7   0.0000
   267 H91     10.5979   7.4245   4.0895   H         7 RES7   0.0000
   268 H92      9.9093   6.4547   5.1589   H         7 RES7   0.0000
   269 H93      9.6973   6.1984   3.5946   H         7 RES7   0.0000
   270 N7      12.4513   8.8296   2.8103   N.1       8 RES8   0.0000
   271 C118    12.9650   8.1421   2.0768   C.1       8 RES8   0.0000
   272 C119    13.6746   7.2658   1.1688   C.3       8 RES8   0.0000
   273 H94     14.5677   7.6311   0.9920   H         8 RES8   0.0000
   274 H95     13.1785   7.1964   0.3248   H         8 RES8   0.0000
   275 H96     13.7596   6.3772   1.5709   H         8 RES8   0.0000
   276 N8      19.5341  16.1855   5.8371   N.1       9 RES9   0.0000
   277 C120    20.5340  16.6190   5.5786   C.1       9 RES9   0.0000
   278 C121    21.8184  17.2183   5.2229   C.3       9 RES9   0.0000
   279 H97     21.8816  17.3020   4.2486   H         9 RES9   0.0000
   280 H98     22.5461  16.6492   5.5499   H         9 RES9   0.0000
   281 H99     21.8888  18.1076   5.6317   H         9 RES9   0.0000
   282 N9       9.2853  18.0562   7.6819   N.1      10 RES10   0.0000
   283 C122     8.7107  18.9725   7.8675   C.1      10 RES10   0.0000
   284 C123     7.9863  20.2042   8.1879   C.3      10 RES10   0.0000
   285 H100     7.2600  20.0032   8.8153   H        10 RES10   0.0000
   286 H101     7.6102  20.5849   7.3660   H        10 RES10   0.0000
   287 H102     8.6008  20.8487   8.5944   H        10 RES10   0.0000
   288 N10     14.9289  20.3643   6.6148   N.1      11 RES11   0.0000
   289 C124    14.8407  21.4450   6.9661   C.1      11 RES11   0.0000
   290 C125    14.7570  22.8118   7.4500   C.3      11 RES11   0.0000
   291 H103    14.2167  22.8366   8.2674   H        11 RES11   0.0000
   292 H104    14.3384  23.3758   6.7673   H        11 RES11   0.0000
   293 H105    15.6574  23.1458   7.6422   H        11 RES11   0.0000
   294 N11      8.4987   7.1489   7.1760   N.1      12 RES12   0.0000
   295 C126     8.6750   8.1990   7.5914   C.1      12 RES12   0.0000
   296 C127     8.9307   9.5055   8.1083   C.3      12 RES12   0.0000
   297 H106     9.6375   9.4584   8.7844   H        12 RES12   0.0000
   298 H107     8.1124   9.8632   8.5149   H        12 RES12   0.0000
   299 H108     9.2160  10.0951   7.3793   H        12 RES12   0.0000
   300 N12     19.0622  19.9658  14.1443   N.1      13 RES13   0.0000
   301 C128    18.8649  21.0048  14.5000   C.1      13 RES13   0.0000
   302 C129    18.5813  22.3535  14.9662   C.3      13 RES13   0.0000
   303 H109    18.1552  22.8658  14.2481   H        13 RES13   0.0000
   304 H110    19.4175  22.7924  15.2269   H        13 RES13   0.0000
   305 H111    17.9811  22.3137  15.7395   H        13 RES13   0.0000
   306 N13     13.6133  11.7524  10.6778   N.1      14 RES14   0.0000
   307 C130    13.6077  12.6041  11.8488   C.1      14 RES14   0.0000
   308 C131    13.6223  13.2822  12.7701   C.3      14 RES14   0.0000
   309 H112    14.4714  13.1673  13.2451   H        14 RES14   0.0000
   310 H113    12.8813  13.0414  13.3644   H        14 RES14   0.0000
   311 H114    13.5294  14.2166  12.4895   H        14 RES14   0.0000
@<TRIPOS>BOND
     1     1    13    1
     2     2    12    1
     3     3    17    1
     4     4    18    1
     5     5    16    1
     6     6    12    1
     7     7    12    1
     8     8    13    1
     9     9    19    1
    10    10    20    1
    11    11    14    1
    12    13     2    1
    13    14     7    1
    14    15     6    1
    15    16     2    1
    16    17     1    1
    17    18     1    1
    18    19     4    1
    19    20     9    1
    20    21     5    1
    21    22     4    1
    22    23     3    1
    23    24     1    1
    24    25     2    1
    25    26    24   un
    26    27    26    1
    27    28    27   ar
    28    29    28    1
    29    30    28   ar
    30    31    30    1
    31    32    30   ar
    32    33    32    1
    33    34    32   ar
    34    35    34    1
    35    36    27   ar
    36    37    36    1
    37    38     8    1
    38    39     7    1
    39    40    38   un
    40    41    40    1
    41    42    41   ar
    42    43    42    1
    43    44    42   ar
    44    45    44    1
    45    46    44   ar
    46    47    46    1
    47    48    46   ar
    48    49    48    1
    49    50    41   ar
    50    51    50    1
    51    52    11    1
    52    53     7    1
    53    54    52   un
    54    55    54    1
    55    56    55   ar
    56    57    56    1
    57    58    56   ar
    58    59    58    1
    59    60    58   ar
    60    61    60    1
    61    62    60   ar
    62    63    62    1
    63    64    55   ar
    64    65    64    1
    65    66     8    1
    66    67     9    1
    67    68    66   un
    68    69    68    1
    69    70    69   ar
    70    71    70    1
    71    72    70   ar
    72    73    72    1
    73    74    72   ar
    74    75    74    1
    75    76    74   ar
    76    77    76    1
    77    78    69   ar
    78    79    78    1
    79    80     8    1
    80    81     1    1
    81    82    80   un
    82    83    82    1
    83    84    83   ar
    84    85    84    1
    85    86    84   ar
    86    87    86    1
    87    88    86   ar
    88    89    88    1
    89    90    88   ar
    90    91    90    1
    91    92    83   ar
    92    93    92    1
    93    94     3    1
    94    95     1    1
    95    96    94   un
    96    97    96    1
    97    98    97   ar
    98    99    98    1
    99   100    98   ar
   100   101   100    1
   101   102   100   ar
   102   103   102    1
   103   104   102   ar
   104   105   104    1
   105   106    97   ar
   106   107   106    1
   107   108     2    1
   108   109     6    1
   109   110   108   un
   110   111   110    1
   111   112   111   ar
   112   113   112    1
   113   114   112   ar
   114   115   114    1
   115   116   114   ar
   116   117   116    1
   117   118   116   ar
   118   119   118    1
   119   120   111   ar
   120   121   120    1
   121   122     6    1
   122   123     7    1
   123   124   122   un
   124   125   124    1
   125   126   125   ar
   126   127   126    1
   127   128   126   ar
   128   129   128    1
   129   130   128   ar
   130   131   130    1
   131   132   130   ar
   132   133   132    1
   133   134   125   ar
   134   135   134    1
   135   136     5    1
   136   137     6    1
   137   138   136   un
   138   139   138    1
   139   140   139   ar
   140   141   140    1
   141   142   140   ar
   142   143   142    1
   143   144   142   ar
   144   145   144    1
   145   146   144   ar
   146   147   146    1
   147   148   139   ar
   148   149   148    1
   149   150    10    1
   150   151    11    1
   151   152   150   un
   152   153   152    1
   153   154   153   ar
   154   155   154    1
   155   156   154   ar
   156   157   156    1
   157   158   156   ar
   158   159   158    1
   159   160   158   ar
   160   161   160    1
   161   162   153   ar
   162   163   162    1
   163   164    10    1
   164   165     9    1
   165   166   164   un
   166   167   166    1
   167   168   167   ar
   168   169   168    1
   169   170   168   ar
   170   171   170    1
   171   172   170   ar
   172   173   172    1
   173   174   172   ar
   174   175   174    1
   175   176   167   ar
   176   177   176    1
   177   178     4    1
   178   179     9    1
   179   180   178   un
   180   181   180    1
   181   182   181   ar
   182   183   182    1
   183   184   182   ar
   184   185   184    1
   185   186   184   ar
   186   187   186    1
   187   188   186   ar
   188   189   188    1
   189   190   181   ar
   190   191   190    1
   191   192     4    1
   192   193     3    1
   193   194   192   un
   194   195   194    1
   195   196   195   ar
   196   197   196    1
   197   198   196   ar
   198   199   198    1
   199   200   198   ar
   200   201   200    1
   201   202   200   ar
   202   203   202    1
   203   204   195   ar
   204   205   204    1
   205   206     5    1
   206   207     3    1
   207   208   206   un
   208   209   208    1
   209   210   209   ar
   210   211   210    1
   211   212   210   ar
   212   213   212    1
   213   214   212   ar
   214   215   214    1
   215   216   214   ar
   216   217   216    1
   217   218   209   ar
   218   219   218    1
   219   220     5    1
   220   221    10    1
   221   222   220   un
   222   223   222    1
   223   224   223   ar
   224   225   224    1
   225   226   224   ar
   226   227   226    1
   227   228   226   ar
   228   229   228    1
   229   230   228   ar
   230   231   230    1
   231   232   223   ar
   232   233   232    1
   233     2    17    1
   234     3    18    1
   235     4    23    1
   236     5    23    1
   237     6    16    1
   238     7    15    1
   239     8    14    1
   240     8    19    1
   241     9    22    1
   242    10    21    1
   243    10    22    1
   244    11    15    1
   245    11    20    1
   246    11    21    1
   247    25    26   un
   248    34    36   ar
   249    39    40   un
   250    48    50   ar
   251    53    54   un
   252    62    64   ar
   253    67    68   un
   254    76    78   ar
   255    81    82   un
   256    90    92   ar
   257    95    96   un
   258   104   106   ar
   259   109   110   un
   260   118   120   ar
   261   123   124   un
   262   132   134   ar
   263   137   138   un
   264   146   148   ar
   265   151   152   un
   266   160   162   ar
   267   165   166   un
   268   174   176   ar
   269   179   180   un
   270   188   190   ar
   271   193   194   un
   272   202   204   ar
   273   207   208   un
   274   216   218   ar
   275   221   222   un
   276   230   232   ar
   277   234   235    3
   278   235   236    1
   279   236   237    1
   280   238   236    1
   281   239   236    1
   282   240   241    3
   283   241   242    1
   284   242   243    1
   285   244   242    1
   286   245   242    1
   287   246   247    3
   288   247   248    1
   289   248   249    1
   290   250   248    1
   291   251   248    1
   292   252   253    3
   293   253   254    1
   294   254   255    1
   295   256   254    1
   296   257   254    1
   297   258   259    3
   298   259   260    1
   299   260   261    1
   300   262   260    1
   301   263   260    1
   302   264   265    3
   303   265   266    1
   304   266   267    1
   305   268   266    1
   306   269   266    1
   307   270   271    3
   308   271   272    1
   309   272   273    1
   310   274   272    1
   311   275   272    1
   312   276   277    3
   313   277   278    1
   314   278   279    1
   315   280   278    1
   316   281   278    1
   317   282   283    3
   318   283   284    1
   319   284   285    1
   320   286   284    1
   321   287   284    1
   322   288   289    3
   323   289   290    1
   324   290   291    1
   325   292   290    1
   326   293   290    1
   327   294   295    3
   328   295   296    1
   329   296   297    1
   330   298   296    1
   331   299   296    1
   332   300   301    3
   333   301   302    1
   334   302   303    1
   335   304   302    1
   336   305   302    1
   337   306   307    3
   338   307   308    1
   339   308   309    1
   340   310   308    1
   341   311   308    1
@<TRIPOS>SUBSTRUCTURE
     1 RES1        1 GROUP             0 ****  ****    0  
     2 RES2      234 GROUP             0 ****  ****    0  
     3 RES3      240 GROUP             0 ****  ****    0  
     4 RES4      246 GROUP             0 ****  ****    0  
     5 RES5      252 GROUP             0 ****  ****    0  
     6 RES6      258 GROUP             0 ****  ****    0  
     7 RES7      264 GROUP             0 ****  ****    0  
     8 RES8      270 GROUP             0 ****  ****    0  
     9 RES9      276 GROUP             0 ****  ****    0  
    10 RES10     282 GROUP             0 ****  ****    0  
    11 RES11     288 GROUP             0 ****  ****    0  
    12 RES12     294 GROUP             0 ****  ****    0  
    13 RES13     300 GROUP             0 ****  ****    0  
    14 RES14     306 GROUP             0 ****  ****    0  
@<TRIPOS>CRYSIN
   16.4540   19.2880   22.4340   80.9310   85.2840   86.4580     2     1
