@<TRIPOS>MOLECULE
BAJJUS
   131   132     1     0     0
SMALL
NO_CHARGES
****
Generated from the CSD

@<TRIPOS>ATOM
     1 Fe1      8.2674   7.3045   5.6324   Fe        1 RES1   0.0000
     2 Cl1     10.2151   7.0141   6.9344   Cl        1 RES1   0.0000
     3 P1       8.7191   5.4687   4.3842   P.3       1 RES1   0.0000
     4 P2       7.1497   5.8196   6.9602   P.3       1 RES1   0.0000
     5 O1       9.4196   3.6025  -1.8666   O.3       1 RES1   0.0000
     6 O2      13.9645   4.2414   2.7937   O.3       1 RES1   0.0000
     7 O3      10.4999   2.2845   9.9762   O.3       1 RES1   0.0000
     8 O4       1.9803   3.6282   8.4340   O.3       1 RES1   0.0000
     9 C1       7.3249   4.3038   4.6479   C.3       1 RES1   0.0000
    10 C2       7.1240   4.1530   6.1472   C.3       1 RES1   0.0000
    11 C3       8.8350   5.5641   2.5549   C.3       1 RES1   0.0000
    12 C4       8.8382   4.2527   1.7731   C.3       1 RES1   0.0000
    13 C5       9.2102   4.4697   0.3188   C.3       1 RES1   0.0000
    14 C6       9.0962   3.2491  -0.5340   C.3       1 RES1   0.0000
    15 C7      10.1394   4.3849   4.8326   C.3       1 RES1   0.0000
    16 C8      11.5059   4.8428   4.3527   C.3       1 RES1   0.0000
    17 C9      12.6124   3.8752   4.7110   C.3       1 RES1   0.0000
    18 C10     13.9565   4.3140   4.1939   C.3       1 RES1   0.0000
    19 C11      7.7784   5.5101   8.6773   C.3       1 RES1   0.0000
    20 C12      8.4088   4.2119   9.0310   C.3       1 RES1   0.0000
    21 C13      9.0285   4.1935  10.4076   C.3       1 RES1   0.0000
    22 C14      9.5443   2.8650  10.8661   C.3       1 RES1   0.0000
    23 C15      5.3676   6.1661   7.2557   C.3       1 RES1   0.0000
    24 C16      4.4919   5.1575   7.9767   C.3       1 RES1   0.0000
    25 C17      3.0881   5.7078   8.1805   C.3       1 RES1   0.0000
    26 C18      2.1972   4.8653   9.0378   C.3       1 RES1   0.0000
    27 H1       9.1227   3.1449  -2.3656   H         1 RES1   0.0000
    28 H2      14.3666   4.7064   2.4670   H         1 RES1   0.0000
    29 H3      10.0789   1.7273   9.4963   H         1 RES1   0.0000
    30 H4       1.3665   3.1897   9.1245   H         1 RES1   0.0000
    31 H5       7.4759   3.4803   4.2131   H         1 RES1   0.0000
    32 H6       6.6003   4.6617   4.2469   H         1 RES1   0.0000
    33 H7       6.2874   3.6989   6.3534   H         1 RES1   0.0000
    34 H8       7.8008   3.6603   6.4886   H         1 RES1   0.0000
    35 H9       8.1302   6.1254   2.2417   H         1 RES1   0.0000
    36 H10      9.6449   6.0380   2.2868   H         1 RES1   0.0000
    37 H11      9.4277   3.6071   2.1741   H         1 RES1   0.0000
    38 H12      7.9201   3.8786   1.8587   H         1 RES1   0.0000
    39 H13      8.7231   5.1869  -0.0789   H         1 RES1   0.0000
    40 H14     10.1163   4.7696   0.2816   H         1 RES1   0.0000
    41 H15      9.6343   2.5469  -0.2028   H         1 RES1   0.0000
    42 H16      8.1930   2.8768  -0.4957   H         1 RES1   0.0000
    43 H17      9.9520   3.5150   4.4947   H         1 RES1   0.0000
    44 H18     10.1507   4.3150   5.7563   H         1 RES1   0.0000
    45 H19     11.7285   5.7177   4.7312   H         1 RES1   0.0000
    46 H20     11.5089   4.9661   3.4245   H         1 RES1   0.0000
    47 H21     12.4159   3.0382   4.3595   H         1 RES1   0.0000
    48 H22     12.6320   3.8042   5.5874   H         1 RES1   0.0000
    49 H23     14.1478   5.2067   4.4722   H         1 RES1   0.0000
    50 H24     14.6323   3.8213   4.5285   H         1 RES1   0.0000
    51 H25      8.4908   6.1983   8.8429   H         1 RES1   0.0000
    52 H26      7.1004   5.7714   9.2485   H         1 RES1   0.0000
    53 H27      7.6579   3.5348   9.0907   H         1 RES1   0.0000
    54 H28      9.1201   3.9999   8.3698   H         1 RES1   0.0000
    55 H29      9.8251   4.8987  10.3299   H         1 RES1   0.0000
    56 H30      8.3848   4.5358  11.0621   H         1 RES1   0.0000
    57 H31      9.9380   2.8407  11.7493   H         1 RES1   0.0000
    58 H32      8.6299   2.2797  10.9044   H         1 RES1   0.0000
    59 H33      5.3330   6.9640   7.7615   H         1 RES1   0.0000
    60 H34      5.0240   6.3486   6.4548   H         1 RES1   0.0000
    61 H35      4.4205   4.3723   7.4799   H         1 RES1   0.0000
    62 H36      4.8614   5.0023   8.7979   H         1 RES1   0.0000
    63 H37      3.1896   6.5527   8.6064   H         1 RES1   0.0000
    64 H38      2.7026   5.8644   7.3334   H         1 RES1   0.0000
    65 H39      1.4233   5.2658   9.2485   H         1 RES1   0.0000
    66 H40      2.4351   4.3241   9.8793   H         1 RES1   0.0000
    67 Cl1A     6.3197   7.5948   4.3304   Cl        1 RES1   0.0000
    68 P1A      7.8158   9.1402   6.8807   P.3       1 RES1   0.0000
    69 C1A      9.2099  10.3051   6.6170   C.3       1 RES1   0.0000
    70 C2A      9.4108  10.4559   5.1176   C.3       1 RES1   0.0000
    71 P2A      9.3851   8.7893   4.3046   P.3       1 RES1   0.0000
    72 C11A     8.7564   9.0989   2.5875   C.3       1 RES1   0.0000
    73 C12A     8.1260  10.3970   2.2338   C.3       1 RES1   0.0000
    74 C13A     7.5063  10.4154   0.8573   C.3       1 RES1   0.0000
    75 C14A     6.9905  11.7440   0.3988   C.3       1 RES1   0.0000
    76 O3A      6.0349  12.3244   1.2887   O.3       1 RES1   0.0000
    77 H3A      6.4559  12.8816   1.7686   H         1 RES1   0.0000
    78 H31A     6.5968  11.7683  -0.4844   H         1 RES1   0.0000
    79 H32A     7.9049  12.3292   0.3605   H         1 RES1   0.0000
    80 H29A     6.7098   9.7102   0.9350   H         1 RES1   0.0000
    81 H30A     8.1500  10.0732   0.2028   H         1 RES1   0.0000
    82 H27A     8.8770  11.0741   2.1741   H         1 RES1   0.0000
    83 H28A     7.4147  10.6090   2.8951   H         1 RES1   0.0000
    84 H25A     8.0440   8.4106   2.4219   H         1 RES1   0.0000
    85 H26A     9.4344   8.8375   2.0164   H         1 RES1   0.0000
    86 C15A    11.1673   8.4428   4.0092   C.3       1 RES1   0.0000
    87 C16A    12.0430   9.4514   3.2882   C.3       1 RES1   0.0000
    88 C17A    13.4467   8.9011   3.0843   C.3       1 RES1   0.0000
    89 C18A    14.3376   9.7437   2.2271   C.3       1 RES1   0.0000
    90 O4A     14.5545  10.9808   2.8309   O.3       1 RES1   0.0000
    91 H4A     15.1683  11.4192   2.1403   H         1 RES1   0.0000
    92 H39A    15.1115   9.3431   2.0164   H         1 RES1   0.0000
    93 H40A    14.0997  10.2848   1.3856   H         1 RES1   0.0000
    94 H37A    13.3453   8.0563   2.6585   H         1 RES1   0.0000
    95 H38A    13.8322   8.7445   3.9314   H         1 RES1   0.0000
    96 H35A    12.1143  10.2366   3.7850   H         1 RES1   0.0000
    97 H36A    11.6734   9.6066   2.4670   H         1 RES1   0.0000
    98 H33A    11.2018   7.6449   3.5034   H         1 RES1   0.0000
    99 H34A    11.5108   8.2603   4.8101   H         1 RES1   0.0000
   100 H7A     10.2474  10.9100   4.9115   H         1 RES1   0.0000
   101 H8A      8.7340  10.9486   4.7763   H         1 RES1   0.0000
   102 H5A      9.0590  11.1286   7.0518   H         1 RES1   0.0000
   103 H6A      9.9346   9.9472   7.0180   H         1 RES1   0.0000
   104 C3A      7.6999   9.0448   8.7100   C.3       1 RES1   0.0000
   105 C4A      7.6967  10.3562   9.4918   C.3       1 RES1   0.0000
   106 C5A      7.3246  10.1392  10.9461   C.3       1 RES1   0.0000
   107 C6A      7.4386  11.3598  11.7988   C.3       1 RES1   0.0000
   108 O1A      7.1152  11.0064  13.1315   O.3       1 RES1   0.0000
   109 H1A      7.4122  11.4640  13.6305   H         1 RES1   0.0000
   110 H15A     6.9005  12.0620  11.4676   H         1 RES1   0.0000
   111 H16A     8.3418  11.7321  11.7605   H         1 RES1   0.0000
   112 H13A     7.8117   9.4220  11.3437   H         1 RES1   0.0000
   113 H14A     6.4185   9.8393  10.9832   H         1 RES1   0.0000
   114 H11A     7.1071  11.0019   9.0907   H         1 RES1   0.0000
   115 H12A     8.6147  10.7303   9.4062   H         1 RES1   0.0000
   116 H9A      8.4046   8.4835   9.0232   H         1 RES1   0.0000
   117 H10A     6.8899   8.5709   8.9781   H         1 RES1   0.0000
   118 C7A      6.3954  10.2240   6.4322   C.3       1 RES1   0.0000
   119 C8A      5.0289   9.7662   6.9121   C.3       1 RES1   0.0000
   120 C9A      3.9225  10.7338   6.5539   C.3       1 RES1   0.0000
   121 C10A     2.5783  10.2949   7.0710   C.3       1 RES1   0.0000
   122 O2A      2.5703  10.3675   8.4712   O.3       1 RES1   0.0000
   123 H2A      2.1683   9.9026   8.7979   H         1 RES1   0.0000
   124 H23A     2.3870   9.4023   6.7927   H         1 RES1   0.0000
   125 H24A     1.9025  10.7876   6.7364   H         1 RES1   0.0000
   126 H21A     4.1189  11.5707   6.9054   H         1 RES1   0.0000
   127 H22A     3.9028  10.8047   5.6775   H         1 RES1   0.0000
   128 H19A     4.8063   8.8913   6.5336   H         1 RES1   0.0000
   129 H20A     5.0259   9.6428   7.8403   H         1 RES1   0.0000
   130 H17A     6.5828  11.0940   6.7702   H         1 RES1   0.0000
   131 H18A     6.3842  10.2939   5.5085   H         1 RES1   0.0000
@<TRIPOS>BOND
     1     1     2    1
     2     3     1    1
     3     4     1    1
     4     5    14    1
     5     6    18    1
     6     7    22    1
     7     8    26    1
     8     9     3    1
     9    10     4    1
    10    11     3    1
    11    12    11    1
    12    13    12    1
    13    14    13    1
    14    15     3    1
    15    16    15    1
    16    17    16    1
    17    18    17    1
    18    19     4    1
    19    20    19    1
    20    21    20    1
    21    22    21    1
    22    23     4    1
    23    24    23    1
    24    25    24    1
    25    26    25    1
    26    27     5    1
    27    28     6    1
    28    29     7    1
    29    30     8    1
    30    31     9    1
    31    32     9    1
    32    33    10    1
    33    34    10    1
    34    35    11    1
    35    36    11    1
    36    37    12    1
    37    38    12    1
    38    39    13    1
    39    40    13    1
    40    41    14    1
    41    42    14    1
    42    43    15    1
    43    44    15    1
    44    45    16    1
    45    46    16    1
    46    47    17    1
    47    48    17    1
    48    49    18    1
    49    50    18    1
    50    51    19    1
    51    52    19    1
    52    53    20    1
    53    54    20    1
    54    55    21    1
    55    56    21    1
    56    57    22    1
    57    58    22    1
    58    59    23    1
    59    60    23    1
    60    61    24    1
    61    62    24    1
    62    63    25    1
    63    64    25    1
    64    65    26    1
    65    66    26    1
    66    67     1    1
    67    68     1    1
    68    69    68    1
    69    70    69    1
    70    71     1    1
    71    72    71    1
    72    73    72    1
    73    74    73    1
    74    75    74    1
    75    76    75    1
    76    77    76    1
    77    78    75    1
    78    79    75    1
    79    80    74    1
    80    81    74    1
    81    82    73    1
    82    83    73    1
    83    84    72    1
    84    85    72    1
    85    86    71    1
    86    87    86    1
    87    88    87    1
    88    89    88    1
    89    90    89    1
    90    91    90    1
    91    92    89    1
    92    93    89    1
    93    94    88    1
    94    95    88    1
    95    96    87    1
    96    97    87    1
    97    98    86    1
    98    99    86    1
    99   100    70    1
   100   101    70    1
   101   102    69    1
   102   103    69    1
   103   104    68    1
   104   105   104    1
   105   106   105    1
   106   107   106    1
   107   108   107    1
   108   109   108    1
   109   110   107    1
   110   111   107    1
   111   112   106    1
   112   113   106    1
   113   114   105    1
   114   115   105    1
   115   116   104    1
   116   117   104    1
   117   118    68    1
   118   119   118    1
   119   120   119    1
   120   121   120    1
   121   122   121    1
   122   123   122    1
   123   124   121    1
   124   125   121    1
   125   126   120    1
   126   127   120    1
   127   128   119    1
   128   129   119    1
   129   130   118    1
   130   131   118    1
   131     9    10    1
   132    70    71    1
@<TRIPOS>SUBSTRUCTURE
     1 RES1        1 GROUP             0 ****  ****    0  
@<TRIPOS>CRYSIN
   10.4870   10.5530   12.4320   64.9800   81.0000   67.1200     2     1
