@<TRIPOS>MOLECULE
BAJKED
   131   132     1     0     0
SMALL
NO_CHARGES
****
Generated from the CSD

@<TRIPOS>ATOM
     1 Fe1     11.2022   3.1848   9.2100   Fe        1 RES1   0.0000
     2 Cl1     11.5360   3.5964   6.9163   Cl        1 RES1   0.0000
     3 P1      11.8642   5.2597   9.8499   P.3       1 RES1   0.0000
     4 P2       9.1307   4.1133   9.1031   P.3       1 RES1   0.0000
     5 O1      16.6888   6.3136  11.7280   O.3       1 RES1   0.0000
     6 O2      12.4637   8.7443   6.6957   O.3       1 RES1   0.0000
     7 O3       4.2589   3.7301  11.0354   O.3       1 RES1   0.0000
     8 O4       5.6969   6.3161   5.8575   O.3       1 RES1   0.0000
     9 C1      10.3810   6.0588  10.5804   C.3       1 RES1   0.0000
    10 C2       9.2233   5.8805   9.6189   C.3       1 RES1   0.0000
    11 C3      13.0727   5.5747  11.2049   C.3       1 RES1   0.0000
    12 C4      14.5377   5.7900  10.8475   C.3       1 RES1   0.0000
    13 C5      15.3859   5.9276  12.0798   C.3       1 RES1   0.0000
    14 C6      17.4787   6.6308  12.8571   C.3       1 RES1   0.0000
    15 C7      12.3852   6.4423   8.5542   C.3       1 RES1   0.0000
    16 C8      12.3747   7.9238   8.9189   C.3       1 RES1   0.0000
    17 C9      13.1194   8.7863   7.9353   C.3       1 RES1   0.0000
    18 C10     13.0798   9.5647   5.7176   C.3       1 RES1   0.0000
    19 C11      7.8940   3.4371  10.2802   C.3       1 RES1   0.0000
    20 C12      6.4448   3.8180  10.1383   C.3       1 RES1   0.0000
    21 C13      5.6175   3.4065  11.3025   C.3       1 RES1   0.0000
    22 C14      3.4350   3.5352  12.1001   C.3       1 RES1   0.0000
    23 C15      8.2646   4.2065   7.4840   C.3       1 RES1   0.0000
    24 C16      7.3306   5.3378   7.2169   C.3       1 RES1   0.0000
    25 C17      6.5941   5.3174   5.9718   C.3       1 RES1   0.0000
    26 C18      4.9955   6.4410   4.7192   C.3       1 RES1   0.0000
    27 H1      10.1713   5.6512  11.4130   H         1 RES1   0.0000
    28 H2      10.5475   6.9850  10.7149   H         1 RES1   0.0000
    29 H3       9.3569   6.4295   8.8545   H         1 RES1   0.0000
    30 H4       8.4114   6.1302  10.0481   H         1 RES1   0.0000
    31 H5      12.7805   6.3531  11.6635   H         1 RES1   0.0000
    32 H6      13.0368   4.8295  11.7906   H         1 RES1   0.0000
    33 H7      14.8468   5.0473  10.3410   H         1 RES1   0.0000
    34 H8      14.6168   6.5824  10.3281   H         1 RES1   0.0000
    35 H9      15.4170   5.0932  12.5348   H         1 RES1   0.0000
    36 H10     15.0062   6.5849  12.6508   H         1 RES1   0.0000
    37 H11     17.5462   5.8690  13.4208   H         1 RES1   0.0000
    38 H12     18.3488   6.8907  12.5716   H         1 RES1   0.0000
    39 H13     17.0765   7.3455  13.3342   H         1 RES1   0.0000
    40 H14     13.2707   6.2155   8.3000   H         1 RES1   0.0000
    41 H15     11.8032   6.3263   7.8119   H         1 RES1   0.0000
    42 H16     11.4716   8.2194   8.9558   H         1 RES1   0.0000
    43 H17     12.7764   8.0258   9.7736   H         1 RES1   0.0000
    44 H18     14.0068   8.4614   7.8377   H         1 RES1   0.0000
    45 H19     13.1434   9.6806   8.2521   H         1 RES1   0.0000
    46 H20     13.9752   9.2768   5.5794   H         1 RES1   0.0000
    47 H21     12.5978   9.5010   4.9016   H         1 RES1   0.0000
    48 H22     13.0814  10.4666   6.0160   H         1 RES1   0.0000
    49 H23      7.9384   2.4905  10.2120   H         1 RES1   0.0000
    50 H24      8.1655   3.7059  11.1496   H         1 RES1   0.0000
    51 H25      6.3861   4.7620  10.0462   H         1 RES1   0.0000
    52 H26      6.0964   3.4014   9.3592   H         1 RES1   0.0000
    53 H27      5.9074   3.8689  12.0798   H         1 RES1   0.0000
    54 H28      5.7023   2.4714  11.4388   H         1 RES1   0.0000
    55 H29      3.7266   4.0728  12.8277   H         1 RES1   0.0000
    56 H30      2.5479   3.7772  11.8643   H         1 RES1   0.0000
    57 H31      3.4578   2.6205  12.3543   H         1 RES1   0.0000
    58 H32      8.9341   4.2371   6.8135   H         1 RES1   0.0000
    59 H33      7.7609   3.4052   7.3938   H         1 RES1   0.0000
    60 H34      6.6948   5.3556   7.9224   H         1 RES1   0.0000
    61 H35      7.8422   6.1378   7.2317   H         1 RES1   0.0000
    62 H36      6.1301   4.4893   5.9110   H         1 RES1   0.0000
    63 H37      7.2125   5.3862   5.2552   H         1 RES1   0.0000
    64 H38      4.4066   7.1837   4.7910   H         1 RES1   0.0000
    65 H39      5.5919   6.5786   3.9934   H         1 RES1   0.0000
    66 H40      4.4912   5.6499   4.5700   H         1 RES1   0.0000
    67 Cl1E    10.8684   2.7732  11.5036   Cl        1 RES1   0.0000
    68 P1E     10.5402   1.1100   8.5701   P.3       1 RES1   0.0000
    69 C1E     12.0234   0.3108   7.8395   C.3       1 RES1   0.0000
    70 C2E     13.1811   0.4892   8.8011   C.3       1 RES1   0.0000
    71 P2E     13.2737   2.2564   9.3168   P.3       1 RES1   0.0000
    72 C11E    14.5104   2.9326   8.1398   C.3       1 RES1   0.0000
    73 C12E    15.9596   2.5517   8.2816   C.3       1 RES1   0.0000
    74 C13E    16.7869   2.9632   7.1175   C.3       1 RES1   0.0000
    75 O3E     18.1455   2.6396   7.3846   O.3       1 RES1   0.0000
    76 C14E    18.9694   2.8345   6.3199   C.3       1 RES1   0.0000
    77 H29E    18.6778   2.2969   5.5923   H         1 RES1   0.0000
    78 H30E    19.8565   2.5924   6.5557   H         1 RES1   0.0000
    79 H31E    18.9465   3.7492   6.0657   H         1 RES1   0.0000
    80 H27E    16.4970   2.5007   6.3401   H         1 RES1   0.0000
    81 H28E    16.7021   3.8982   6.9812   H         1 RES1   0.0000
    82 H25E    16.0183   1.6077   8.3737   H         1 RES1   0.0000
    83 H26E    16.3080   2.9683   9.0608   H         1 RES1   0.0000
    84 H23E    14.4660   3.8791   8.2079   H         1 RES1   0.0000
    85 H24E    14.2389   2.6638   7.2704   H         1 RES1   0.0000
    86 C15E    14.1397   2.1631  10.9359   C.3       1 RES1   0.0000
    87 C16E    15.0738   1.0319  11.2030   C.3       1 RES1   0.0000
    88 C17E    15.8103   1.0523  12.4482   C.3       1 RES1   0.0000
    89 O4E     16.7075   0.0535  12.5624   O.3       1 RES1   0.0000
    90 C18E    17.4088  -0.0713  13.7008   C.3       1 RES1   0.0000
    91 H38E    17.9978  -0.8140  13.6289   H         1 RES1   0.0000
    92 H39E    16.8125  -0.2089  14.4265   H         1 RES1   0.0000
    93 H40E    17.9132   0.7198  13.8500   H         1 RES1   0.0000
    94 H36E    16.2742   1.8803  12.5090   H         1 RES1   0.0000
    95 H37E    15.1919   0.9835  13.1647   H         1 RES1   0.0000
    96 H34E    15.7096   1.0140  10.4975   H         1 RES1   0.0000
    97 H35E    14.5622   0.2319  11.1883   H         1 RES1   0.0000
    98 H32E    13.4703   2.1326  11.6064   H         1 RES1   0.0000
    99 H33E    14.6435   2.9644  11.0262   H         1 RES1   0.0000
   100 H3E     13.0475  -0.0599   9.5655   H         1 RES1   0.0000
   101 H4E     13.9930   0.2395   8.3719   H         1 RES1   0.0000
   102 H1E     12.2331   0.7185   7.0070   H         1 RES1   0.0000
   103 H2E     11.8569  -0.6153   7.7051   H         1 RES1   0.0000
   104 C3E      9.3317   0.7949   7.2151   C.3       1 RES1   0.0000
   105 C4E      7.8667   0.5796   7.5724   C.3       1 RES1   0.0000
   106 C5E      7.0185   0.4421   6.3401   C.3       1 RES1   0.0000
   107 O1E      5.7156   0.0561   6.6920   O.3       1 RES1   0.0000
   108 C6E      4.9257  -0.2612   5.5628   C.3       1 RES1   0.0000
   109 H11E     4.8582   0.5007   4.9992   H         1 RES1   0.0000
   110 H12E     4.0556  -0.5210   5.8483   H         1 RES1   0.0000
   111 H13E     5.3278  -0.9758   5.0858   H         1 RES1   0.0000
   112 H9E      6.9874   1.2765   5.8852   H         1 RES1   0.0000
   113 H10E     7.3982  -0.2153   5.7691   H         1 RES1   0.0000
   114 H7E      7.5576   1.3223   8.0790   H         1 RES1   0.0000
   115 H8E      7.7876  -0.2127   8.0919   H         1 RES1   0.0000
   116 H5E      9.6239   0.0166   6.7564   H         1 RES1   0.0000
   117 H6E      9.3676   1.5402   6.6293   H         1 RES1   0.0000
   118 C7E     10.0192  -0.0726   9.8657   C.3       1 RES1   0.0000
   119 C8E     10.0297  -1.5542   9.5010   C.3       1 RES1   0.0000
   120 C9E      9.2850  -2.4166  10.4846   C.3       1 RES1   0.0000
   121 O2E      9.9407  -2.3746  11.7243   O.3       1 RES1   0.0000
   122 C10E     9.3245  -3.1950  12.7024   C.3       1 RES1   0.0000
   123 H20E     8.4292  -2.9071  12.8406   H         1 RES1   0.0000
   124 H21E     9.8066  -3.1313  13.5184   H         1 RES1   0.0000
   125 H22E     9.3230  -4.0970  12.4040   H         1 RES1   0.0000
   126 H18E     8.3976  -2.0918  10.5823   H         1 RES1   0.0000
   127 H19E     9.2610  -3.3109  10.1678   H         1 RES1   0.0000
   128 H16E    10.9328  -1.8497   9.4642   H         1 RES1   0.0000
   129 H17E     9.6280  -1.6561   8.6463   H         1 RES1   0.0000
   130 H14E     9.1337   0.1541  10.1199   H         1 RES1   0.0000
   131 H15E    10.6012   0.0433  10.6081   H         1 RES1   0.0000
@<TRIPOS>BOND
     1     1     2    1
     2     3     1    1
     3     4     1    1
     4     5    13    1
     5     6    17    1
     6     7    21    1
     7     8    25    1
     8     9     3    1
     9    10     4    1
    10    11     3    1
    11    12    11    1
    12    13    12    1
    13    14     5    1
    14    15     3    1
    15    16    15    1
    16    17    16    1
    17    18     6    1
    18    19     4    1
    19    20    19    1
    20    21    20    1
    21    22     7    1
    22    23     4    1
    23    24    23    1
    24    25    24    1
    25    26     8    1
    26    27     9    1
    27    28     9    1
    28    29    10    1
    29    30    10    1
    30    31    11    1
    31    32    11    1
    32    33    12    1
    33    34    12    1
    34    35    13    1
    35    36    13    1
    36    37    14    1
    37    38    14    1
    38    39    14    1
    39    40    15    1
    40    41    15    1
    41    42    16    1
    42    43    16    1
    43    44    17    1
    44    45    17    1
    45    46    18    1
    46    47    18    1
    47    48    18    1
    48    49    19    1
    49    50    19    1
    50    51    20    1
    51    52    20    1
    52    53    21    1
    53    54    21    1
    54    55    22    1
    55    56    22    1
    56    57    22    1
    57    58    23    1
    58    59    23    1
    59    60    24    1
    60    61    24    1
    61    62    25    1
    62    63    25    1
    63    64    26    1
    64    65    26    1
    65    66    26    1
    66    67     1    1
    67    68     1    1
    68    69    68    1
    69    70    69    1
    70    71     1    1
    71    72    71    1
    72    73    72    1
    73    74    73    1
    74    75    74    1
    75    76    75    1
    76    77    76    1
    77    78    76    1
    78    79    76    1
    79    80    74    1
    80    81    74    1
    81    82    73    1
    82    83    73    1
    83    84    72    1
    84    85    72    1
    85    86    71    1
    86    87    86    1
    87    88    87    1
    88    89    88    1
    89    90    89    1
    90    91    90    1
    91    92    90    1
    92    93    90    1
    93    94    88    1
    94    95    88    1
    95    96    87    1
    96    97    87    1
    97    98    86    1
    98    99    86    1
    99   100    70    1
   100   101    70    1
   101   102    69    1
   102   103    69    1
   103   104    68    1
   104   105   104    1
   105   106   105    1
   106   107   106    1
   107   108   107    1
   108   109   108    1
   109   110   108    1
   110   111   108    1
   111   112   106    1
   112   113   106    1
   113   114   105    1
   114   115   105    1
   115   116   104    1
   116   117   104    1
   117   118    68    1
   118   119   118    1
   119   120   119    1
   120   121   120    1
   121   122   121    1
   122   123   122    1
   123   124   122    1
   124   125   122    1
   125   126   120    1
   126   127   120    1
   127   128   119    1
   128   129   119    1
   129   130   118    1
   130   131   118    1
   131     9    10    1
   132    70    71    1
@<TRIPOS>SUBSTRUCTURE
     1 RES1        1 GROUP             0 ****  ****    0  
@<TRIPOS>CRYSIN
   19.7470   12.7393   19.7830   90.0000  111.3930   90.0000    15     1
