@<TRIPOS>MOLECULE
BAJKIH
   131   132     1     0     0
SMALL
NO_CHARGES
****
Generated from the CSD

@<TRIPOS>ATOM
     1 Br1     11.4427   3.6311   6.8909   Br        1 RES1   0.0000
     2 Fe1     11.0908   3.1950   9.3237   Fe        1 RES1   0.0000
     3 P1      11.7465   5.2812   9.9586   P.3       1 RES1   0.0000
     4 P2       9.0063   4.1216   9.2043   P.3       1 RES1   0.0000
     5 O1      16.5538   6.2865  11.8914   O.3       1 RES1   0.0000
     6 O2      12.3499   8.8080   6.8473   O.3       1 RES1   0.0000
     7 O3       4.1451   3.7624  11.1586   O.3       1 RES1   0.0000
     8 O4       5.5684   6.3427   6.0194   O.3       1 RES1   0.0000
     9 C1      10.2587   6.0807  10.6663   C.3       1 RES1   0.0000
    10 C2       9.1032   5.8941   9.7115   C.3       1 RES1   0.0000
    11 C3      12.9419   5.6066  11.3264   C.3       1 RES1   0.0000
    12 C4      14.4100   5.8060  10.9833   C.3       1 RES1   0.0000
    13 C5      15.2395   5.9440  12.2252   C.3       1 RES1   0.0000
    14 C6      17.3442   6.5817  13.0233   C.3       1 RES1   0.0000
    15 C7      12.2804   6.4769   8.6691   C.3       1 RES1   0.0000
    16 C8      12.2877   7.9517   9.0663   C.3       1 RES1   0.0000
    17 C9      13.0222   8.8246   8.0724   C.3       1 RES1   0.0000
    18 C10     12.9505   9.6361   5.8870   C.3       1 RES1   0.0000
    19 C11      7.7488   3.4429  10.3735   C.3       1 RES1   0.0000
    20 C12      6.3147   3.8289  10.2504   C.3       1 RES1   0.0000
    21 C13      5.4925   3.4071  11.4196   C.3       1 RES1   0.0000
    22 C14      3.3332   3.5937  12.2177   C.3       1 RES1   0.0000
    23 C15      8.1271   4.2174   7.5801   C.3       1 RES1   0.0000
    24 C16      7.2107   5.3267   7.3228   C.3       1 RES1   0.0000
    25 C17      6.4938   5.3625   6.0660   C.3       1 RES1   0.0000
    26 C18      4.9085   6.5702   4.8819   C.3       1 RES1   0.0000
    27 H1      10.0516   5.6820  11.5017   H         1 RES1   0.0000
    28 H2      10.4248   7.0086  10.7894   H         1 RES1   0.0000
    29 H3       9.2361   6.4373   8.9433   H         1 RES1   0.0000
    30 H4       8.2953   6.1459  10.1423   H         1 RES1   0.0000
    31 H5      12.6502   6.3938  11.7702   H         1 RES1   0.0000
    32 H6      12.8913   4.8692  11.9231   H         1 RES1   0.0000
    33 H7      14.7174   5.0570  10.4854   H         1 RES1   0.0000
    34 H8      14.5026   6.5932  10.4593   H         1 RES1   0.0000
    35 H9      15.2395   5.1184  12.6951   H         1 RES1   0.0000
    36 H10     14.8671   6.6213  12.7772   H         1 RES1   0.0000
    37 H11     17.3698   5.8264  13.5976   H         1 RES1   0.0000
    38 H12     18.2274   6.7977  12.7455   H         1 RES1   0.0000
    39 H13     16.9713   7.3204  13.4876   H         1 RES1   0.0000
    40 H14     13.1627   6.2430   8.4081   H         1 RES1   0.0000
    41 H15     11.6938   6.3811   7.9270   H         1 RES1   0.0000
    42 H16     11.3895   8.2533   9.1297   H         1 RES1   0.0000
    43 H17     12.7102   8.0348   9.9129   H         1 RES1   0.0000
    44 H18     13.9052   8.4961   7.9531   H         1 RES1   0.0000
    45 H19     13.0571   9.7166   8.4006   H         1 RES1   0.0000
    46 H20     13.8376   9.3396   5.7229   H         1 RES1   0.0000
    47 H21     12.4492   9.6003   5.0795   H         1 RES1   0.0000
    48 H22     12.9686  10.5307   6.2077   H         1 RES1   0.0000
    49 H23      7.7855   2.4972  10.2915   H         1 RES1   0.0000
    50 H24      8.0265   3.6960  11.2462   H         1 RES1   0.0000
    51 H25      6.2625   4.7746  10.1684   H         1 RES1   0.0000
    52 H26      5.9590   3.4238   9.4691   H         1 RES1   0.0000
    53 H27      5.7953   3.8481  12.2047   H         1 RES1   0.0000
    54 H28      5.5587   2.4665  11.5408   H         1 RES1   0.0000
    55 H29      3.6428   4.1254  12.9413   H         1 RES1   0.0000
    56 H30      2.4499   3.8570  11.9865   H         1 RES1   0.0000
    57 H31      3.3332   2.6800  12.4751   H         1 RES1   0.0000
    58 H32      8.7935   4.2468   6.9051   H         1 RES1   0.0000
    59 H33      7.6210   3.4161   7.4925   H         1 RES1   0.0000
    60 H34      6.5613   5.3190   8.0146   H         1 RES1   0.0000
    61 H35      7.7204   6.1267   7.3769   H         1 RES1   0.0000
    62 H36      6.0598   4.5267   5.9410   H         1 RES1   0.0000
    63 H37      7.1193   5.5005   5.3648   H         1 RES1   0.0000
    64 H38      4.3091   7.2961   5.0031   H         1 RES1   0.0000
    65 H39      5.5288   6.7836   4.1938   H         1 RES1   0.0000
    66 H40      4.4195   5.7932   4.6376   H         1 RES1   0.0000
    67 Br1E    10.7390   2.7589  11.7564   Br        1 RES1   0.0000
    68 P1E     10.4352   1.1088   8.6887   P.3       1 RES1   0.0000
    69 C1E     11.9230   0.3093   7.9811   C.3       1 RES1   0.0000
    70 C2E     13.0785   0.4959   8.9358   C.3       1 RES1   0.0000
    71 P2E     13.1754   2.2685   9.4430   P.3       1 RES1   0.0000
    72 C11E    14.4329   2.9471   8.2738   C.3       1 RES1   0.0000
    73 C12E    15.8670   2.5611   8.3969   C.3       1 RES1   0.0000
    74 C13E    16.6892   2.9829   7.2277   C.3       1 RES1   0.0000
    75 O3E     18.0366   2.6276   7.4888   O.3       1 RES1   0.0000
    76 C14E    18.8485   2.7963   6.4296   C.3       1 RES1   0.0000
    77 H29E    18.5388   2.2646   5.7061   H         1 RES1   0.0000
    78 H30E    19.7318   2.5330   6.6608   H         1 RES1   0.0000
    79 H31E    18.8485   3.7100   6.1723   H         1 RES1   0.0000
    80 H27E    16.3864   2.5419   6.4427   H         1 RES1   0.0000
    81 H28E    16.6230   3.9235   7.1065   H         1 RES1   0.0000
    82 H25E    15.9192   1.6154   8.4789   H         1 RES1   0.0000
    83 H26E    16.2227   2.9662   9.1782   H         1 RES1   0.0000
    84 H23E    14.3962   3.8928   8.3559   H         1 RES1   0.0000
    85 H24E    14.1552   2.6940   7.4011   H         1 RES1   0.0000
    86 C15E    14.0546   2.1726  11.0672   C.3       1 RES1   0.0000
    87 C16E    14.9710   1.0633  11.3245   C.3       1 RES1   0.0000
    88 C17E    15.6879   1.0275  12.5814   C.3       1 RES1   0.0000
    89 O4E     16.6133   0.0473  12.6280   O.3       1 RES1   0.0000
    90 C18E    17.2732  -0.1802  13.7655   C.3       1 RES1   0.0000
    91 H38E    17.8726  -0.9061  13.6443   H         1 RES1   0.0000
    92 H39E    16.6529  -0.3936  14.4536   H         1 RES1   0.0000
    93 H40E    17.7622   0.5968  14.0097   H         1 RES1   0.0000
    94 H36E    16.1219   1.8633  12.7063   H         1 RES1   0.0000
    95 H37E    15.0624   0.8895  13.2825   H         1 RES1   0.0000
    96 H34E    15.6204   1.0710  10.6327   H         1 RES1   0.0000
    97 H35E    14.4613   0.2633  11.2705   H         1 RES1   0.0000
    98 H32E    13.3881   2.1432  11.7422   H         1 RES1   0.0000
    99 H33E    14.5607   2.9739  11.1548   H         1 RES1   0.0000
   100 H3E     12.9456  -0.0473   9.7041   H         1 RES1   0.0000
   101 H4E     13.8864   0.2441   8.5051   H         1 RES1   0.0000
   102 H1E     12.1301   0.7080   7.1457   H         1 RES1   0.0000
   103 H2E     11.7569  -0.6186   7.8580   H         1 RES1   0.0000
   104 C3E      9.2398   0.7834   7.3209   C.3       1 RES1   0.0000
   105 C4E      7.7717   0.5840   7.6641   C.3       1 RES1   0.0000
   106 C5E      6.9422   0.4460   6.4221   C.3       1 RES1   0.0000
   107 O1E      5.6279   0.1035   6.7559   O.3       1 RES1   0.0000
   108 C6E      4.8374  -0.1917   5.6240   C.3       1 RES1   0.0000
   109 H11E     4.8119   0.5636   5.0497   H         1 RES1   0.0000
   110 H12E     3.9543  -0.4077   5.9019   H         1 RES1   0.0000
   111 H13E     5.2104  -0.9304   5.1597   H         1 RES1   0.0000
   112 H9E      6.9421   1.2716   5.9522   H         1 RES1   0.0000
   113 H10E     7.3146  -0.2313   5.8702   H         1 RES1   0.0000
   114 H7E      7.4643   1.3330   8.1619   H         1 RES1   0.0000
   115 H8E      7.6791  -0.2032   8.1880   H         1 RES1   0.0000
   116 H5E      9.5315  -0.0038   6.8771   H         1 RES1   0.0000
   117 H6E      9.2904   1.5208   6.7242   H         1 RES1   0.0000
   118 C7E      9.9013  -0.0869   9.9782   C.3       1 RES1   0.0000
   119 C8E      9.8940  -1.5617   9.5810   C.3       1 RES1   0.0000
   120 C9E      9.1595  -2.4346  10.5749   C.3       1 RES1   0.0000
   121 O2E      9.8318  -2.4180  11.8000   O.3       1 RES1   0.0000
   122 C10E     9.2312  -3.2461  12.7604   C.3       1 RES1   0.0000
   123 H20E     8.3441  -2.9496  12.9245   H         1 RES1   0.0000
   124 H21E     9.7325  -3.2103  13.5678   H         1 RES1   0.0000
   125 H22E     9.2131  -4.1407  12.4396   H         1 RES1   0.0000
   126 H18E     8.2765  -2.1061  10.6942   H         1 RES1   0.0000
   127 H19E     9.1246  -3.3266  10.2467   H         1 RES1   0.0000
   128 H16E    10.7922  -1.8633   9.5176   H         1 RES1   0.0000
   129 H17E     9.4715  -1.6448   8.7344   H         1 RES1   0.0000
   130 H14E     9.0190   0.1470  10.2393   H         1 RES1   0.0000
   131 H15E    10.4879   0.0089  10.7204   H         1 RES1   0.0000
@<TRIPOS>BOND
     1     1     2    1
     2     2     3    1
     3     3     9    1
     4     4     2    1
     5     5    13    1
     6     6    17    1
     7     7    21    1
     8     8    25    1
     9     9    10    1
    10    10     4    1
    11    11     3    1
    12    12    11    1
    13    13    12    1
    14    14     5    1
    15    15     3    1
    16    16    15    1
    17    17    16    1
    18    18     6    1
    19    19     4    1
    20    20    19    1
    21    21    20    1
    22    22     7    1
    23    23     4    1
    24    24    23    1
    25    25    24    1
    26    26     8    1
    27    27     9    1
    28    28     9    1
    29    29    10    1
    30    30    10    1
    31    31    11    1
    32    32    11    1
    33    33    12    1
    34    34    12    1
    35    35    13    1
    36    36    13    1
    37    37    14    1
    38    38    14    1
    39    39    14    1
    40    40    15    1
    41    41    15    1
    42    42    16    1
    43    43    16    1
    44    44    17    1
    45    45    17    1
    46    46    18    1
    47    47    18    1
    48    48    18    1
    49    49    19    1
    50    50    19    1
    51    51    20    1
    52    52    20    1
    53    53    21    1
    54    54    21    1
    55    55    22    1
    56    56    22    1
    57    57    22    1
    58    58    23    1
    59    59    23    1
    60    60    24    1
    61    61    24    1
    62    62    25    1
    63    63    25    1
    64    64    26    1
    65    65    26    1
    66    66    26    1
    67    67     2    1
    68    68     2    1
    69    69    68    1
    70    70    69    1
    71    71     2    1
    72    72    71    1
    73    73    72    1
    74    74    73    1
    75    75    74    1
    76    76    75    1
    77    77    76    1
    78    78    76    1
    79    79    76    1
    80    80    74    1
    81    81    74    1
    82    82    73    1
    83    83    73    1
    84    84    72    1
    85    85    72    1
    86    86    71    1
    87    87    86    1
    88    88    87    1
    89    89    88    1
    90    90    89    1
    91    91    90    1
    92    92    90    1
    93    93    90    1
    94    94    88    1
    95    95    88    1
    96    96    87    1
    97    97    87    1
    98    98    86    1
    99    99    86    1
   100   100    70    1
   101   101    70    1
   102   102    69    1
   103   103    69    1
   104   104    68    1
   105   105   104    1
   106   106   105    1
   107   107   106    1
   108   108   107    1
   109   109   108    1
   110   110   108    1
   111   111   108    1
   112   112   106    1
   113   113   106    1
   114   114   105    1
   115   115   105    1
   116   116   104    1
   117   117   104    1
   118   118    68    1
   119   119   118    1
   120   120   119    1
   121   121   120    1
   122   122   121    1
   123   123   122    1
   124   124   122    1
   125   125   122    1
   126   126   120    1
   127   127   120    1
   128   128   119    1
   129   129   119    1
   130   130   118    1
   131   131   118    1
   132    70    71    1
@<TRIPOS>SUBSTRUCTURE
     1 RES1        1 GROUP             0 ****  ****    0  
@<TRIPOS>CRYSIN
   19.7500   12.7800   20.0780   90.0000  111.7600   90.0000    15     1
