@<TRIPOS>MOLECULE
BAPGOP
   124   130     4     0     0
SMALL
USER_CHARGES
****
Generated from the CSD

@<TRIPOS>ATOM
     1 Fe1     10.0913   2.1446  10.4132   Fe        1 RES1   3.0000
     2 O1       7.4704   3.3668  14.0823   O.3       1 RES1   0.0000
     3 O2      13.3121   3.1113   7.1777   O.3       1 RES1   0.0000
     4 N1       8.2353   2.6226  10.6175   N.2       1 RES1   0.0000
     5 N2       6.2638   2.9414  11.5151   N.pl3     1 RES1   0.0000
     6 N3      10.4366   3.1869  11.9983   N.2       1 RES1   0.0000
     7 N4      10.3051   3.9433  14.0532   N.pl3     1 RES1   0.0000
     8 N5       9.7850   0.5398  11.5356   N.2       1 RES1   0.0000
     9 N6      10.0229  -1.6084  11.9973   N.pl3     1 RES1   0.0000
    10 N7      10.4267   3.6845   9.3162   N.2       1 RES1   0.0000
    11 N8      11.1788   4.9763   7.7113   N.pl3     1 RES1   0.0000
    12 N9       9.6876   1.0819   8.7880   N.2       1 RES1   0.0000
    13 N10      8.4243  -0.2810   7.6077   N.pl3     1 RES1   0.0000
    14 N11     11.9679   1.7095  10.2212   N.2       1 RES1   0.0000
    15 N12     13.8732   1.2241   9.2568   N.pl3     1 RES1   0.0000
    16 C1       7.3146   2.7914   9.6051   C.2       1 RES1   0.0000
    17 H1       7.5070   2.7748   8.6747   H         1 RES1   0.0000
    18 C2       6.1006   2.9825  10.1536   C.2       1 RES1   0.0000
    19 H2       5.2838   3.1202   9.6874   H         1 RES1   0.0000
    20 C3       7.5780   2.7425  11.7639   C.2       1 RES1   0.0000
    21 C4       5.1019   3.1091  12.4000   C.3       1 RES1   0.0000
    22 H3       4.3298   2.6392  12.0186   H         1 RES1   0.0000
    23 H4       4.8934   4.0633  12.4864   H         1 RES1   0.0000
    24 H5       5.3078   2.7381  13.2832   H         1 RES1   0.0000
    25 C5      11.6084   3.8356  12.3031   C.2       1 RES1   0.0000
    26 H6      12.3498   3.9422  11.7204   H         1 RES1   0.0000
    27 C6      11.5299   4.2943  13.5597   C.2       1 RES1   0.0000
    28 H7      12.2055   4.7753  14.0234   H         1 RES1   0.0000
    29 C7       9.6449   3.2746  13.0652   C.2       1 RES1   0.0000
    30 C8       9.9280   4.2477  15.4412   C.3       1 RES1   0.0000
    31 H8       9.0095   3.9477  15.6016   H         1 RES1   0.0000
    32 H9       9.9877   5.2140  15.5913   H         1 RES1   0.0000
    33 H10     10.5347   3.7834  16.0539   H         1 RES1   0.0000
    34 C9       9.1551   0.2699  12.7498   C.2       1 RES1   0.0000
    35 C10      9.3187  -1.0553  13.0166   C.2       1 RES1   0.0000
    36 H11      8.9936  -1.5129  13.7844   H         1 RES1   0.0000
    37 C11     10.2962  -0.6309  11.1329   C.2       1 RES1   0.0000
    38 H12     10.7915  -0.7498  10.3299   H         1 RES1   0.0000
    39 C12     10.4896  -3.0025  11.8562   C.3       1 RES1   0.0000
    40 H13     10.6423  -3.1869  10.8851   H         1 RES1   0.0000
    41 C13      9.4172  -3.9555  12.3597   C.3       1 RES1   0.0000
    42 H14      8.5656  -3.7511  11.9209   H         1 RES1   0.0000
    43 H15      9.3179  -3.8522  13.3294   H         1 RES1   0.0000
    44 H16      9.6784  -4.8775  12.1548   H         1 RES1   0.0000
    45 C14     11.7905  -3.1902  12.5815   C.3       1 RES1   0.0000
    46 H17     12.4406  -2.5315  12.2602   H         1 RES1   0.0000
    47 H18     12.1301  -4.0944  12.4170   H         1 RES1   0.0000
    48 H19     11.6479  -3.0658  13.5428   H         1 RES1   0.0000
    49 C15      8.2523   2.6703  13.1457   C.3       1 RES1   0.0000
    50 C16      7.2796   4.7764  13.8389   C.3       1 RES1   0.0000
    51 H20      6.5661   5.1141  14.4192   H         1 RES1   0.0000
    52 H21      7.0324   4.9152  12.9002   H         1 RES1   0.0000
    53 H22      8.1130   5.2563  14.0311   H         1 RES1   0.0000
    54 C17      8.3264   1.1897  13.6507   C.3       1 RES1   0.0000
    55 C18      6.9069   0.6120  13.7512   C.3       1 RES1   0.0000
    56 H23      6.3599   1.1897  14.3216   H         1 RES1   0.0000
    57 H24      6.9481  -0.2866  14.1391   H         1 RES1   0.0000
    58 H25      6.5103   0.5665  12.8565   H         1 RES1   0.0000
    59 C19      8.9500   1.1508  15.0585   C.3       1 RES1   0.0000
    60 H26      8.4069   1.6884  15.6710   H         1 RES1   0.0000
    61 H27      9.8595   1.5140  15.0232   H         1 RES1   0.0000
    62 H28      8.9806   0.2233  15.3754   H         1 RES1   0.0000
    63 C20     12.7681   1.0475  11.1347   C.2       1 RES1   0.0000
    64 H29     12.5346   0.8409  12.0314   H         1 RES1   0.0000
    65 C21     13.9269   0.7487  10.5353   C.2       1 RES1   0.0000
    66 H30     14.6578   0.2866  10.9288   H         1 RES1   0.0000
    67 C22     12.6679   1.8261   9.1088   C.2       1 RES1   0.0000
    68 C23     14.9609   0.9575   8.2968   C.3       1 RES1   0.0000
    69 H31     15.8137   1.2530   8.6772   H         1 RES1   0.0000
    70 H32     14.7893   1.4451   7.4641   H         1 RES1   0.0000
    71 H33     15.0042  -0.0033   8.1092   H         1 RES1   0.0000
    72 C24      9.7501   4.8875   9.3699   C.2       1 RES1   0.0000
    73 H34      9.0709   5.1174   9.9932   H         1 RES1   0.0000
    74 C25     10.2136   5.6750   8.3917   C.2       1 RES1   0.0000
    75 H35      9.9256   6.5592   8.2017   H         1 RES1   0.0000
    76 C26     11.2904   3.7645   8.3120   C.2       1 RES1   0.0000
    77 C27     11.8403   5.5706   6.5372   C.3       1 RES1   0.0000
    78 H36     11.1630   5.8328   5.8782   H         1 RES1   0.0000
    79 H37     12.4475   4.9152   6.1378   H         1 RES1   0.0000
    80 H38     12.3498   6.3615   6.8138   H         1 RES1   0.0000
    81 C28     10.1703   1.0408   7.4864   C.2       1 RES1   0.0000
    82 C29      9.3804   0.2077   6.7662   C.2       1 RES1   0.0000
    83 H39      9.4748   0.0022   5.8422   H         1 RES1   0.0000
    84 C30      8.6361   0.2555   8.8024   C.2       1 RES1   0.0000
    85 H40      8.1093   0.0755   9.5717   H         1 RES1   0.0000
    86 C31      7.3461  -1.2452   7.3021   C.3       1 RES1   0.0000
    87 H41      7.1203  -1.7295   8.1478   H         1 RES1   0.0000
    88 C32      7.8399  -2.2582   6.3100   C.3       1 RES1   0.0000
    89 H42      8.6737  -2.6548   6.6364   H         1 RES1   0.0000
    90 H43      7.9998  -1.8206   5.4490   H         1 RES1   0.0000
    91 H44      7.1646  -2.9614   6.1995   H         1 RES1   0.0000
    92 C33      6.1130  -0.5287   6.8395   C.3       1 RES1   0.0000
    93 H45      5.8031   0.0778   7.5437   H         1 RES1   0.0000
    94 H46      5.4118  -1.1830   6.6390   H         1 RES1   0.0000
    95 H47      6.3182  -0.0133   6.0299   H         1 RES1   0.0000
    96 C34     12.1880   2.6215   7.8799   C.3       1 RES1   0.0000
    97 C35     14.1951   3.9966   7.9087   C.3       1 RES1   0.0000
    98 H48     14.9532   4.2466   7.3381   H         1 RES1   0.0000
    99 H49     14.5283   3.5390   8.7081   H         1 RES1   0.0000
   100 H50     13.7052   4.8031   8.1735   H         1 RES1   0.0000
   101 C36     11.4233   1.6862   6.8683   C.3       1 RES1   0.0000
   102 C37     12.3407   0.5665   6.3892   C.3       1 RES1   0.0000
   103 H51     13.1541   0.9542   6.0042   H         1 RES1   0.0000
   104 H52     11.8789   0.0344   5.7086   H         1 RES1   0.0000
   105 H53     12.5796  -0.0067   7.1479   H         1 RES1   0.0000
   106 C38     10.9760   2.5071   5.6456   C.3       1 RES1   0.0000
   107 H54     11.7594   2.9114   5.2202   H         1 RES1   0.0000
   108 H55     10.3601   3.2124   5.9348   H         1 RES1   0.0000
   109 H56     10.5235   1.9194   5.0043   H         1 RES1   0.0000
   110 Cl1     11.2129  -2.4295   3.6837   Cl        2 RES2   0.0000
   111 O3      12.4304  -2.2271   2.9468   O.3       2 RES2  -1.0000
   112 O4      10.4877  -3.4923   3.0766   O.2       2 RES2   0.0000
   113 O5      10.4060  -1.2452   3.6701   O.2       2 RES2   0.0000
   114 O6      11.5456  -2.7492   5.0226   O.2       2 RES2   0.0000
   115 Cl2     13.3793  -2.8310   9.0445   Cl        3 RES3   0.0000
   116 O7      13.0891  -4.1444   9.5193   O.3       3 RES3  -1.0000
   117 O8      14.2220  -2.1816   9.9986   O.2       3 RES3   0.0000
   118 O9      14.0173  -2.9225   7.7908   O.2       3 RES3   0.0000
   119 O10     12.1798  -2.0816   8.9209   O.2       3 RES3   0.0000
   120 Cl3      4.0852   3.9627  15.9912   Cl        4 RES4   0.0000
   121 O11      4.3595   2.6959  15.4448   O.3       4 RES4  -1.0000
   122 O12      4.0745   4.9497  14.9546   O.2       4 RES4   0.0000
   123 O13      2.8314   3.9055  16.5962   O.2       4 RES4   0.0000
   124 O14      5.0744   4.2121  16.9304   O.2       4 RES4   0.0000
@<TRIPOS>BOND
     1     1     4    1
     2     2    49    1
     3     3    96    1
     4     4    16    1
     5     5    18    1
     6     6     1    1
     7     7    27    1
     8     8     1    1
     9     9    35    1
    10    10     1    1
    11    11    74    1
    12    12     1    1
    13    13    82    1
    14    14     1    1
    15    15    65    1
    16    16    17    1
    17    18    16    2
    18    19    18    1
    19    20     4    2
    20    21     5    1
    21    22    21    1
    22    23    21    1
    23    24    21    1
    24    25     6    1
    25    26    25    1
    26    27    25    2
    27    28    27    1
    28    29     6    2
    29    30     7    1
    30    31    30    1
    31    32    30    1
    32    33    30    1
    33    34     8    1
    34    35    34    2
    35    36    35    1
    36    37     8    2
    37    38    37    1
    38    39     9    1
    39    40    39    1
    40    41    39    1
    41    42    41    1
    42    43    41    1
    43    44    41    1
    44    45    39    1
    45    46    45    1
    46    47    45    1
    47    48    45    1
    48    49    20    1
    49    50     2    1
    50    51    50    1
    51    52    50    1
    52    53    50    1
    53    54    34    1
    54    55    54    1
    55    56    55    1
    56    57    55    1
    57    58    55    1
    58    59    54    1
    59    60    59    1
    60    61    59    1
    61    62    59    1
    62    63    14    1
    63    64    63    1
    64    65    63    2
    65    66    65    1
    66    67    14    2
    67    68    15    1
    68    69    68    1
    69    70    68    1
    70    71    68    1
    71    72    10    1
    72    73    72    1
    73    74    72    2
    74    75    74    1
    75    76    10    2
    76    77    11    1
    77    78    77    1
    78    79    77    1
    79    80    77    1
    80    81    12    1
    81    82    81    2
    82    83    82    1
    83    84    12    2
    84    85    84    1
    85    86    13    1
    86    87    86    1
    87    88    86    1
    88    89    88    1
    89    90    88    1
    90    91    88    1
    91    92    86    1
    92    93    92    1
    93    94    92    1
    94    95    92    1
    95    96    67    1
    96    97     3    1
    97    98    97    1
    98    99    97    1
    99   100    97    1
   100   101    81    1
   101   102   101    1
   102   103   102    1
   103   104   102    1
   104   105   102    1
   105   106   101    1
   106   107   106    1
   107   108   106    1
   108   109   106    1
   109     5    20    1
   110     7    29    1
   111     9    37    1
   112    11    76    1
   113    13    84    1
   114    15    67    1
   115    29    49    1
   116    49    54    1
   117    76    96    1
   118    96   101    1
   119   110   111    1
   120   112   110    2
   121   113   110    2
   122   114   110    2
   123   115   116    1
   124   117   115    2
   125   118   115    2
   126   119   115    2
   127   120   121    1
   128   122   120    2
   129   123   120    2
   130   124   120    2
@<TRIPOS>SUBSTRUCTURE
     1 RES1        1 GROUP             0 ****  ****    0  
     2 RES2      110 GROUP             0 ****  ****    0  
     3 RES3      115 GROUP             0 ****  ****    0  
     4 RES4      120 GROUP             0 ****  ****    0  
@<TRIPOS>CRYSIN
   16.1057   11.1079   26.2830   90.0000  102.0620   90.0000    14     1
