@<TRIPOS>MOLECULE
BAXJUI
   131   137     3     0     0
SMALL
USER_CHARGES
****
Generated from the CSD

@<TRIPOS>ATOM
     1 B1       3.8454   4.6561  12.3470   B         1 RES1  -1.0000
     2 F1       4.7939   5.4446  12.9899   F         1 RES1   0.0000
     3 F2       3.0447   5.4568  11.5463   F         1 RES1   0.0000
     4 F1E      4.4883   3.7077  11.5585   F         1 RES1   0.0000
     5 F1K      3.0570   4.0132  13.2954   F         1 RES1   0.0000
     6 B2      13.4114  12.0933   4.9098   B         2 RES2  -1.0000
     7 F3      13.5658  11.7270   3.5843   F         2 RES2   0.0000
     8 F4      14.2132  11.2914   5.7117   F         2 RES2   0.0000
     9 F3E     12.0858  11.9389   5.2761   F         2 RES2   0.0000
    10 F3K     13.7776  13.4188   5.0642   F         2 RES2   0.0000
    11 C1       1.1052  11.2962   0.9506   C.2       3 RES3   0.0000
    12 C2      -0.8672  11.0265   1.8540   C.2       3 RES3   0.0000
    13 H1      -1.6085  11.0775   2.4450   H         3 RES3   0.0000
    14 C3      -0.8241  10.3498   0.6679   C.2       3 RES3   0.0000
    15 H2      -1.5320   9.8380   0.2942   H         3 RES3   0.0000
    16 C4       2.4469  11.6357   0.5754   C.2       3 RES3   0.0000
    17 H3       3.0146  12.1725   1.1171   H         3 RES3   0.0000
    18 C5       4.1709  11.5006  -1.0804   C.3       3 RES3   0.0000
    19 H4       4.0535  11.8699  -2.0013   H         3 RES3   0.0000
    20 C6       5.0559  10.2675  -1.1928   C.ar      3 RES3   0.0000
    21 C7       5.2002   9.4005  -0.1275   C.ar      3 RES3   0.0000
    22 H5       4.6912   9.5353   0.6631   H         3 RES3   0.0000
    23 C8       6.0825   8.3356  -0.2035   C.ar      3 RES3   0.0000
    24 H6       6.1738   7.7415   0.5322   H         3 RES3   0.0000
    25 C9       6.8300   8.1365  -1.3485   C.ar      3 RES3   0.0000
    26 H7       7.4270   7.3997  -1.4045   H         3 RES3   0.0000
    27 C10      6.7094   9.0091  -2.4129   C.ar      3 RES3   0.0000
    28 H8       7.2314   8.8756  -3.1966   H         3 RES3   0.0000
    29 C11      5.8237  10.0861  -2.3422   C.ar      3 RES3   0.0000
    30 H9       5.7453  10.6898  -3.0708   H         3 RES3   0.0000
    31 C12      4.9374  12.5485  -0.2590   C.3       3 RES3   0.0000
    32 H10      4.3885  13.3542  -0.1632   H         3 RES3   0.0000
    33 H11      5.7726  12.7761  -0.7175   H         3 RES3   0.0000
    34 H12      5.1400  12.1844   0.6274   H         3 RES3   0.0000
    35 C13      0.6723  12.5905   3.0971   C.3       3 RES3   0.0000
    36 H13      0.1139  13.3984   2.9721   H         3 RES3   0.0000
    37 H14      1.6204  12.8611   3.0129   H         3 RES3   0.0000
    38 C14      0.4370  12.0356   4.5000   C.3       3 RES3   0.0000
    39 H15     -0.4642  11.6284   4.5517   H         3 RES3   0.0000
    40 H16      1.1052  11.3326   4.6980   H         3 RES3   0.0000
    41 C15      0.5521  13.1580   5.5252   C.3       3 RES3   0.0000
    42 H17      1.4436  13.5821   5.4410   H         3 RES3   0.0000
    43 H18     -0.1309  13.8473   5.3271   H         3 RES3   0.0000
    44 C16      0.3668  12.6758   6.9541   C.3       3 RES3   0.0000
    45 H19     -0.4982  12.2235   7.0376   H         3 RES3   0.0000
    46 H20      0.3945  13.4427   7.5630   H         3 RES3   0.0000
    47 H21      1.0848  12.0501   7.1838   H         3 RES3   0.0000
    48 Fe1      1.4377   9.9392  -1.4377   Fe        3 RES3   2.0000
    49 N1       0.4188  10.5346   0.1058   N.2       3 RES3   0.0000
    50 N2       0.3525  11.6155   2.0337   N.pl3     3 RES3   0.0000
    51 N3       2.8179  11.1474  -0.5638   N.2       3 RES3   0.0000
    52 C1G     -0.9506   9.6068  -2.7946   C.2       3 RES3   0.0000
    53 C2G     -1.8540   7.6344  -2.5250   C.2       3 RES3   0.0000
    54 H1G     -2.4450   6.8931  -2.5760   H         3 RES3   0.0000
    55 C3G     -0.6679   7.6774  -1.8482   C.2       3 RES3   0.0000
    56 H2G     -0.2942   6.9696  -1.3364   H         3 RES3   0.0000
    57 C4G     -0.5754  10.9485  -3.1342   C.2       3 RES3   0.0000
    58 H3G     -1.1171  11.5162  -3.6710   H         3 RES3   0.0000
    59 C5G      1.0804  12.6724  -2.9990   C.3       3 RES3   0.0000
    60 H4G      2.0013  12.5551  -3.3683   H         3 RES3   0.0000
    61 C6G      1.1928  13.5574  -1.7659   C.ar      3 RES3   0.0000
    62 C7G      0.1275  13.7018  -0.8990   C.ar      3 RES3   0.0000
    63 H5G     -0.6631  13.1927  -1.0338   H         3 RES3   0.0000
    64 C8G      0.2035  14.5841   0.1660   C.ar      3 RES3   0.0000
    65 H6G     -0.5322  14.6754   0.7600   H         3 RES3   0.0000
    66 C9G      1.3485  15.3315   0.3651   C.ar      3 RES3   0.0000
    67 H7G      1.4045  15.9285   1.1018   H         3 RES3   0.0000
    68 C10G     2.4129  15.2110  -0.5075   C.ar      3 RES3   0.0000
    69 H8G      3.1966  15.7330  -0.3741   H         3 RES3   0.0000
    70 C11G     2.3422  14.3253  -1.5845   C.ar      3 RES3   0.0000
    71 H9G      3.0708  14.2469  -2.1883   H         3 RES3   0.0000
    72 C12G     0.2590  13.4389  -4.0469   C.3       3 RES3   0.0000
    73 H10G     0.1632  12.8901  -4.8527   H         3 RES3   0.0000
    74 H11G     0.7175  14.2741  -4.2746   H         3 RES3   0.0000
    75 H12G    -0.6274  13.6416  -3.6829   H         3 RES3   0.0000
    76 C13G    -3.0971   9.1739  -4.0889   C.3       3 RES3   0.0000
    77 H13G    -2.9721   8.6155  -4.8969   H         3 RES3   0.0000
    78 H14G    -3.0129  10.1219  -4.3596   H         3 RES3   0.0000
    79 C14G    -4.5000   8.9385  -3.5341   C.3       3 RES3   0.0000
    80 H15G    -4.5517   8.0374  -3.1269   H         3 RES3   0.0000
    81 H16G    -4.6980   9.6068  -2.8310   H         3 RES3   0.0000
    82 C15G    -5.5252   9.0536  -4.6565   C.3       3 RES3   0.0000
    83 H17G    -5.4410   9.9451  -5.0805   H         3 RES3   0.0000
    84 H18G    -5.3271   8.3706  -5.3458   H         3 RES3   0.0000
    85 C16G    -6.9541   8.8683  -4.1743   C.3       3 RES3   0.0000
    86 H19G    -7.0376   8.0034  -3.7220   H         3 RES3   0.0000
    87 H20G    -7.5630   8.8960  -4.9411   H         3 RES3   0.0000
    88 H21G    -7.1838   9.5863  -3.5485   H         3 RES3   0.0000
    89 N1G     -0.1058   8.9203  -2.0331   N.2       3 RES3   0.0000
    90 N2G     -2.0337   8.8540  -3.1139   N.pl3     3 RES3   0.0000
    91 N3G      0.5638  11.3195  -2.6459   N.2       3 RES3   0.0000
    92 C1J      2.7946   7.5509  -1.1052   C.2       3 RES3   0.0000
    93 C2J      2.5250   6.6475   0.8672   C.2       3 RES3   0.0000
    94 H1J      2.5760   6.0565   1.6085   H         3 RES3   0.0000
    95 C3J      1.8482   7.8337   0.8241   C.2       3 RES3   0.0000
    96 H2J      1.3364   8.2074   1.5320   H         3 RES3   0.0000
    97 C4J      3.1342   7.9262  -2.4469   C.2       3 RES3   0.0000
    98 H3J      3.6710   7.3844  -3.0146   H         3 RES3   0.0000
    99 C5J      2.9990   9.5819  -4.1709   C.3       3 RES3   0.0000
   100 H4J      3.3683  10.5028  -4.0535   H         3 RES3   0.0000
   101 C6J      1.7659   9.6943  -5.0559   C.ar      3 RES3   0.0000
   102 C7J      0.8990   8.6291  -5.2002   C.ar      3 RES3   0.0000
   103 H5J      1.0338   7.8384  -4.6912   H         3 RES3   0.0000
   104 C8J     -0.1660   8.7051  -6.0825   C.ar      3 RES3   0.0000
   105 H6J     -0.7600   7.9694  -6.1738   H         3 RES3   0.0000
   106 C9J     -0.3651   9.8501  -6.8300   C.ar      3 RES3   0.0000
   107 H7J     -1.1018   9.9060  -7.4270   H         3 RES3   0.0000
   108 C10J     0.5075  10.9145  -6.7094   C.ar      3 RES3   0.0000
   109 H8J      0.3741  11.6981  -7.2314   H         3 RES3   0.0000
   110 C11J     1.5845  10.8437  -5.8237   C.ar      3 RES3   0.0000
   111 H9J      2.1883  11.5723  -5.7453   H         3 RES3   0.0000
   112 C12J     4.0469   8.7605  -4.9374   C.3       3 RES3   0.0000
   113 H10J     4.8527   8.6648  -4.3885   H         3 RES3   0.0000
   114 H11J     4.2746   9.2191  -5.7726   H         3 RES3   0.0000
   115 H12J     3.6829   7.8741  -5.1400   H         3 RES3   0.0000
   116 C13J     4.0889   5.4044  -0.6723   C.3       3 RES3   0.0000
   117 H13J     4.8969   5.5294  -0.1139   H         3 RES3   0.0000
   118 H14J     4.3596   5.4886  -1.6204   H         3 RES3   0.0000
   119 C14J     3.5341   4.0015  -0.4370   C.3       3 RES3   0.0000
   120 H15J     3.1269   3.9498   0.4642   H         3 RES3   0.0000
   121 H16J     2.8310   3.8036  -1.1052   H         3 RES3   0.0000
   122 C15J     4.6565   2.9764  -0.5521   C.3       3 RES3   0.0000
   123 H17J     5.0805   3.0606  -1.4436   H         3 RES3   0.0000
   124 H18J     5.3458   3.1745   0.1309   H         3 RES3   0.0000
   125 C16J     4.1743   1.5475  -0.3668   C.3       3 RES3   0.0000
   126 H19J     3.7220   1.4640   0.4982   H         3 RES3   0.0000
   127 H20J     4.9411   0.9386  -0.3945   H         3 RES3   0.0000
   128 H21J     3.5485   1.3177  -1.0848   H         3 RES3   0.0000
   129 N1J      2.0331   8.3958  -0.4188   N.2       3 RES3   0.0000
   130 N2J      3.1139   6.4678  -0.3525   N.pl3     3 RES3   0.0000
   131 N3J      2.6459   9.0654  -2.8179   N.2       3 RES3   0.0000
@<TRIPOS>BOND
     1     1     2    1
     2     3     1    1
     3     4     1    1
     4     5     1    1
     5     6     7    1
     6     8     6    1
     7     9     6    1
     8    10     6    1
     9    11    16    1
    10    12    13    1
    11    14    12    2
    12    15    14    1
    13    16    17    1
    14    18    19    1
    15    20    18    1
    16    21    20   ar
    17    22    21    1
    18    23    21   ar
    19    24    23    1
    20    25    23   ar
    21    26    25    1
    22    27    25   ar
    23    28    27    1
    24    29    20   ar
    25    30    29    1
    26    31    18    1
    27    32    31    1
    28    33    31    1
    29    34    31    1
    30    35    36    1
    31    37    35    1
    32    38    35    1
    33    39    38    1
    34    40    38    1
    35    41    38    1
    36    42    41    1
    37    43    41    1
    38    44    41    1
    39    45    44    1
    40    46    44    1
    41    47    44    1
    42    48    49    1
    43    49    11    2
    44    50    11    1
    45    51    16    2
    46    52    57    1
    47    53    54    1
    48    55    53    2
    49    56    55    1
    50    57    58    1
    51    59    60    1
    52    61    59    1
    53    62    61   ar
    54    63    62    1
    55    64    62   ar
    56    65    64    1
    57    66    64   ar
    58    67    66    1
    59    68    66   ar
    60    69    68    1
    61    70    61   ar
    62    71    70    1
    63    72    59    1
    64    73    72    1
    65    74    72    1
    66    75    72    1
    67    76    77    1
    68    78    76    1
    69    79    76    1
    70    80    79    1
    71    81    79    1
    72    82    79    1
    73    83    82    1
    74    84    82    1
    75    85    82    1
    76    86    85    1
    77    87    85    1
    78    88    85    1
    79    89    48    1
    80    90    52    1
    81    91    48    1
    82    92    97    1
    83    93    94    1
    84    95    93    2
    85    96    95    1
    86    97    98    1
    87    99   100    1
    88   101    99    1
    89   102   101   ar
    90   103   102    1
    91   104   102   ar
    92   105   104    1
    93   106   104   ar
    94   107   106    1
    95   108   106   ar
    96   109   108    1
    97   110   101   ar
    98   111   110    1
    99   112    99    1
   100   113   112    1
   101   114   112    1
   102   115   112    1
   103   116   117    1
   104   118   116    1
   105   119   116    1
   106   120   119    1
   107   121   119    1
   108   122   119    1
   109   123   122    1
   110   124   122    1
   111   125   122    1
   112   126   125    1
   113   127   125    1
   114   128   125    1
   115   129    48    1
   116   130    92    1
   117   131    48    1
   118    12    50    1
   119    14    49    1
   120    18    51    1
   121    27    29   ar
   122    35    50    1
   123    48    51    1
   124    52    89    2
   125    53    90    1
   126    55    89    1
   127    57    91    2
   128    59    91    1
   129    68    70   ar
   130    76    90    1
   131    92   129    2
   132    93   130    1
   133    95   129    1
   134    97   131    2
   135    99   131    1
   136   108   110   ar
   137   116   130    1
@<TRIPOS>SUBSTRUCTURE
     1 RES1        1 GROUP             0 ****  ****    0  
     2 RES2        6 GROUP             0 ****  ****    0  
     3 RES3       11 GROUP             0 ****  ****    0  
@<TRIPOS>CRYSIN
   17.0031   17.0031   17.0031   90.0000   90.0000   90.0000   198     1
