@<TRIPOS>MOLECULE
BECQOQ
   315   342    13     0     0
SMALL
NO_CHARGES
****
Generated from the CSD

@<TRIPOS>ATOM
     1 Fe1      5.3199  13.0624   2.4712   Fe        1 RES1   0.0000
     2 Fe2      7.6025  14.9118   3.7773   Fe        1 RES1   0.0000
     3 Fe3      6.1491  12.8334   5.3858   Fe        1 RES1   0.0000
     4 Fe4      6.6295  15.9775   7.0197   Fe        1 RES1   0.0000
     5 Fe5      9.2458  13.5880   6.4381   Fe        1 RES1   0.0000
     6 N1       5.3884  11.3653   1.2518   N.2       1 RES1   0.0000
     7 N2       6.9773  16.4939   2.4829   N.2       1 RES1   0.0000
     8 N3       5.8963  15.6838   9.0361   N.2       1 RES1   0.0000
     9 N4      10.6970  13.7789   8.0232   N.2       1 RES1   0.0000
    10 O1       5.6667  14.2898   3.9941   O.3       1 RES1   0.0000
    11 H1       5.2735  15.0417   4.1629   H         1 RES1   0.0000
    12 O2       7.9133  13.5532   5.0997   O.3       1 RES1   0.0000
    13 O3       4.5583  13.9878   1.0212   O.3       1 RES1   0.0000
    14 O4       6.1586  11.7442   3.7264   O.3       1 RES1   0.0000
    15 O5       7.2788  13.7733   2.1329   O.3       1 RES1   0.0000
    16 O6       7.2544  16.3124   5.1326   O.3       1 RES1   0.0000
    17 O7       3.4802  12.8133   3.3270   O.co2     1 RES1   0.0000
    18 O8       4.0915  12.4381   5.4641   O.co2     1 RES1   0.0000
    19 O9       9.5133  15.2705   3.3661   O.co2     1 RES1   0.0000
    20 O10     10.4151  14.9752   5.3776   O.co2     1 RES1   0.0000
    21 O11      4.8202  16.8574   6.5923   O.co2     1 RES1   0.0000
    22 O12      3.8256  15.7884   4.8999   O.co2     1 RES1   0.0000
    23 O13      7.2081  17.6756   7.6752   O.3       1 RES1   0.0000
    24 O14      5.8332  14.1383   6.8229   O.3       1 RES1   0.0000
    25 O15     10.3836  12.1975   5.8058   O.3       1 RES1   0.0000
    26 O16      8.4056  15.0783   7.4693   O.3       1 RES1   0.0000
    27 O17      6.5358  11.3188   6.6005   O.co2     1 RES1   0.0000
    28 O18      8.2835  12.1774   7.6876   O.co2     1 RES1   0.0000
    29 C1       4.6237  13.7502  -0.2903   C.ar      1 RES1   0.0000
    30 C2       4.2220  14.7907  -1.1385   C.ar      1 RES1   0.0000
    31 H3       3.9003  15.6019  -0.7659   H         1 RES1   0.0000
    32 C3       4.2920  14.6497  -2.5200   C.ar      1 RES1   0.0000
    33 H4       4.0132  15.3620  -3.0841   H         1 RES1   0.0000
    34 C4       4.7499  13.5143  -3.0511   C.ar      1 RES1   0.0000
    35 H5       4.8325  13.4413  -3.9941   H         1 RES1   0.0000
    36 C5       5.1069  12.4380  -2.2482   C.ar      1 RES1   0.0000
    37 H6       5.4037  11.6325  -2.6517   H         1 RES1   0.0000
    38 C6       5.0365  12.5251  -0.8256   C.ar      1 RES1   0.0000
    39 C7       5.3871  11.3040  -0.0494   C.2       1 RES1   0.0000
    40 C8       5.7252  10.0487  -0.7844   C.3       1 RES1   0.0000
    41 H7       5.0497   9.8834  -1.4762   H         1 RES1   0.0000
    42 H8       5.7420   9.2970  -0.1565   H         1 RES1   0.0000
    43 H9       6.6048  10.1446  -1.2065   H         1 RES1   0.0000
    44 C9       5.7533  10.1364   2.0135   C.3       1 RES1   0.0000
    45 H10      6.6819   9.8684   1.7973   H         1 RES1   0.0000
    46 H11      5.1471   9.3925   1.7685   H         1 RES1   0.0000
    47 C10      5.6367  10.4322   3.4773   C.3       1 RES1   0.0000
    48 H12      4.6888  10.3881   3.7553   H         1 RES1   0.0000
    49 H13      6.1460   9.7615   3.9982   H         1 RES1   0.0000
    50 C11      7.6783  14.1205   0.8770   C.ar      1 RES1   0.0000
    51 C12      8.2230  13.1426   0.0494   C.ar      1 RES1   0.0000
    52 H14      8.3597  12.2666   0.3871   H         1 RES1   0.0000
    53 C13      8.5699  13.4314  -1.2559   C.ar      1 RES1   0.0000
    54 H15      8.9392  12.7574  -1.8138   H         1 RES1   0.0000
    55 C14      8.3726  14.7139  -1.7459   C.ar      1 RES1   0.0000
    56 H16      8.5993  14.9181  -2.6456   H         1 RES1   0.0000
    57 C15      7.8577  15.6818  -0.9450   C.ar      1 RES1   0.0000
    58 H17      7.7433  16.5566  -1.2970   H         1 RES1   0.0000
    59 C16      7.4840  15.4310   0.3973   C.ar      1 RES1   0.0000
    60 C17      6.8935  16.5077   1.1838   C.2       1 RES1   0.0000
    61 C18      6.1822  17.6502   0.4694   C.3       1 RES1   0.0000
    62 H18      5.8082  17.3256  -0.3747   H         1 RES1   0.0000
    63 H19      6.8218  18.3711   0.2882   H         1 RES1   0.0000
    64 H20      5.4588  17.9908   1.0376   H         1 RES1   0.0000
    65 C19      6.4204  17.5931   3.2900   C.3       1 RES1   0.0000
    66 H21      5.4578  17.4413   3.4608   H         1 RES1   0.0000
    67 H22      6.5220  18.4546   2.8103   H         1 RES1   0.0000
    68 C20      7.1785  17.6297   4.5870   C.3       1 RES1   0.0000
    69 H23      8.0912  17.9813   4.4326   H         1 RES1   0.0000
    70 H24      6.7195  18.2307   5.2252   H         1 RES1   0.0000
    71 C21      3.2292  12.6704   4.5664   C.2       1 RES1   0.0000
    72 C22      1.7896  12.7541   4.9926   C.3       1 RES1   0.0000
    73 H25      1.7271  13.2482   5.8388   H         1 RES1   0.0000
    74 H26      1.4338  11.8492   5.1161   H         1 RES1   0.0000
    75 H27      1.2713  13.2196   4.3050   H         1 RES1   0.0000
    76 C23     10.4993  15.2605   4.1691   C.2       1 RES1   0.0000
    77 C24     11.8414  15.5407   3.5906   C.3       1 RES1   0.0000
    78 H28     12.5350  15.2773   4.2329   H         1 RES1   0.0000
    79 H29     11.9220  16.4996   3.4011   H         1 RES1   0.0000
    80 H30     11.9533  15.0332   2.7609   H         1 RES1   0.0000
    81 C25      3.8877  16.6990   5.7441   C.2       1 RES1   0.0000
    82 C26      2.7958  17.7239   5.7173   C.3       1 RES1   0.0000
    83 H31      1.9257  17.2726   5.7296   H         1 RES1   0.0000
    84 H32      2.8727  18.2614   4.9020   H         1 RES1   0.0000
    85 H33      2.8734  18.3056   6.5017   H         1 RES1   0.0000
    86 C27      6.7798  18.4434   8.6531   C.ar      1 RES1   0.0000
    87 C28      6.9598  19.8253   8.5646   C.ar      1 RES1   0.0000
    88 H34      7.3618  20.1922   7.7864   H         1 RES1   0.0000
    89 C29      6.5700  20.6650   9.5755   C.ar      1 RES1   0.0000
    90 H35      6.6891  21.6024   9.4746   H         1 RES1   0.0000
    91 C30      5.9992  20.1641  10.7552   C.ar      1 RES1   0.0000
    92 H36      5.7452  20.7459  11.4614   H         1 RES1   0.0000
    93 C31      5.8172  18.8113  10.8602   C.ar      1 RES1   0.0000
    94 H37      5.4327  18.4714  11.6590   H         1 RES1   0.0000
    95 C32      6.1678  17.8987   9.8514   C.ar      1 RES1   0.0000
    96 C33      5.8759  16.4763  10.0099   C.2       1 RES1   0.0000
    97 C34      5.5786  15.9942  11.4346   C.3       1 RES1   0.0000
    98 H38      6.0673  16.5502  12.0769   H         1 RES1   0.0000
    99 H39      5.8626  15.0602  11.5293   H         1 RES1   0.0000
   100 H40      4.6167  16.0625  11.6096   H         1 RES1   0.0000
   101 C35      5.4453  14.2804   9.1884   C.3       1 RES1   0.0000
   102 H41      4.7576  14.2190   9.8967   H         1 RES1   0.0000
   103 H42      6.2081  13.7020   9.4417   H         1 RES1   0.0000
   104 C36      4.8728  13.8307   7.8667   C.3       1 RES1   0.0000
   105 H43      4.6944  12.8563   7.8873   H         1 RES1   0.0000
   106 H44      4.0199  14.3012   7.6917   H         1 RES1   0.0000
   107 C37     11.5618  11.6965   6.1641   C.ar      1 RES1   0.0000
   108 C38     12.0988  10.6658   5.3797   C.ar      1 RES1   0.0000
   109 H45     11.6110  10.3793   4.6179   H         1 RES1   0.0000
   110 C39     13.2855  10.0593   5.6596   C.ar      1 RES1   0.0000
   111 H46     13.6012   9.3437   5.1202   H         1 RES1   0.0000
   112 C40     14.0200  10.4969   6.7364   C.ar      1 RES1   0.0000
   113 H47     14.8546  10.0915   6.9361   H         1 RES1   0.0000
   114 C41     13.5458  11.5254   7.5290   C.ar      1 RES1   0.0000
   115 H48     14.0739  11.8276   8.2579   H         1 RES1   0.0000
   116 C42     12.2771  12.1453   7.2779   C.ar      1 RES1   0.0000
   117 C43     11.8121  13.1770   8.1714   C.2       1 RES1   0.0000
   118 C44     12.6818  13.4979   9.3346   C.3       1 RES1   0.0000
   119 H49     12.3478  14.1798   9.8452   H         1 RES1   0.0000
   120 H50     13.5918  13.7913   8.9167   H         1 RES1   0.0000
   121 H51     12.8877  12.6734   9.8205   H         1 RES1   0.0000
   122 C45     10.2682  14.8285   8.9290   C.3       1 RES1   0.0000
   123 H52     10.3480  14.4941   9.8575   H         1 RES1   0.0000
   124 H53     10.8842  15.5953   8.8323   H         1 RES1   0.0000
   125 C46      8.9668  15.2789   8.7334   C.3       1 RES1   0.0000
   126 H54      8.9469  16.2485   8.9270   H         1 RES1   0.0000
   127 H55      8.3850  14.8325   9.3984   H         1 RES1   0.0000
   128 C47      7.4144  11.3166   7.5290   C.2       1 RES1   0.0000
   129 C48      7.3561  10.1503   8.4884   C.3       1 RES1   0.0000
   130 H56      7.6551  10.4423   9.3758   H         1 RES1   0.0000
   131 H57      7.9408   9.4323   8.1673   H         1 RES1   0.0000
   132 H58      6.4354   9.8202   8.5461   H         1 RES1   0.0000
   133 Fe6      9.1261   2.0065   2.5688   Fe        2 RES2   0.0000
   134 Fe7     11.3344   3.9141   3.9251   Fe        2 RES2   0.0000
   135 Fe8      9.7713   1.9164   5.5314   Fe        2 RES2   0.0000
   136 Fe9     10.2448   5.0871   7.1006   Fe        2 RES2   0.0000
   137 Fe10    12.8445   2.6581   6.6849   Fe        2 RES2   0.0000
   138 N5       9.2047   0.2397   1.4350   N.2       2 RES2   0.0000
   139 N6      10.7967   5.4593   2.5406   N.2       2 RES2   0.0000
   140 N7       9.5635   4.8142   9.1123   N.2       2 RES2   0.0000
   141 N8      14.0920   2.7978   8.4267   N.2       2 RES2   0.0000
   142 O19      9.3838   3.3079   4.0497   O.3       2 RES2   0.0000
   143 H2       9.1124   3.7028   4.2844   H         2 RES2   0.0000
   144 O20     11.5732   2.5870   5.2870   O.3       2 RES2   0.0000
   145 O21      8.5019   2.8815   1.0376   O.3       2 RES2   0.0000
   146 O22      9.8518   0.7229   3.9200   O.3       2 RES2   0.0000
   147 O23     11.1204   2.7161   2.3306   O.3       2 RES2   0.0000
   148 O24     10.8795   5.3384   5.2232   O.3       2 RES2   0.0000
   149 O25      7.2328   1.7675   3.3311   O.co2     2 RES2   0.0000
   150 O26      7.7249   1.5282   5.5114   O.co2     2 RES2   0.0000
   151 O27     13.2508   4.4522   3.7223   O.co2     2 RES2   0.0000
   152 O28     14.0345   4.1411   5.7873   O.co2     2 RES2   0.0000
   153 O29     10.0774   0.4110   6.7549   O.co2     2 RES2   0.0000
   154 O30     11.8786   1.1439   7.8296   O.co2     2 RES2   0.0000
   155 O31      8.4336   5.9519   6.6355   O.co2     2 RES2   0.0000
   156 O32      7.5556   4.9594   4.8238   O.co2     2 RES2   0.0000
   157 O33     10.8222   6.7994   7.6732   O.3       2 RES2   0.0000
   158 O34      9.4410   3.2429   6.9299   O.3       2 RES2   0.0000
   159 O35     14.1244   1.3614   6.0755   O.3       2 RES2   0.0000
   160 O36     11.9539   4.1547   7.6567   O.3       2 RES2   0.0000
   161 C49      8.5210   2.5541  -0.2697   C.ar      2 RES2   0.0000
   162 C50      8.1725   3.5541  -1.1591   C.ar      2 RES2   0.0000
   163 H59      7.8992   4.4024  -0.8297   H         2 RES2   0.0000
   164 C51      8.2162   3.3312  -2.5467   C.ar      2 RES2   0.0000
   165 H60      7.9889   4.0257  -3.1520   H         2 RES2   0.0000
   166 C52      8.5908   2.0936  -3.0141   C.ar      2 RES2   0.0000
   167 H61      8.6206   1.9342  -3.9508   H         2 RES2   0.0000
   168 C53      8.9230   1.0936  -2.1453   C.ar      2 RES2   0.0000
   169 H62      9.1852   0.2487  -2.4932   H         2 RES2   0.0000
   170 C54      8.8892   1.2783  -0.7453   C.ar      2 RES2   0.0000
   171 C55      9.1955   0.0986   0.1276   C.2       2 RES2   0.0000
   172 C56      9.4683  -1.2005  -0.5312   C.3       2 RES2   0.0000
   173 H63      8.7907  -1.3670  -1.2209   H         2 RES2   0.0000
   174 H64      9.4392  -1.9174   0.1359   H         2 RES2   0.0000
   175 H65     10.3572  -1.1753  -0.9470   H         2 RES2   0.0000
   176 C57      9.5147  -0.9365   2.2564   C.3       2 RES2   0.0000
   177 H66     10.4544  -1.2136   2.1103   H         2 RES2   0.0000
   178 H67      8.9238  -1.6906   2.0053   H         2 RES2   0.0000
   179 C58      9.3054  -0.5801   3.6997   C.3       2 RES2   0.0000
   180 H68      8.3387  -0.5848   3.9138   H         2 RES2   0.0000
   181 H69      9.7575  -1.2419   4.2823   H         2 RES2   0.0000
   182 C59     11.5614   2.9870   1.0582   C.ar      2 RES2   0.0000
   183 C60     12.1157   2.0022   0.3171   C.ar      2 RES2   0.0000
   184 H70     12.2551   1.1509   0.7123   H         2 RES2   0.0000
   185 C61     12.4892   2.1979  -0.9985   C.ar      2 RES2   0.0000
   186 H71     12.8598   1.4846  -1.5050   H         2 RES2   0.0000
   187 C62     12.3179   3.4401  -1.5667   C.ar      2 RES2   0.0000
   188 H72     12.5754   3.5860  -2.4706   H         2 RES2   0.0000
   189 C63     11.7831   4.4630  -0.8379   C.ar      2 RES2   0.0000
   190 H73     11.6747   5.3121  -1.2497   H         2 RES2   0.0000
   191 C64     11.3815   4.2987   0.5188   C.ar      2 RES2   0.0000
   192 C65     10.7831   5.4294   1.2394   C.2       2 RES2   0.0000
   193 C66     10.1649   6.5394   0.4365   C.3       2 RES2   0.0000
   194 H74      9.7113   6.1609  -0.3459   H         2 RES2   0.0000
   195 H75     10.8659   7.1582   0.1421   H         2 RES2   0.0000
   196 H76      9.5153   7.0203   0.9903   H         2 RES2   0.0000
   197 C67     10.2460   6.6012   3.2817   C.3       2 RES2   0.0000
   198 H77      9.2653   6.5068   3.3723   H         2 RES2   0.0000
   199 H78     10.4320   7.4426   2.7938   H         2 RES2   0.0000
   200 C68     10.8859   6.6513   4.6570   C.3       2 RES2   0.0000
   201 H79     11.8161   6.9814   4.5829   H         2 RES2   0.0000
   202 H80     10.3824   7.2736   5.2397   H         2 RES2   0.0000
   203 C69      6.9108   1.6325   4.5602   C.2       2 RES2   0.0000
   204 C70      5.4364   1.5704   4.8752   C.3       2 RES2   0.0000
   205 H81      5.2453   2.1274   5.6555   H         2 RES2   0.0000
   206 H82      5.1835   0.6430   5.0647   H         2 RES2   0.0000
   207 H83      4.9255   1.8969   4.1053   H         2 RES2   0.0000
   208 C71     14.0504   4.7003   4.6735   C.2       2 RES2   0.0000
   209 C72     15.0722   5.7995   4.4861   C.3       2 RES2   0.0000
   210 H84     15.8448   5.6293   5.0647   H         2 RES2   0.0000
   211 H85     14.6706   6.6602   4.7188   H         2 RES2   0.0000
   212 H86     15.3639   5.8151   3.5494   H         2 RES2   0.0000
   213 C73     10.9728   0.3179   7.6649   C.2       2 RES2   0.0000
   214 C74     10.8726  -0.8719   8.5646   C.3       2 RES2   0.0000
   215 H87     11.6975  -1.3972   8.5070   H         2 RES2   0.0000
   216 H88     10.1112  -1.4250   8.2908   H         2 RES2   0.0000
   217 H89     10.7419  -0.5710   9.4890   H         2 RES2   0.0000
   218 C75      7.6065   5.8598   5.6946   C.2       2 RES2   0.0000
   219 C76      6.6024   7.0083   5.5773   C.3       2 RES2   0.0000
   220 H90      5.9187   6.7778   4.9144   H         2 RES2   0.0000
   221 H91      7.0691   7.8225   5.2952   H         2 RES2   0.0000
   222 H92      6.1769   7.1600   6.4461   H         2 RES2   0.0000
   223 C77     10.6063   7.5199   8.7623   C.ar      2 RES2   0.0000
   224 C78     10.8849   8.9041   8.6779   C.ar      2 RES2   0.0000
   225 H93     11.2089   9.2631   7.8605   H         2 RES2   0.0000
   226 C79     10.6954   9.7414   9.7546   C.ar      2 RES2   0.0000
   227 H94     10.8483  10.6732   9.6723   H         2 RES2   0.0000
   228 C80     10.2711   9.1933  10.9796   C.ar      2 RES2   0.0000
   229 H95     10.1652   9.7514  11.7413   H         2 RES2   0.0000
   230 C81     10.0117   7.8731  11.0702   C.ar      2 RES2   0.0000
   231 H96      9.7316   7.5219  11.9061   H         2 RES2   0.0000
   232 C82     10.1394   6.9853   9.9749   C.ar      2 RES2   0.0000
   233 C83      9.7352   5.5674  10.1375   C.2       2 RES2   0.0000
   234 C84      9.5499   5.0292  11.5499   C.3       2 RES2   0.0000
   235 H97     10.1567   5.4977  12.1593   H         2 RES2   0.0000
   236 H98      9.7508   4.0705  11.5622   H         2 RES2   0.0000
   237 H99      8.6230   5.1725  11.8340   H         2 RES2   0.0000
   238 C85      9.0446   3.4412   9.2708   C.3       2 RES2   0.0000
   239 H100     8.3450   3.4213   9.9687   H         2 RES2   0.0000
   240 H101     9.7757   2.8313   9.5446   H         2 RES2   0.0000
   241 C86      8.4739   3.0015   7.9593   C.3       2 RES2   0.0000
   242 H102     8.2512   2.0372   7.9943   H         2 RES2   0.0000
   243 H103     7.6441   3.5057   7.7679   H         2 RES2   0.0000
   244 C87     15.2232   0.8579   6.5573   C.ar      2 RES2   0.0000
   245 C88     15.9834   0.0215   5.7132   C.ar      2 RES2   0.0000
   246 H104    15.6810  -0.1358   4.8258   H         2 RES2   0.0000
   247 C89     17.1516  -0.5728   6.1352   C.ar      2 RES2   0.0000
   248 H105    17.6298  -1.1559   5.5588   H         2 RES2   0.0000
   249 C90     17.6200  -0.3127   7.3973   C.ar      2 RES2   0.0000
   250 H106    18.4430  -0.6891   7.6834   H         2 RES2   0.0000
   251 C91     16.9216   0.4699   8.2249   C.ar      2 RES2   0.0000
   252 H107    17.2582   0.6182   9.0999   H         2 RES2   0.0000
   253 C92     15.6971   1.0888   7.8523   C.ar      2 RES2   0.0000
   254 C93     15.0731   2.0026   8.8220   C.2       2 RES2   0.0000
   255 C94     15.5743   2.0582  10.2364   C.3       2 RES2   0.0000
   256 H108    14.8353   2.2966  10.8355   H         2 RES2   0.0000
   257 H109    16.2807   2.7361  10.3064   H         2 RES2   0.0000
   258 H110    15.9330   1.1846  10.4917   H         2 RES2   0.0000
   259 C95     13.5649   3.7834   9.3470   C.3       2 RES2   0.0000
   260 H111    14.3015   4.1982   9.8617   H         2 RES2   0.0000
   261 H112    12.9398   3.3561   9.9852   H         2 RES2   0.0000
   262 C96     12.8430   4.8339   8.5420   C.3       2 RES2   0.0000
   263 H113    12.3354   5.4360   9.1411   H         2 RES2   0.0000
   264 H114    13.4913   5.3756   8.0273   H         2 RES2   0.0000
   265 Cl1      5.8330  21.3775   2.6110   Cl        3 RES3   0.0000
   266 Cl2      4.9127  20.5828   5.2438   Cl        3 RES3   0.0000
   267 C97      5.0957  21.9318   4.1670   C.3       3 RES3   0.0000
   268 H115     5.6739  22.6149   4.5850   H         3 RES3   0.0000
   269 H116     4.2114  22.3383   3.9900   H         3 RES3   0.0000
   270 Cl3      0.0812  19.6953   6.5394   Cl        4 RES4   0.0000
   271 Cl4     -0.7402  21.1728   8.9210   Cl        4 RES4   0.0000
   272 C98     -0.6410  21.1493   7.1646   C.3       4 RES4   0.0000
   273 H117    -1.5539  21.2418   6.7899   H         4 RES4   0.0000
   274 H118    -0.1107  21.9276   6.8620   H         4 RES4   0.0000
   275 Cl5      4.0144  14.1465  -6.8284   Cl        5 RES5   0.0000
   276 Cl6      3.5186  12.3024  -9.0001   Cl        5 RES5   0.0000
   277 C99      3.4272  12.6076  -7.2470   C.3       5 RES5   0.0000
   278 H119     2.4848  12.5276  -6.9526   H         5 RES5   0.0000
   279 H120     3.9526  11.9178  -6.7693   H         5 RES5   0.0000
   280 Cl7      3.7058   4.6801   5.9716   Cl        6 RES6   0.0000
   281 Cl8      2.1600   5.1543   8.3797   Cl        6 RES6   0.0000
   282 C100     2.4935   4.0128   7.0905   C.3       6 RES6   0.0000
   283 H121     1.6576   3.8158   6.5964   H         6 RES6   0.0000
   284 H122     2.8278   3.1648   7.4755   H         6 RES6   0.0000
   285 Cl9      2.4443  17.6127   1.7527   Cl        7 RES7   0.0000
   286 Cl10     0.4514  15.6107   2.4520   Cl        7 RES7   0.0000
   287 C101     2.1489  15.9543   2.1679   C.3       7 RES7   0.0000
   288 H123     2.6640  15.7322   2.9853   H         7 RES7   0.0000
   289 H124     2.4767  15.3771   1.4370   H         7 RES7   0.0000
   290 Cl11     2.5742  18.0035  -2.1582   Cl        8 RES8   0.0000
   291 Cl12     0.6293  15.9495  -1.4836   Cl        8 RES8   0.0000
   292 C102     0.8749  17.5913  -2.0114   C.3       8 RES8   0.0000
   293 H125     0.4454  18.2057  -1.3650   H         8 RES8   0.0000
   294 H126     0.4337  17.7180  -2.8885   H         8 RES8   0.0000
   295 Cl13    13.5866  -1.4091  -0.8713   Cl        9 RES9   0.0000
   296 Cl14    12.9135  -2.7938  -3.3274   Cl        9 RES9   0.0000
   297 C103    14.1561  -2.1751  -2.3182   C.3       9 RES9   0.0000
   298 H127    14.6873  -1.5200  -2.8350   H         9 RES9   0.0000
   299 H128    14.7582  -2.9207  -2.0670   H         9 RES9   0.0000
   300 Cl15    18.6179  -3.8022   5.1176   Cl       10 RES10   0.0000
   301 Cl16    18.5652  -3.8020   8.0153   Cl       10 RES10   0.0000
   302 C104    17.6818  -4.1564   6.5429   C.3      10 RES10   0.0000
   303 H129    17.4301  -5.1128   6.5388   H        10 RES10   0.0000
   304 H130    16.8493  -3.6220   6.5264   H        10 RES10   0.0000
   305 Cl17    14.4910  15.3804   6.3864   Cl       11 RES11   0.0000
   306 Cl18    13.4075  16.6933   8.6964   Cl       11 RES11   0.0000
   307 C105    13.2077  16.3359   7.0946   C.3      11 RES11   0.0000
   308 H131    13.1307  17.1840   6.5902   H        11 RES11   0.0000
   309 H132    12.3538  15.8455   6.9855   H        11 RES11   0.0000
   310 C106     9.8867  11.7229   2.7259   C.3      12 RES12   0.0000
   311 H133    10.0703  11.7071   3.6997   H        12 RES12   0.0000
   312 H134     9.0860  12.2809   2.5632   H        12 RES12   0.0000
   313 Cl19    11.2460  12.3480   1.8653   Cl       12 RES12   0.0000
   314 Cl20     9.6473  10.1890   2.1597   Cl       12 RES12   0.0000
   315 O37      8.7725   9.6487   4.4511   O.3      13 RES13   0.0000
@<TRIPOS>BOND
     1     1     6    1
     2     2     7    1
     3     3    10    1
     4     4     8    1
     5     5     9    1
     6     6    39    2
     7     7    60    2
     8     8    96    2
     9     9   117    2
    10    10     1    1
    11    11    10    1
    12    12     2    1
    13    13     1    1
    14    14     1    1
    15    15     1    1
    16    16     2    1
    17    17     1    1
    18    18     3    1
    19    19     2    1
    20    20     5    1
    21    21     4    1
    22    22    81    2
    23    23     4    1
    24    24     3    1
    25    25     5    1
    26    26     4    1
    27    27     3    1
    28    28     5    1
    29    29    13    1
    30    30    29   ar
    31    31    30    1
    32    32    30   ar
    33    33    32    1
    34    34    32   ar
    35    35    34    1
    36    36    34   ar
    37    37    36    1
    38    38    29   ar
    39    39    38    1
    40    40    39    1
    41    41    40    1
    42    42    40    1
    43    43    40    1
    44    44     6    1
    45    45    44    1
    46    46    44    1
    47    47    14    1
    48    48    47    1
    49    49    47    1
    50    50    15    1
    51    51    50   ar
    52    52    51    1
    53    53    51   ar
    54    54    53    1
    55    55    53   ar
    56    56    55    1
    57    57    55   ar
    58    58    57    1
    59    59    50   ar
    60    60    59    1
    61    61    60    1
    62    62    61    1
    63    63    61    1
    64    64    61    1
    65    65     7    1
    66    66    65    1
    67    67    65    1
    68    68    16    1
    69    69    68    1
    70    70    68    1
    71    71    17   un
    72    72    71    1
    73    73    72    1
    74    74    72    1
    75    75    72    1
    76    76    19   un
    77    77    76    1
    78    78    77    1
    79    79    77    1
    80    80    77    1
    81    81    21    1
    82    82    81    1
    83    83    82    1
    84    84    82    1
    85    85    82    1
    86    86    23    1
    87    87    86   ar
    88    88    87    1
    89    89    87   ar
    90    90    89    1
    91    91    89   ar
    92    92    91    1
    93    93    91   ar
    94    94    93    1
    95    95    86   ar
    96    96    95    1
    97    97    96    1
    98    98    97    1
    99    99    97    1
   100   100    97    1
   101   101     8    1
   102   102   101    1
   103   103   101    1
   104   104    24    1
   105   105   104    1
   106   106   104    1
   107   107    25    1
   108   108   107   ar
   109   109   108    1
   110   110   108   ar
   111   111   110    1
   112   112   110   ar
   113   113   112    1
   114   114   112   ar
   115   115   114    1
   116   116   107   ar
   117   117   116    1
   118   118   117    1
   119   119   118    1
   120   120   118    1
   121   121   118    1
   122   122     9    1
   123   123   122    1
   124   124   122    1
   125   125    26    1
   126   126   125    1
   127   127   125    1
   128   128    27   un
   129   129   128    1
   130   130   129    1
   131   131   129    1
   132   132   129    1
   133     2    10    1
   134     2    15    1
   135     3    14    1
   136     3    12    1
   137     4    16    1
   138     4    24    1
   139     5    26    1
   140     5    12    1
   141    18    71   un
   142    20    76   un
   143    28   128   un
   144    36    38   ar
   145    44    47    1
   146    57    59   ar
   147    65    68    1
   148    93    95   ar
   149   101   104    1
   150   114   116   ar
   151   122   125    1
   152   133   138    1
   153   134   139    1
   154   135   142    1
   155   136   140    1
   156   137   141    1
   157   138   171    2
   158   139   192    2
   159   140   233    2
   160   141   254    2
   161   142   133    1
   162   143   142    1
   163   144   134    1
   164   145   133    1
   165   146   133    1
   166   147   133    1
   167   148   134    1
   168   149   133    1
   169   150   135    1
   170   151   134    1
   171   152   137    1
   172   153   135    1
   173   154   137    1
   174   155   136    1
   175   156   218    2
   176   157   136    1
   177   158   135    1
   178   159   137    1
   179   160   136    1
   180   161   145    1
   181   162   161   ar
   182   163   162    1
   183   164   162   ar
   184   165   164    1
   185   166   164   ar
   186   167   166    1
   187   168   166   ar
   188   169   168    1
   189   170   161   ar
   190   171   170    1
   191   172   171    1
   192   173   172    1
   193   174   172    1
   194   175   172    1
   195   176   138    1
   196   177   176    1
   197   178   176    1
   198   179   146    1
   199   180   179    1
   200   181   179    1
   201   182   147    1
   202   183   182   ar
   203   184   183    1
   204   185   183   ar
   205   186   185    1
   206   187   185   ar
   207   188   187    1
   208   189   187   ar
   209   190   189    1
   210   191   182   ar
   211   192   191    1
   212   193   192    1
   213   194   193    1
   214   195   193    1
   215   196   193    1
   216   197   139    1
   217   198   197    1
   218   199   197    1
   219   200   148    1
   220   201   200    1
   221   202   200    1
   222   203   149   un
   223   204   203    1
   224   205   204    1
   225   206   204    1
   226   207   204    1
   227   208   151   un
   228   209   208    1
   229   210   209    1
   230   211   209    1
   231   212   209    1
   232   213   153   un
   233   214   213    1
   234   215   214    1
   235   216   214    1
   236   217   214    1
   237   218   155    1
   238   219   218    1
   239   220   219    1
   240   221   219    1
   241   222   219    1
   242   223   157    1
   243   224   223   ar
   244   225   224    1
   245   226   224   ar
   246   227   226    1
   247   228   226   ar
   248   229   228    1
   249   230   228   ar
   250   231   230    1
   251   232   223   ar
   252   233   232    1
   253   234   233    1
   254   235   234    1
   255   236   234    1
   256   237   234    1
   257   238   140    1
   258   239   238    1
   259   240   238    1
   260   241   158    1
   261   242   241    1
   262   243   241    1
   263   244   159    1
   264   245   244   ar
   265   246   245    1
   266   247   245   ar
   267   248   247    1
   268   249   247   ar
   269   250   249    1
   270   251   249   ar
   271   252   251    1
   272   253   244   ar
   273   254   253    1
   274   255   254    1
   275   256   255    1
   276   257   255    1
   277   258   255    1
   278   259   141    1
   279   260   259    1
   280   261   259    1
   281   262   160    1
   282   263   262    1
   283   264   262    1
   284   134   142    1
   285   134   147    1
   286   135   146    1
   287   135   144    1
   288   136   148    1
   289   136   158    1
   290   137   160    1
   291   137   144    1
   292   150   203   un
   293   152   208   un
   294   154   213   un
   295   168   170   ar
   296   176   179    1
   297   189   191   ar
   298   197   200    1
   299   230   232   ar
   300   238   241    1
   301   251   253   ar
   302   259   262    1
   303   265   267    1
   304   266   267    1
   305   267   268    1
   306   269   267    1
   307   270   272    1
   308   271   272    1
   309   272   273    1
   310   274   272    1
   311   275   277    1
   312   276   277    1
   313   277   278    1
   314   279   277    1
   315   280   282    1
   316   281   282    1
   317   282   283    1
   318   284   282    1
   319   285   287    1
   320   286   287    1
   321   287   288    1
   322   289   287    1
   323   290   292    1
   324   291   292    1
   325   292   293    1
   326   294   292    1
   327   295   297    1
   328   296   297    1
   329   297   298    1
   330   299   297    1
   331   300   302    1
   332   301   302    1
   333   302   303    1
   334   304   302    1
   335   305   307    1
   336   306   307    1
   337   307   308    1
   338   309   307    1
   339   310   311    1
   340   312   310    1
   341   313   310    1
   342   314   310    1
@<TRIPOS>SUBSTRUCTURE
     1 RES1        1 GROUP             0 ****  ****    0  
     2 RES2      133 GROUP             0 ****  ****    0  
     3 RES3      265 GROUP             0 ****  ****    0  
     4 RES4      270 GROUP             0 ****  ****    0  
     5 RES5      275 GROUP             0 ****  ****    0  
     6 RES6      280 GROUP             0 ****  ****    0  
     7 RES7      285 GROUP             0 ****  ****    0  
     8 RES8      290 GROUP             0 ****  ****    0  
     9 RES9      295 GROUP             0 ****  ****    0  
    10 RES10     300 GROUP             0 ****  ****    0  
    11 RES11     305 GROUP             0 ****  ****    0  
    12 RES12     310 GROUP             0 ****  ****    0  
    13 RES13     315 GROUP             0 ****  ****    0  
@<TRIPOS>CRYSIN
   14.6913   23.5238   23.4482   62.3100   88.3190   72.6270     2     1
