@<TRIPOS>MOLECULE
BEDLIG
   139   146     1     0     0
SMALL
NO_CHARGES
****
Generated from the CSD

@<TRIPOS>ATOM
     1 Fe1     -0.9157   0.0000   6.7996   Fe        1 RES1   0.0000
     2 O1      -1.6329   1.1314   5.3101   O.co2     1 RES1   0.0000
     3 C1       0.3989   2.4161   5.2576   C.3       1 RES1   0.0000
     4 H1       0.7455   3.1745   4.7230   H         1 RES1   0.0000
     5 O2      -1.6053   3.0251   4.0886   O.co2     1 RES1   0.0000
     6 C2      -1.0852   2.1891   4.8311   C.2       1 RES1   0.0000
     7 C3       0.3001   2.5800   8.8439   C.2       1 RES1   0.0000
     8 C4       0.7471   3.8955   8.5882   C.2       1 RES1   0.0000
     9 H2       0.9482   4.5493   9.2325   H         1 RES1   0.0000
    10 C5       0.8357   4.0450   7.2149   C.2       1 RES1   0.0000
    11 C6       2.1419  -0.7115   5.3336   C.2       1 RES1   0.0000
    12 C7       2.7024  -0.2047   4.1499   C.2       1 RES1   0.0000
    13 H3       3.3609  -0.6247   3.6269   H         1 RES1   0.0000
    14 C8       2.1139   1.0241   3.8886   C.2       1 RES1   0.0000
    15 N1       0.0983   1.9154   7.6819   N.2       1 RES1   0.0000
    16 C9       0.1447   1.9601  10.2423   C.3       1 RES1   0.0000
    17 N2       0.4757   2.8113   6.6806   N.pl3     1 RES1   0.0000
    18 C10     -1.1948   1.2297  10.4040   C.3       1 RES1   0.0000
    19 H4      -1.2530   0.8554  11.2969   H         1 RES1   0.0000
    20 H5      -1.2553   0.5176   9.7493   H         1 RES1   0.0000
    21 H6      -1.9226   1.8561  10.2688   H         1 RES1   0.0000
    22 C11      0.2144   3.0915  11.3010   C.3       1 RES1   0.0000
    23 H7       1.0560   3.5650  11.2139   H         1 RES1   0.0000
    24 H8       0.1505   2.7078  12.1890   H         1 RES1   0.0000
    25 H9      -0.5203   3.7103  11.1622   H         1 RES1   0.0000
    26 C12      1.3083   0.9700  10.4845   C.3       1 RES1   0.0000
    27 H10      2.1541   1.4329  10.3817   H         1 RES1   0.0000
    28 H11      1.2559   0.2470   9.8404   H         1 RES1   0.0000
    29 H12      1.2440   0.6102  11.3826   H         1 RES1   0.0000
    30 N3       1.2133   0.1400   5.8069   N.2       1 RES1   0.0000
    31 C13      2.5406  -2.0171   6.0454   C.3       1 RES1   0.0000
    32 N4       1.2413   1.2371   4.9460   N.pl3     1 RES1   0.0000
    33 C14      1.3998  -3.0520   5.9824   C.3       1 RES1   0.0000
    34 H13      1.6746  -3.8647   6.4365   H         1 RES1   0.0000
    35 H14      1.1967  -3.2526   5.0548   H         1 RES1   0.0000
    36 H15      0.6109  -2.6896   6.4161   H         1 RES1   0.0000
    37 C15      2.9044  -1.7135   7.5186   C.3       1 RES1   0.0000
    38 H16      3.1562  -2.5371   7.9664   H         1 RES1   0.0000
    39 H17      2.1384  -1.3221   7.9664   H         1 RES1   0.0000
    40 H18      3.6481  -1.0915   7.5462   H         1 RES1   0.0000
    41 C16      3.7821  -2.6097   5.3486   C.3       1 RES1   0.0000
    42 H19      4.0394  -3.4324   5.7919   H         1 RES1   0.0000
    43 H20      4.5141  -1.9741   5.3962   H         1 RES1   0.0000
    44 H21      3.5742  -2.7932   4.4198   H         1 RES1   0.0000
    45 C17      1.1558   5.3346   6.4508   C.3       1 RES1   0.0000
    46 C18      1.3970   6.4633   7.4868   C.3       1 RES1   0.0000
    47 H22      1.6006   7.2898   7.0226   H         1 RES1   0.0000
    48 H23      2.1407   6.2220   8.0603   H         1 RES1   0.0000
    49 H24      0.5990   6.5834   8.0249   H         1 RES1   0.0000
    50 C19     -0.0436   5.7554   5.5784   C.3       1 RES1   0.0000
    51 H25      0.1736   6.5725   5.1024   H         1 RES1   0.0000
    52 H26     -0.8175   5.9078   6.1441   H         1 RES1   0.0000
    53 H27     -0.2420   5.0524   4.9406   H         1 RES1   0.0000
    54 C20      2.4239   5.2008   5.5961   C.3       1 RES1   0.0000
    55 H28      2.5899   6.0349   5.1310   H         1 RES1   0.0000
    56 H29      2.3033   4.4876   4.9488   H         1 RES1   0.0000
    57 H30      3.1787   4.9943   6.1686   H         1 RES1   0.0000
    58 C21      2.3630   1.8773   2.6310   C.3       1 RES1   0.0000
    59 C22      3.5783   2.7890   2.8320   C.3       1 RES1   0.0000
    60 H31      4.3363   2.2574   3.1224   H         1 RES1   0.0000
    61 H32      3.3733   3.4560   3.5059   H         1 RES1   0.0000
    62 H33      3.7934   3.2290   1.9950   H         1 RES1   0.0000
    63 C23      1.1478   2.6902   2.1708   C.3       1 RES1   0.0000
    64 H34      0.3899   2.0976   2.0494   H         1 RES1   0.0000
    65 H35      1.3523   3.1310   1.3314   H         1 RES1   0.0000
    66 H36      0.9323   3.3580   2.8409   H         1 RES1   0.0000
    67 C24      2.7113   0.9055   1.4838   C.3       1 RES1   0.0000
    68 H37      3.4793   0.3687   1.7366   H         1 RES1   0.0000
    69 H38      2.9206   1.4111   0.6827   H         1 RES1   0.0000
    70 H39      1.9544   0.3251   1.3110   H         1 RES1   0.0000
    71 O1B     -0.1985  -1.1314   8.2891   O.co2     1 RES1   0.0000
    72 C2B     -0.7463  -2.1891   8.7681   C.2       1 RES1   0.0000
    73 C1B     -2.2303  -2.4161   8.3416   C.3       1 RES1   0.0000
    74 H1B     -2.5769  -3.1745   8.8762   H         1 RES1   0.0000
    75 N2B     -2.3071  -2.8113   6.9186   N.pl3     1 RES1   0.0000
    76 C5B     -2.6671  -4.0450   6.3843   C.2       1 RES1   0.0000
    77 C4B     -2.5786  -3.8955   5.0110   C.2       1 RES1   0.0000
    78 C3B     -2.1316  -2.5800   4.7554   C.2       1 RES1   0.0000
    79 N1B     -1.9297  -1.9154   5.9173   N.2       1 RES1   0.0000
    80 N3B     -3.0448  -0.1400   7.7924   N.2       1 RES1   0.0000
    81 C6B     -3.9733   0.7115   8.2656   C.2       1 RES1   0.0000
    82 C7B     -4.5338   0.2047   9.4493   C.2       1 RES1   0.0000
    83 H3B     -5.1924   0.6247   9.9723   H         1 RES1   0.0000
    84 C8B     -3.9454  -1.0241   9.7107   C.2       1 RES1   0.0000
    85 N4B     -3.0727  -1.2371   8.6532   N.pl3     1 RES1   0.0000
    86 C21B    -4.1944  -1.8773  10.9682   C.3       1 RES1   0.0000
    87 C22B    -5.4097  -2.7890  10.7672   C.3       1 RES1   0.0000
    88 H31B    -6.1677  -2.2574  10.4768   H         1 RES1   0.0000
    89 H32B    -5.2047  -3.4560  10.0934   H         1 RES1   0.0000
    90 H33B    -5.6248  -3.2290  11.6042   H         1 RES1   0.0000
    91 C23B    -2.9792  -2.6902  11.4284   C.3       1 RES1   0.0000
    92 H34B    -2.2214  -2.0976  11.5498   H         1 RES1   0.0000
    93 H35B    -3.1837  -3.1310  12.2679   H         1 RES1   0.0000
    94 H36B    -2.7638  -3.3580  10.7584   H         1 RES1   0.0000
    95 C24B    -4.5427  -0.9055  12.1154   C.3       1 RES1   0.0000
    96 H37B    -5.3108  -0.3687  11.8626   H         1 RES1   0.0000
    97 H38B    -4.7520  -1.4111  12.9166   H         1 RES1   0.0000
    98 H39B    -3.7858  -0.3251  12.2883   H         1 RES1   0.0000
    99 C13B    -4.3720   2.0171   7.5538   C.3       1 RES1   0.0000
   100 C14B    -3.2312   3.0520   7.6168   C.3       1 RES1   0.0000
   101 H13B    -3.5060   3.8647   7.1627   H         1 RES1   0.0000
   102 H14B    -3.0282   3.2526   8.5444   H         1 RES1   0.0000
   103 H15B    -2.4423   2.6896   7.1831   H         1 RES1   0.0000
   104 C15B    -4.7359   1.7135   6.0806   C.3       1 RES1   0.0000
   105 H16B    -4.9876   2.5371   5.6328   H         1 RES1   0.0000
   106 H17B    -3.9699   1.3221   5.6328   H         1 RES1   0.0000
   107 H18B    -5.4795   1.0915   6.0530   H         1 RES1   0.0000
   108 C16B    -5.6135   2.6097   8.2507   C.3       1 RES1   0.0000
   109 H19B    -5.8708   3.4324   7.8073   H         1 RES1   0.0000
   110 H20B    -6.3456   1.9741   8.2031   H         1 RES1   0.0000
   111 H21B    -5.4056   2.7932   9.1795   H         1 RES1   0.0000
   112 C9B     -1.9761  -1.9601   3.3570   C.3       1 RES1   0.0000
   113 C10B    -0.6366  -1.2297   3.1953   C.3       1 RES1   0.0000
   114 H4B     -0.5784  -0.8554   2.3024   H         1 RES1   0.0000
   115 H5B     -0.5761  -0.5176   3.8499   H         1 RES1   0.0000
   116 H6B      0.0912  -1.8561   3.3305   H         1 RES1   0.0000
   117 C11B    -2.0459  -3.0915   2.2983   C.3       1 RES1   0.0000
   118 H7B     -2.8875  -3.5650   2.3853   H         1 RES1   0.0000
   119 H8B     -1.9819  -2.7078   1.4102   H         1 RES1   0.0000
   120 H9B     -1.3112  -3.7103   2.4370   H         1 RES1   0.0000
   121 C12B    -3.1398  -0.9700   3.1148   C.3       1 RES1   0.0000
   122 H10B    -3.9855  -1.4329   3.2176   H         1 RES1   0.0000
   123 H11B    -3.0874  -0.2470   3.7588   H         1 RES1   0.0000
   124 H12B    -3.0755  -0.6102   2.2167   H         1 RES1   0.0000
   125 H2B     -2.7796  -4.5493   4.3667   H         1 RES1   0.0000
   126 C17B    -2.9873  -5.3346   7.1484   C.3       1 RES1   0.0000
   127 C18B    -3.2284  -6.4633   6.1124   C.3       1 RES1   0.0000
   128 H22B    -3.4321  -7.2898   6.5766   H         1 RES1   0.0000
   129 H23B    -3.9721  -6.2220   5.5390   H         1 RES1   0.0000
   130 H24B    -2.4304  -6.5834   5.5743   H         1 RES1   0.0000
   131 C19B    -1.7878  -5.7554   8.0208   C.3       1 RES1   0.0000
   132 H25B    -2.0050  -6.5725   8.4968   H         1 RES1   0.0000
   133 H26B    -1.0139  -5.9078   7.4551   H         1 RES1   0.0000
   134 H27B    -1.5895  -5.0524   8.6586   H         1 RES1   0.0000
   135 C20B    -4.2553  -5.2008   8.0031   C.3       1 RES1   0.0000
   136 H28B    -4.4213  -6.0349   8.4682   H         1 RES1   0.0000
   137 H29B    -4.1348  -4.4876   8.6505   H         1 RES1   0.0000
   138 H30B    -5.0101  -4.9943   7.4306   H         1 RES1   0.0000
   139 O2B     -0.2261  -3.0251   9.5106   O.co2     1 RES1   0.0000
@<TRIPOS>BOND
     1     1     2    1
     2     2     6    1
     3     3     4    1
     4     5     6    2
     5     6     3    1
     6     7     8    1
     7     8     9    1
     8    10     8    2
     9    11    12    1
    10    12    13    1
    11    14    12    2
    12    15     1    1
    13    16     7    1
    14    17     3    1
    15    18    16    1
    16    19    18    1
    17    20    18    1
    18    21    18    1
    19    22    16    1
    20    23    22    1
    21    24    22    1
    22    25    22    1
    23    26    16    1
    24    27    26    1
    25    28    26    1
    26    29    26    1
    27    30     1    1
    28    31    11    1
    29    32     3    1
    30    33    31    1
    31    34    33    1
    32    35    33    1
    33    36    33    1
    34    37    31    1
    35    38    37    1
    36    39    37    1
    37    40    37    1
    38    41    31    1
    39    42    41    1
    40    43    41    1
    41    44    41    1
    42    45    10    1
    43    46    45    1
    44    47    46    1
    45    48    46    1
    46    49    46    1
    47    50    45    1
    48    51    50    1
    49    52    50    1
    50    53    50    1
    51    54    45    1
    52    55    54    1
    53    56    54    1
    54    57    54    1
    55    58    14    1
    56    59    58    1
    57    60    59    1
    58    61    59    1
    59    62    59    1
    60    63    58    1
    61    64    63    1
    62    65    63    1
    63    66    63    1
    64    67    58    1
    65    68    67    1
    66    69    67    1
    67    70    67    1
    68    71     1    1
    69    72    71    1
    70    73    72    1
    71    74    73    1
    72    75    73    1
    73    76    75    1
    74    77    76    2
    75    78    77    1
    76    79     1    1
    77    80     1    1
    78    81    80    2
    79    82    81    1
    80    83    82    1
    81    84    82    2
    82    85    73    1
    83    86    84    1
    84    87    86    1
    85    88    87    1
    86    89    87    1
    87    90    87    1
    88    91    86    1
    89    92    91    1
    90    93    91    1
    91    94    91    1
    92    95    86    1
    93    96    95    1
    94    97    95    1
    95    98    95    1
    96    99    81    1
    97   100    99    1
    98   101   100    1
    99   102   100    1
   100   103   100    1
   101   104    99    1
   102   105   104    1
   103   106   104    1
   104   107   104    1
   105   108    99    1
   106   109   108    1
   107   110   108    1
   108   111   108    1
   109   112    78    1
   110   113   112    1
   111   114   113    1
   112   115   113    1
   113   116   113    1
   114   117   112    1
   115   118   117    1
   116   119   117    1
   117   120   117    1
   118   121   112    1
   119   122   121    1
   120   123   121    1
   121   124   121    1
   122   125    77    1
   123   126    76    1
   124   127   126    1
   125   128   127    1
   126   129   127    1
   127   130   127    1
   128   131   126    1
   129   132   131    1
   130   133   131    1
   131   134   131    1
   132   135   126    1
   133   136   135    1
   134   137   135    1
   135   138   135    1
   136   139    72    2
   137     7    15    2
   138    10    17    1
   139    11    30    2
   140    14    32    1
   141    15    17    1
   142    30    32    1
   143    75    79    1
   144    78    79    2
   145    80    85    1
   146    84    85    1
@<TRIPOS>SUBSTRUCTURE
     1 RES1        1 GROUP             0 ****  ****    0  
@<TRIPOS>CRYSIN
    9.9390   18.1610   13.7220   90.0000   97.6700   90.0000   231     1
