@<TRIPOS>MOLECULE
BEJFUU
   187   201     4     0     0
SMALL
USER_CHARGES
****
Generated from the CSD

@<TRIPOS>ATOM
     1 Fe1      9.3860   8.4252   5.6573   Fe        1 RES1   2.0000
     2 N1       7.8156   6.5951   7.6777   N.pl3     1 RES1   0.0000
     3 N2       9.2832   7.9625   8.4340   N.pl3     1 RES1   0.0000
     4 N3      10.2847   9.3983   7.0442   N.ar      1 RES1   0.0000
     5 N4      11.1061  10.6300   5.3692   N.pl3     1 RES1   0.0000
     6 N5      10.6807  10.0979   3.3344   N.pl3     1 RES1   0.0000
     7 C1       8.7081   7.5177   7.2442   C.3       1 RES1   0.0000
     8 C2       7.8107   6.4948   9.0651   C.2       1 RES1   0.0000
     9 H1       7.2581   5.9191   9.5804   H         1 RES1   0.0000
    10 C3       8.7205   7.3513   9.5448   C.2       1 RES1   0.0000
    11 H2       8.9366   7.5071  10.4576   H         1 RES1   0.0000
    12 C4       6.8639   5.8896   6.7940   C.3       1 RES1   0.0000
    13 H3       7.1068   6.1055   5.8498   H         1 RES1   0.0000
    14 C5       5.4549   6.4087   7.0442   C.3       1 RES1   0.0000
    15 H4       5.1651   6.1468   7.9413   H         1 RES1   0.0000
    16 H5       4.8439   6.0276   6.3808   H         1 RES1   0.0000
    17 H6       5.4492   7.3855   6.9718   H         1 RES1   0.0000
    18 C6       6.9749   4.3877   6.9722   C.3       1 RES1   0.0000
    19 H7       7.8907   4.1010   6.7732   H         1 RES1   0.0000
    20 H8       6.3528   3.9394   6.3623   H         1 RES1   0.0000
    21 H9       6.7515   4.1505   7.8952   H         1 RES1   0.0000
    22 C7      10.1943   9.0125   8.3361   C.ar      1 RES1   0.0000
    23 C8      10.9380   9.5717   9.3389   C.ar      1 RES1   0.0000
    24 H10     10.8631   9.2709  10.2360   H         1 RES1   0.0000
    25 C9      11.8062  10.5981   8.9903   C.ar      1 RES1   0.0000
    26 H11     12.3350  11.0099   9.6635   H         1 RES1   0.0000
    27 C10     11.9186  11.0323   7.6832   C.ar      1 RES1   0.0000
    28 H12     12.5160  11.7308   7.4427   H         1 RES1   0.0000
    29 C11     11.1233  10.4058   6.7395   C.ar      1 RES1   0.0000
    30 C12     10.3720   9.7334   4.6060   C.3       1 RES1   0.0000
    31 C13     11.8372  11.4995   4.5695   C.2       1 RES1   0.0000
    32 H13     12.4158  12.1932   4.8664   H         1 RES1   0.0000
    33 C14     11.5681  11.1692   3.3035   C.2       1 RES1   0.0000
    34 H14     11.9185  11.5868   2.5255   H         1 RES1   0.0000
    35 C15     10.2545   9.3310   2.1492   C.3       1 RES1   0.0000
    36 H15      9.4605   8.7789   2.4055   H         1 RES1   0.0000
    37 C16      9.8304  10.2749   1.0250   C.3       1 RES1   0.0000
    38 H16      9.1268  10.8754   1.3482   H         1 RES1   0.0000
    39 H17      9.4883   9.7510   0.2678   H         1 RES1   0.0000
    40 H18     10.6027  10.8034   0.7341   H         1 RES1   0.0000
    41 C17     11.3815   8.3778   1.7314   C.3       1 RES1   0.0000
    42 H19     12.1530   8.8981   1.4267   H         1 RES1   0.0000
    43 H20     11.0680   7.7997   1.0065   H         1 RES1   0.0000
    44 H21     11.6427   7.8256   2.4978   H         1 RES1   0.0000
    45 N6      12.0461   6.7119   5.5382   N.pl3     1 RES1   0.0000
    46 N7      10.3638   6.1184   4.3622   N.pl3     1 RES1   0.0000
    47 N8       8.5343   7.3985   4.2865   N.ar      1 RES1   0.0000
    48 N9       6.8787   8.8933   4.4785   N.pl3     1 RES1   0.0000
    49 N10      6.9956  10.4613   5.9237   N.pl3     1 RES1   0.0000
    50 C18     10.7537   7.0670   5.3013   C.3       1 RES1   0.0000
    51 C19     12.4467   5.6324   4.7431   C.2       1 RES1   0.0000
    52 H22     13.3109   5.2395   4.7233   H         1 RES1   0.0000
    53 C20     11.3906   5.2536   4.0122   C.2       1 RES1   0.0000
    54 H23     11.3533   4.5422   3.3843   H         1 RES1   0.0000
    55 C21     12.9804   7.4906   6.3785   C.3       1 RES1   0.0000
    56 H24     12.4407   8.0675   6.9902   H         1 RES1   0.0000
    57 C22     13.8217   8.3966   5.4966   C.3       1 RES1   0.0000
    58 H25     14.4173   7.8516   4.9403   H         1 RES1   0.0000
    59 H26     14.3568   8.9948   6.0576   H         1 RES1   0.0000
    60 H27     13.2346   8.9287   4.9218   H         1 RES1   0.0000
    61 C23     13.8511   6.5738   7.2340   C.3       1 RES1   0.0000
    62 H28     13.2772   5.9993   7.7844   H         1 RES1   0.0000
    63 H29     14.4218   7.1166   7.8167   H         1 RES1   0.0000
    64 H30     14.4100   6.0182   6.6532   H         1 RES1   0.0000
    65 C24      9.1011   6.2836   3.7920   C.ar      1 RES1   0.0000
    66 C25      8.5101   5.4896   2.8427   C.ar      1 RES1   0.0000
    67 H31      8.9299   4.6956   2.5301   H         1 RES1   0.0000
    68 C26      7.2782   5.8907   2.3556   C.ar      1 RES1   0.0000
    69 H32      6.8459   5.3716   1.6898   H         1 RES1   0.0000
    70 C27      6.6623   7.0493   2.8335   C.ar      1 RES1   0.0000
    71 H33      5.8230   7.3419   2.4978   H         1 RES1   0.0000
    72 C28      7.3249   7.7454   3.8095   C.ar      1 RES1   0.0000
    73 C29      7.7176   9.4148   5.4463   C.3       1 RES1   0.0000
    74 C30      5.6909   9.6000   4.3719   C.2       1 RES1   0.0000
    75 H34      4.9744   9.4266   3.7721   H         1 RES1   0.0000
    76 C31      5.7619  10.5734   5.2856   C.2       1 RES1   0.0000
    77 H35      5.0925  11.2234   5.4666   H         1 RES1   0.0000
    78 C32      7.4290  11.3084   7.0526   C.3       1 RES1   0.0000
    79 H36      8.4271  11.2942   7.0872   H         1 RES1   0.0000
    80 C33      6.9016  10.7232   8.3592   C.3       1 RES1   0.0000
    81 H37      5.9224  10.7551   8.3615   H         1 RES1   0.0000
    82 H38      7.2451  11.2470   9.1141   H         1 RES1   0.0000
    83 H39      7.1983   9.7935   8.4446   H         1 RES1   0.0000
    84 C34      6.9817  12.7466   6.8471   C.3       1 RES1   0.0000
    85 H40      7.3278  13.0769   5.9929   H         1 RES1   0.0000
    86 H41      7.3260  13.3022   7.5766   H         1 RES1   0.0000
    87 H42      6.0014  12.7855   6.8425   H         1 RES1   0.0000
    88 B1       2.8922   8.9582   0.5208   B         2 RES2  -1.0000
    89 C35      1.3950   8.8520  -0.1514   C.ar      2 RES2   0.0000
    90 C36      0.6883  10.0413  -0.4723   C.ar      2 RES2   0.0000
    91 H43      1.0347  10.8766  -0.1801   H         2 RES2   0.0000
    92 C37     -0.4982  10.0165  -1.2004   C.ar      2 RES2   0.0000
    93 H44     -0.9456  10.8294  -1.4036   H         2 RES2   0.0000
    94 C38     -1.0295   8.8119  -1.6307   C.ar      2 RES2   0.0000
    95 H45     -1.8365   8.7966  -2.1331   H         2 RES2   0.0000
    96 C39     -0.3773   7.6333  -1.3251   C.ar      2 RES2   0.0000
    97 H46     -0.7400   6.8039  -1.6114   H         2 RES2   0.0000
    98 C40      0.8118   7.6569  -0.5970   C.ar      2 RES2   0.0000
    99 H47      1.2419   6.8346  -0.3971   H         2 RES2   0.0000
   100 C41      3.2621   7.5342   1.2900   C.ar      2 RES2   0.0000
   101 C42      3.7711   6.4311   0.5882   C.ar      2 RES2   0.0000
   102 H48      3.9170   6.5267  -0.3463   H         2 RES2   0.0000
   103 C43      4.0745   5.2112   1.1695   C.ar      2 RES2   0.0000
   104 H49      4.4369   4.5080   0.6418   H         2 RES2   0.0000
   105 C44      3.8452   5.0224   2.5218   C.ar      2 RES2   0.0000
   106 H50      4.0374   4.1883   2.9318   H         2 RES2   0.0000
   107 C45      3.3294   6.0795   3.2670   C.ar      2 RES2   0.0000
   108 H51      3.1702   5.9686   4.1969   H         2 RES2   0.0000
   109 C46      3.0471   7.2959   2.6557   C.ar      2 RES2   0.0000
   110 H52      2.6927   7.9990   3.1858   H         2 RES2   0.0000
   111 C47      3.9700   9.2260  -0.6958   C.ar      2 RES2   0.0000
   112 C48      3.5956   9.6201  -1.9867   C.ar      2 RES2   0.0000
   113 H53      2.6701   9.6909  -2.1885   H         2 RES2   0.0000
   114 C49      4.5189   9.9162  -2.9946   C.ar      2 RES2   0.0000
   115 H54      4.2166  10.1663  -3.8599   H         2 RES2   0.0000
   116 C50      5.8707   9.8431  -2.7259   C.ar      2 RES2   0.0000
   117 H55      6.5077  10.0625  -3.3982   H         2 RES2   0.0000
   118 C51      6.2875   9.4419  -1.4585   C.ar      2 RES2   0.0000
   119 H56      7.2146   9.3700  -1.2651   H         2 RES2   0.0000
   120 C52      5.3544   9.1493  -0.4797   C.ar      2 RES2   0.0000
   121 H57      5.6650   8.8851   0.3786   H         2 RES2   0.0000
   122 C53      2.9187  10.1687   1.6067   C.ar      2 RES2   0.0000
   123 C54      1.9472  10.2867   2.6119   C.ar      2 RES2   0.0000
   124 H58      1.2132   9.6838   2.5902   H         2 RES2   0.0000
   125 C55      1.9867  11.2164   3.6272   C.ar      2 RES2   0.0000
   126 H59      1.3213  11.2105   4.3031   H         2 RES2   0.0000
   127 C56      3.0023  12.1637   3.6590   C.ar      2 RES2   0.0000
   128 H60      3.0388  12.8114   4.3539   H         2 RES2   0.0000
   129 C57      3.9562  12.1425   2.6594   C.ar      2 RES2   0.0000
   130 H61      4.6429  12.7997   2.6502   H         2 RES2   0.0000
   131 C58      3.9174  11.1633   1.6644   C.ar      2 RES2   0.0000
   132 H62      4.5932  11.1668   0.9973   H         2 RES2   0.0000
   133 B2       2.5159   1.6836   9.3657   B         3 RES3  -1.0000
   134 C59      1.1962   1.8523  10.3381   C.ar      3 RES3   0.0000
   135 C60      0.7752   0.8955  11.2665   C.ar      3 RES3   0.0000
   136 H63      1.2648   0.0826  11.3256   H         3 RES3   0.0000
   137 C61     -0.3188   1.0630  12.1133   C.ar      3 RES3   0.0000
   138 H64     -0.5563   0.3752  12.7246   H         3 RES3   0.0000
   139 C62     -1.0560   2.2286  12.0667   C.ar      3 RES3   0.0000
   140 H65     -1.7961   2.3620  12.6461   H         3 RES3   0.0000
   141 C63     -0.6919   3.1914  11.1562   C.ar      3 RES3   0.0000
   142 H66     -1.1964   3.9948  11.0994   H         3 RES3   0.0000
   143 C64      0.3963   3.0144  10.3191   C.ar      3 RES3   0.0000
   144 H67      0.6151   3.7069   9.7051   H         3 RES3   0.0000
   145 C65      2.8923   0.0967   9.1492   C.ar      3 RES3   0.0000
   146 C66      3.3119  -0.7338  10.2051   C.ar      3 RES3   0.0000
   147 H68      3.4289  -0.3480  11.0671   H         3 RES3   0.0000
   148 C67      3.5627  -2.0906  10.0509   C.ar      3 RES3   0.0000
   149 H69      3.8149  -2.6121  10.8039   H         3 RES3   0.0000
   150 C68      3.4499  -2.6864   8.8103   C.ar      3 RES3   0.0000
   151 H70      3.6119  -3.6161   8.7032   H         3 RES3   0.0000
   152 C69      3.0968  -1.9007   7.7336   C.ar      3 RES3   0.0000
   153 H71      3.0498  -2.2865   6.8656   H         3 RES3   0.0000
   154 C70      2.8106  -0.5557   7.9021   C.ar      3 RES3   0.0000
   155 H72      2.5465  -0.0496   7.1426   H         3 RES3   0.0000
   156 C71      2.2328   2.3667   7.9104   C.ar      3 RES3   0.0000
   157 C72      0.9882   2.2912   7.2774   C.ar      3 RES3   0.0000
   158 H73      0.2664   1.8889   7.7474   H         3 RES3   0.0000
   159 C73      0.7534   2.7772   5.9906   C.ar      3 RES3   0.0000
   160 H74     -0.1125   2.7065   5.6051   H         3 RES3   0.0000
   161 C74      1.7854   3.3624   5.2727   C.ar      3 RES3   0.0000
   162 H75      1.6395   3.6845   4.3908   H         3 RES3   0.0000
   163 C75      3.0340   3.4698   5.8660   C.ar      3 RES3   0.0000
   164 H76      3.7505   3.8768   5.3927   H         3 RES3   0.0000
   165 C76      3.2378   2.9814   7.1569   C.ar      3 RES3   0.0000
   166 H77      4.1009   3.0710   7.5443   H         3 RES3   0.0000
   167 C77      3.7799   2.4976  10.0610   C.ar      3 RES3   0.0000
   168 C78      5.0772   1.9679  10.1912   C.ar      3 RES3   0.0000
   169 H78      5.2407   1.0878   9.8713   H         3 RES3   0.0000
   170 C79      6.1290   2.6699  10.7642   C.ar      3 RES3   0.0000
   171 H79      6.9832   2.2617  10.8455   H         3 RES3   0.0000
   172 C80      5.9357   3.9559  11.2153   C.ar      3 RES3   0.0000
   173 H80      6.6463   4.4349  11.6258   H         3 RES3   0.0000
   174 C81      4.6822   4.5481  11.0625   C.ar      3 RES3   0.0000
   175 H81      4.5402   5.4460  11.3395   H         3 RES3   0.0000
   176 C82      3.6447   3.8155  10.5038   C.ar      3 RES3   0.0000
   177 H82      2.7960   4.2331  10.4161   H         3 RES3   0.0000
   178 O1      10.3219   1.9160   6.7658   O.2       4 RES4   0.0000
   179 C83     10.3404   2.5861   7.7677   C.2       4 RES4   0.0000
   180 C84      9.8837   2.0269   9.0896   C.3       4 RES4   0.0000
   181 H83      9.5628   1.1102   8.9617   H         4 RES4   0.0000
   182 H84      9.1576   2.5814   9.4465   H         4 RES4   0.0000
   183 H85     10.6342   2.0269   9.7189   H         4 RES4   0.0000
   184 C85     10.8488   3.9924   7.7871   C.3       4 RES4   0.0000
   185 H86     11.7524   4.0078   8.1676   H         4 RES4   0.0000
   186 H87     10.2535   4.5469   8.3338   H         4 RES4   0.0000
   187 H88     10.8744   4.3428   6.8748   H         4 RES4   0.0000
@<TRIPOS>BOND
     1     1     4    1
     2     2     7    1
     3     3     7    1
     4     4    22   ar
     5     5    29    1
     6     6    30    1
     7     7     1    1
     8     8     2    1
     9     9     8    1
    10    10     3    1
    11    11    10    1
    12    12     2    1
    13    13    12    1
    14    14    12    1
    15    15    14    1
    16    16    14    1
    17    17    14    1
    18    18    12    1
    19    19    18    1
    20    20    18    1
    21    21    18    1
    22    22     3    1
    23    23    22   ar
    24    24    23    1
    25    25    23   ar
    26    26    25    1
    27    27    25   ar
    28    28    27    1
    29    29     4   ar
    30    30     1    1
    31    31     5    1
    32    32    31    1
    33    33     6    1
    34    34    33    1
    35    35     6    1
    36    36    35    1
    37    37    35    1
    38    38    37    1
    39    39    37    1
    40    40    37    1
    41    41    35    1
    42    42    41    1
    43    43    41    1
    44    44    41    1
    45    45    50    1
    46    46    50    1
    47    47     1    1
    48    48    72    1
    49    49    73    1
    50    50     1    1
    51    51    45    1
    52    52    51    1
    53    53    46    1
    54    54    53    1
    55    55    45    1
    56    56    55    1
    57    57    55    1
    58    58    57    1
    59    59    57    1
    60    60    57    1
    61    61    55    1
    62    62    61    1
    63    63    61    1
    64    64    61    1
    65    65    46    1
    66    66    65   ar
    67    67    66    1
    68    68    66   ar
    69    69    68    1
    70    70    68   ar
    71    71    70    1
    72    72    47   ar
    73    73     1    1
    74    74    48    1
    75    75    74    1
    76    76    49    1
    77    77    76    1
    78    78    49    1
    79    79    78    1
    80    80    78    1
    81    81    80    1
    82    82    80    1
    83    83    80    1
    84    84    78    1
    85    85    84    1
    86    86    84    1
    87    87    84    1
    88     5    30    1
    89     8    10    2
    90    27    29   ar
    91    31    33    2
    92    47    65   ar
    93    48    73    1
    94    51    53    2
    95    70    72   ar
    96    74    76    2
    97    88    89    1
    98    89    90   ar
    99    90    91    1
   100    92    90   ar
   101    93    92    1
   102    94    92   ar
   103    95    94    1
   104    96    94   ar
   105    97    96    1
   106    98    89   ar
   107    99    98    1
   108   100    88    1
   109   101   100   ar
   110   102   101    1
   111   103   101   ar
   112   104   103    1
   113   105   103   ar
   114   106   105    1
   115   107   105   ar
   116   108   107    1
   117   109   100   ar
   118   110   109    1
   119   111    88    1
   120   112   111   ar
   121   113   112    1
   122   114   112   ar
   123   115   114    1
   124   116   114   ar
   125   117   116    1
   126   118   116   ar
   127   119   118    1
   128   120   111   ar
   129   121   120    1
   130   122    88    1
   131   123   122   ar
   132   124   123    1
   133   125   123   ar
   134   126   125    1
   135   127   125   ar
   136   128   127    1
   137   129   127   ar
   138   130   129    1
   139   131   122   ar
   140   132   131    1
   141    96    98   ar
   142   107   109   ar
   143   118   120   ar
   144   129   131   ar
   145   133   134    1
   146   134   135   ar
   147   135   136    1
   148   137   135   ar
   149   138   137    1
   150   139   137   ar
   151   140   139    1
   152   141   139   ar
   153   142   141    1
   154   143   134   ar
   155   144   143    1
   156   145   133    1
   157   146   145   ar
   158   147   146    1
   159   148   146   ar
   160   149   148    1
   161   150   148   ar
   162   151   150    1
   163   152   150   ar
   164   153   152    1
   165   154   145   ar
   166   155   154    1
   167   156   133    1
   168   157   156   ar
   169   158   157    1
   170   159   157   ar
   171   160   159    1
   172   161   159   ar
   173   162   161    1
   174   163   161   ar
   175   164   163    1
   176   165   156   ar
   177   166   165    1
   178   167   133    1
   179   168   167   ar
   180   169   168    1
   181   170   168   ar
   182   171   170    1
   183   172   170   ar
   184   173   172    1
   185   174   172   ar
   186   175   174    1
   187   176   167   ar
   188   177   176    1
   189   141   143   ar
   190   152   154   ar
   191   163   165   ar
   192   174   176   ar
   193   178   179    2
   194   179   180    1
   195   180   181    1
   196   182   180    1
   197   183   180    1
   198   184   179    1
   199   185   184    1
   200   186   184    1
   201   187   184    1
@<TRIPOS>SUBSTRUCTURE
     1 RES1        1 GROUP             0 ****  ****    0  
     2 RES2       88 GROUP             0 ****  ****    0  
     3 RES3      133 GROUP             0 ****  ****    0  
     4 RES4      178 GROUP             0 ****  ****    0  
@<TRIPOS>CRYSIN
   13.4310   11.7980   46.1950   90.0000   91.8630   90.0000    14     1
