@<TRIPOS>MOLECULE
BELRUJ
   117   127     1     0     0
SMALL
NO_CHARGES
****
Generated from the CSD

@<TRIPOS>ATOM
     1 Fe1      9.2697  11.2434  12.6331   Fe        1 RES1   0.0000
     2 P1       9.2486   9.5337  11.1166   P.3       1 RES1   0.0000
     3 P2       8.6022  13.1416  13.7579   P.3       1 RES1   0.0000
     4 N1      10.6790  12.2385  11.6664   N.ar      1 RES1   0.0000
     5 N2       7.8200  11.8534  11.4529   N.2       1 RES1   0.0000
     6 N3      10.8012  10.7320  13.7091   N.ar      1 RES1   0.0000
     7 C1      10.5171  13.0543  10.5935   C.ar      1 RES1   0.0000
     8 H1       9.6345  13.2493  10.3018   H         1 RES1   0.0000
     9 C2      11.9534  12.0106  12.0847   C.ar      1 RES1   0.0000
    10 C3       7.9955  10.1083  13.5813   C.1       1 RES1   0.0000
    11 C4      12.0251  11.1679  13.2757   C.ar      1 RES1   0.0000
    12 C5      11.5764  13.6141   9.9065   C.ar      1 RES1   0.0000
    13 H2      11.4191  14.1817   9.1611   H         1 RES1   0.0000
    14 C6       7.2367  13.0972  11.4508   C.2       1 RES1   0.0000
    15 C7      10.2749   9.8055   9.5773   C.3       1 RES1   0.0000
    16 H3      10.3489  10.7989   9.4896   H         1 RES1   0.0000
    17 C8       7.8300  14.1077  12.3835   C.3       1 RES1   0.0000
    18 H4       7.1281  14.7106  12.7347   H         1 RES1   0.0000
    19 H5       8.5124  14.6528  11.9167   H         1 RES1   0.0000
    20 C9      13.0642  12.5382  11.4265   C.ar      1 RES1   0.0000
    21 H6      13.9413  12.3492  11.7382   H         1 RES1   0.0000
    22 C10      7.1204  11.0716  10.5730   C.2       1 RES1   0.0000
    23 C11      9.3864   7.7584  11.6305   C.3       1 RES1   0.0000
    24 H7       8.6254   7.6139  12.2627   H         1 RES1   0.0000
    25 C12     12.8751  13.3374  10.3185   C.ar      1 RES1   0.0000
    26 H8      13.6186  13.6922   9.8456   H         1 RES1   0.0000
    27 C13      7.2137  12.8938  14.9562   C.3       1 RES1   0.0000
    28 H9       6.5840  12.2642  14.5010   H         1 RES1   0.0000
    29 C14     10.7708  10.0137  14.8574   C.ar      1 RES1   0.0000
    30 H10      9.9319   9.7038  15.1777   H         1 RES1   0.0000
    31 C15      6.0780   8.5153  14.4147   C.ar      1 RES1   0.0000
    32 C16      7.1604   9.3852  14.0214   C.1       1 RES1   0.0000
    33 C17      6.1090  11.8162   9.9916   C.2       1 RES1   0.0000
    34 H11      5.4842  11.5163   9.3422   H         1 RES1   0.0000
    35 C18      7.5051   9.6260  10.5139   C.3       1 RES1   0.0000
    36 H12      7.4412   9.2877   9.5856   H         1 RES1   0.0000
    37 H13      6.9101   9.0847  11.0905   H         1 RES1   0.0000
    38 C19      9.6876   9.3337   8.2402   C.3       1 RES1   0.0000
    39 H14      9.6144   8.3464   8.2425   H         1 RES1   0.0000
    40 H15      8.7770   9.7077   8.1306   H         1 RES1   0.0000
    41 C20     11.7241   9.3139   9.7297   C.3       1 RES1   0.0000
    42 H16     12.1050   9.6680  10.5720   H         1 RES1   0.0000
    43 H17     11.7325   8.3253   9.7812   H         1 RES1   0.0000
    44 C21      7.6696  12.1579  16.2282   C.3       1 RES1   0.0000
    45 H18      8.2271  11.3786  15.9776   H         1 RES1   0.0000
    46 H19      8.2222  12.7651  16.7817   H         1 RES1   0.0000
    47 C22      6.1898  13.1146  10.5553   C.2       1 RES1   0.0000
    48 H20      5.6291  13.8546  10.3543   H         1 RES1   0.0000
    49 C23      5.8639   8.1314  15.7536   C.ar      1 RES1   0.0000
    50 H21      6.4585   8.4345  16.4296   H         1 RES1   0.0000
    51 C24     10.6372   7.3896  12.4295   C.3       1 RES1   0.0000
    52 H22     10.7618   8.0367  13.1683   H         1 RES1   0.0000
    53 H23     11.4322   7.4359  11.8417   H         1 RES1   0.0000
    54 C25     13.2021  10.8706  13.9493   C.ar      1 RES1   0.0000
    55 H24     14.0375  11.1664  13.6068   H         1 RES1   0.0000
    56 C26     11.9034   9.7136  15.5806   C.ar      1 RES1   0.0000
    57 H25     11.8370   9.2178  16.3881   H         1 RES1   0.0000
    58 C27      9.1625   6.7442  10.5057   C.3       1 RES1   0.0000
    59 H26      8.3448   6.9855  10.0025   H         1 RES1   0.0000
    60 H27      9.9281   6.7728   9.8788   H         1 RES1   0.0000
    61 C28      9.7490  14.3650  14.6012   C.3       1 RES1   0.0000
    62 H28      9.1911  14.9137  15.2236   H         1 RES1   0.0000
    63 C29     10.5612   9.7757   7.0705   C.3       1 RES1   0.0000
    64 H29     10.1875   9.4119   6.2291   H         1 RES1   0.0000
    65 H30     10.5468  10.7634   7.0081   H         1 RES1   0.0000
    66 C30     10.7843  13.6288  15.4511   C.3       1 RES1   0.0000
    67 H31     11.2713  12.9867  14.8768   H         1 RES1   0.0000
    68 H32     10.3133  13.1108  16.1508   H         1 RES1   0.0000
    69 C31      9.0162   5.3272  11.0672   C.3       1 RES1   0.0000
    70 H33      8.1930   5.2748  11.6148   H         1 RES1   0.0000
    71 H34      8.9263   4.6855  10.3185   H         1 RES1   0.0000
    72 C32      5.1691   8.0264  13.4544   C.ar      1 RES1   0.0000
    73 H35      5.2823   8.2708  12.5434   H         1 RES1   0.0000
    74 C33      4.7876   7.3104  16.0984   C.ar      1 RES1   0.0000
    75 H36      4.6516   7.0729  17.0080   H         1 RES1   0.0000
    76 C34     12.5862   9.7698   8.5491   C.3       1 RES1   0.0000
    77 H37     12.6507  10.7579   8.5520   H         1 RES1   0.0000
    78 H38     13.5001   9.4033   8.6490   H         1 RES1   0.0000
    79 C35     11.7957  14.5584  16.1212   C.3       1 RES1   0.0000
    80 H39     11.3350  15.1101  16.8018   H         1 RES1   0.0000
    81 H40     12.4849  14.0166  16.5815   H         1 RES1   0.0000
    82 C36     13.1493  10.1412  15.1212   C.ar      1 RES1   0.0000
    83 H41     13.9423   9.9362  15.6027   H         1 RES1   0.0000
    84 C37     10.2165   4.9409  11.9216   C.3       1 RES1   0.0000
    85 H42     11.0124   4.8464  11.3411   H         1 RES1   0.0000
    86 H43     10.0440   4.0640  12.3476   H         1 RES1   0.0000
    87 C38     10.5029   5.9759  13.0022   C.3       1 RES1   0.0000
    88 H44     11.3416   5.7338  13.4694   H         1 RES1   0.0000
    89 H45      9.7699   5.9628  13.6674   H         1 RES1   0.0000
    90 C39      5.1399  13.6440  16.1651   C.3       1 RES1   0.0000
    91 H46      4.6302  14.4418  16.4552   H         1 RES1   0.0000
    92 H47      4.5476  13.1015  15.5858   H         1 RES1   0.0000
    93 C40     11.9976   9.3064   7.2227   C.3       1 RES1   0.0000
    94 H48     12.5419   9.6641   6.4775   H         1 RES1   0.0000
    95 H49     12.0275   8.3175   7.1768   H         1 RES1   0.0000
    96 C41      6.3604  14.0985  15.3485   C.3       1 RES1   0.0000
    97 H50      6.0573  14.5704  14.5328   H         1 RES1   0.0000
    98 H51      6.9029  14.7288  15.8855   H         1 RES1   0.0000
    99 C42      3.9144   6.8378  15.1285   C.ar      1 RES1   0.0000
   100 H52      3.1883   6.2751  15.3695   H         1 RES1   0.0000
   101 C43      6.4569  11.6810  17.0422   C.3       1 RES1   0.0000
   102 H53      5.9619  11.0010  16.5209   H         1 RES1   0.0000
   103 H54      6.7729  11.2546  17.8777   H         1 RES1   0.0000
   104 C44     12.4567  15.4564  15.1126   C.3       1 RES1   0.0000
   105 H55     12.9841  14.9119  14.4759   H         1 RES1   0.0000
   106 H56     13.0760  16.0767  15.5741   H         1 RES1   0.0000
   107 C45     10.4288  15.3284  13.6366   C.3       1 RES1   0.0000
   108 H57      9.7403  15.8722  13.1784   H         1 RES1   0.0000
   109 H58     10.9173  14.8113  12.9480   H         1 RES1   0.0000
   110 C46     11.4033  16.2536  14.3554   C.3       1 RES1   0.0000
   111 H59     11.8482  16.8418  13.6942   H         1 RES1   0.0000
   112 H60     10.9060  16.8279  14.9900   H         1 RES1   0.0000
   113 C47      4.1138   7.1965  13.8047   C.ar      1 RES1   0.0000
   114 H61      3.5245   6.8724  13.1337   H         1 RES1   0.0000
   115 C48      5.5188  12.8269  17.3889   C.3       1 RES1   0.0000
   116 H62      4.6980  12.4608  17.8035   H         1 RES1   0.0000
   117 H63      5.9574  13.4174  18.0516   H         1 RES1   0.0000
@<TRIPOS>BOND
     1     1     2    1
     2     2    15    1
     3     3     1    1
     4     4     1    1
     5     5     1    1
     6     6     1    1
     7     7     4   ar
     8     8     7    1
     9     9     4   ar
    10    10     1    1
    11    11     6   ar
    12    12     7   ar
    13    13    12    1
    14    14     5    1
    15    15    16    1
    16    17     3    1
    17    18    17    1
    18    19    17    1
    19    20     9   ar
    20    21    20    1
    21    22     5    1
    22    23     2    1
    23    24    23    1
    24    25    12   ar
    25    26    25    1
    26    27     3    1
    27    28    27    1
    28    29     6   ar
    29    30    29    1
    30    31    32    1
    31    32    10    3
    32    33    22    2
    33    34    33    1
    34    35     2    1
    35    36    35    1
    36    37    35    1
    37    38    15    1
    38    39    38    1
    39    40    38    1
    40    41    15    1
    41    42    41    1
    42    43    41    1
    43    44    27    1
    44    45    44    1
    45    46    44    1
    46    47    14    2
    47    48    47    1
    48    49    31   ar
    49    50    49    1
    50    51    23    1
    51    52    51    1
    52    53    51    1
    53    54    11   ar
    54    55    54    1
    55    56    29   ar
    56    57    56    1
    57    58    23    1
    58    59    58    1
    59    60    58    1
    60    61     3    1
    61    62    61    1
    62    63    38    1
    63    64    63    1
    64    65    63    1
    65    66    61    1
    66    67    66    1
    67    68    66    1
    68    69    58    1
    69    70    69    1
    70    71    69    1
    71    72    31   ar
    72    73    72    1
    73    74    49   ar
    74    75    74    1
    75    76    41    1
    76    77    76    1
    77    78    76    1
    78    79    66    1
    79    80    79    1
    80    81    79    1
    81    82    54   ar
    82    83    82    1
    83    84    69    1
    84    85    84    1
    85    86    84    1
    86    87    51    1
    87    88    87    1
    88    89    87    1
    89    90    91    1
    90    92    90    1
    91    93    63    1
    92    94    93    1
    93    95    93    1
    94    96    27    1
    95    97    96    1
    96    98    96    1
    97    99    74   ar
    98   100    99    1
    99   101    44    1
   100   102   101    1
   101   103   101    1
   102   104    79    1
   103   105   104    1
   104   106   104    1
   105   107    61    1
   106   108   107    1
   107   109   107    1
   108   110   104    1
   109   111   110    1
   110   112   110    1
   111   113    72   ar
   112   114   113    1
   113   115    90    1
   114   116   115    1
   115   117   115    1
   116     9    11    1
   117    14    17    1
   118    20    25   ar
   119    22    35    1
   120    33    47    1
   121    56    82   ar
   122    76    93    1
   123    84    87    1
   124    90    96    1
   125    99   113   ar
   126   101   115    1
   127   107   110    1
@<TRIPOS>SUBSTRUCTURE
     1 RES1        1 GROUP             0 ****  ****    0  
@<TRIPOS>CRYSIN
   10.2590   12.3588   17.7470   77.8510   87.7710   68.4080     2     1
