@<TRIPOS>MOLECULE
BIHKUY
    85    89     4     0     0
SMALL
USER_CHARGES
****
Generated from the CSD

@<TRIPOS>ATOM
     1 Fe1      4.5443  11.1008  10.9008   Fe        1 RES1  -2.0000
     2 O1       5.4147   9.6813  12.0188   O.3       1 RES1   0.0000
     3 O2       5.4517  10.6575   9.1727   O.3       1 RES1   0.0000
     4 O3       3.1695  12.2049   9.9222   O.3       1 RES1   0.0000
     5 O4       3.9003  12.0063  12.6127   O.2       1 RES1   0.0000
     6 O5       3.2013   9.5975  10.6555   O.3       1 RES1   0.0000
     7 O6       6.1468  12.2637  11.0362   O.3       1 RES1   0.0000
     8 C1       2.3929  13.1186  10.4079   C.2       1 RES1   0.0000
     9 C2       2.3136  13.5753  11.7284   C.2       1 RES1   0.0000
    10 C3       3.0776  12.9569  12.6694   C.2       1 RES1   0.0000
    11 C4       1.4699  13.7473   9.3483   C.3       1 RES1   0.0000
    12 H1       0.9180  14.4047   9.7553   H         1 RES1   0.0000
    13 H2       0.9252  13.0713   8.9628   H         1 RES1   0.0000
    14 H3       1.9985  14.1528   8.6711   H         1 RES1   0.0000
    15 C5       2.8800  13.5144  14.1060   C.3       1 RES1   0.0000
    16 H4       2.2449  14.2204  14.0907   H         1 RES1   0.0000
    17 H5       3.7124  13.8440  14.4232   H         1 RES1   0.0000
    18 H6       2.5723  12.8244  14.6821   H         1 RES1   0.0000
    19 C6       3.6107   8.4345  11.1345   C.ar      1 RES1   0.0000
    20 C7       4.7918   8.5116  11.9298   C.ar      1 RES1   0.0000
    21 C8       5.2538   7.3145  12.5215   C.ar      1 RES1   0.0000
    22 H7       6.0732   7.2907  13.0016   H         1 RES1   0.0000
    23 C9       4.4683   6.1665  12.3989   C.ar      1 RES1   0.0000
    24 H8       4.7830   5.3764  12.8223   H         1 RES1   0.0000
    25 C10      3.3306   6.0874  11.7060   C.ar      1 RES1   0.0000
    26 H9       2.8425   5.2737  11.6604   H         1 RES1   0.0000
    27 C11      2.8658   7.2633  11.0767   C.ar      1 RES1   0.0000
    28 C12      1.5483   7.1500  10.3830   C.2       1 RES1   0.0000
    29 O7       1.0490   6.0520  10.1182   O.2       1 RES1   0.0000
    30 N1       0.9698   8.3694  10.0694   N.am      1 RES1   0.0000
    31 C13     -0.2989   8.3146   9.3517   C.3       1 RES1   0.0000
    32 H10     -0.3744   7.4817   8.9010   H         1 RES1   0.0000
    33 H11     -1.0109   8.4039   9.9740   H         1 RES1   0.0000
    34 C14     -0.3681   9.4393   8.3397   C.2       1 RES1   0.0000
    35 O8       0.4482  10.3551   8.2187   O.2       1 RES1   0.0000
    36 O9      -1.5259   9.3972   7.6805   O.3       1 RES1   0.0000
    37 C15     -1.7060  10.4437   6.4745   C.3       1 RES1   0.0000
    38 C16     -2.8299   9.7677   5.7887   C.3       1 RES1   0.0000
    39 C17      7.0365  12.1796  10.0785   C.ar      1 RES1   0.0000
    40 C18      6.6488  11.2744   8.9849   C.ar      1 RES1   0.0000
    41 C19      7.4596  11.0681   7.9102   C.ar      1 RES1   0.0000
    42 H12      7.1988  10.4675   7.2220   H         1 RES1   0.0000
    43 C20      8.6921  11.7588   7.8205   C.ar      1 RES1   0.0000
    44 H13      9.2624  11.6251   7.0724   H         1 RES1   0.0000
    45 C21      9.0714  12.6285   8.8266   C.ar      1 RES1   0.0000
    46 H14      9.8866  13.1100   8.7478   H         1 RES1   0.0000
    47 C22      8.2711  12.8217   9.9774   C.ar      1 RES1   0.0000
    48 C23      8.6643  13.8731  11.0523   C.2       1 RES1   0.0000
    49 O10      9.7346  14.4788  10.8549   O.2       1 RES1   0.0000
    50 N2       7.8189  14.0042  12.0301   N.am      1 RES1   0.0000
    51 C24      8.1803  15.0448  13.0226   C.3       1 RES1   0.0000
    52 H15      8.1700  15.9053  12.6201   H         1 RES1   0.0000
    53 H16      9.0422  14.8748  13.3843   H         1 RES1   0.0000
    54 C25      7.1575  14.9358  14.0802   C.2       1 RES1   0.0000
    55 O11      6.4540  14.0337  14.3281   O.2       1 RES1   0.0000
    56 C26      6.1470  16.1384  15.9004   C.3       1 RES1   0.0000
    57 O12      7.1617  16.0998  14.7597   O.3       1 RES1   0.0000
    58 C27      6.1411  17.6242  16.3485   C.3       1 RES1   0.0000
    59 N3       6.2367  11.0794  14.1527   N.2       2 RES2   1.0000
    60 C28      5.1960  10.5635  15.2076   C.3       2 RES2   0.0000
    61 C29      5.6048  11.1523  16.4482   C.3       2 RES2   0.0000
    62 C30      7.0126  10.5971  16.9198   C.3       2 RES2   0.0000
    63 C31      8.0686  11.0027  15.8114   C.3       2 RES2   0.0000
    64 C32      7.7004  10.5072  14.5006   C.3       2 RES2   0.0000
    65 N4       3.2607  10.2795   7.6712   N.2       3 RES3   1.0000
    66 C33      3.4233   8.8642   7.1146   C.3       3 RES3   0.0000
    67 H17      2.6166   8.6149   6.6793   H         3 RES3   0.0000
    68 H18      3.5898   8.2702   7.8372   H         3 RES3   0.0000
    69 C34      4.5108   8.7537   6.1771   C.3       3 RES3   0.0000
    70 H19      5.3132   8.9713   6.6365   H         3 RES3   0.0000
    71 H20      4.5580   7.8578   5.8644   H         3 RES3   0.0000
    72 C35      4.3893   9.6445   5.0285   C.3       3 RES3   0.0000
    73 H21      5.1715   9.5705   4.4946   H         3 RES3   0.0000
    74 H22      3.6290   9.4065   4.5110   H         3 RES3   0.0000
    75 C36      4.2400  11.1565   5.5375   C.3       3 RES3   0.0000
    76 H23      4.0655  11.7451   4.8124   H         3 RES3   0.0000
    77 H24      5.0367  11.4258   5.9794   H         3 RES3   0.0000
    78 C37      3.1078  11.1821   6.4966   C.3       3 RES3   0.0000
    79 H25      2.3260  10.9103   6.0303   H         3 RES3   0.0000
    80 H26      2.9962  12.0715   6.8107   H         3 RES3   0.0000
    81 O13     -0.4752   2.6802   2.9775   O.3       4 RES4   0.0000
    82 C38      1.1201   1.4260   3.6924   C.3       4 RES4   0.0000
    83 C39      1.1445   2.4781   4.5235   C.3       4 RES4   0.0000
    84 C40      0.3819   3.4001   3.6120   C.3       4 RES4   0.0000
    85 C41     -0.1776   1.5031   2.7668   C.3       4 RES4   0.0000
@<TRIPOS>BOND
     1     1     2    1
     2     2    20    1
     3     3     1    1
     4     4     1    1
     5     5     1    1
     6     6     1    1
     7     7     1    1
     8     8     4    1
     9     9     8    2
    10    10     5    2
    11    11     8    1
    12    12    11    1
    13    13    11    1
    14    14    11    1
    15    15    10    1
    16    16    15    1
    17    17    15    1
    18    18    15    1
    19    19     6    1
    20    20    19   ar
    21    21    20   ar
    22    22    21    1
    23    23    21   ar
    24    24    23    1
    25    25    23   ar
    26    26    25    1
    27    27    19   ar
    28    28    27    1
    29    29    28    2
    30    30    28   am
    31    31    30    1
    32    32    31    1
    33    33    31    1
    34    34    31    1
    35    35    34    2
    36    36    34    1
    37    37    36    1
    38    38    37    1
    39    39     7    1
    40    40     3    1
    41    41    40   ar
    42    42    41    1
    43    43    41   ar
    44    44    43    1
    45    45    43   ar
    46    46    45    1
    47    47    39   ar
    48    48    47    1
    49    49    48    2
    50    50    48   am
    51    51    50    1
    52    52    51    1
    53    53    51    1
    54    54    51    1
    55    55    54    2
    56    56    57    1
    57    57    54    1
    58    58    56    1
    59     9    10    1
    60    25    27   ar
    61    39    40   ar
    62    45    47   ar
    63    59    60    1
    64    60    61    1
    65    61    62    1
    66    62    63    1
    67    63    64    1
    68    64    59    1
    69    65    66    1
    70    66    67    1
    71    68    66    1
    72    69    66    1
    73    70    69    1
    74    71    69    1
    75    72    69    1
    76    73    72    1
    77    74    72    1
    78    75    72    1
    79    76    75    1
    80    77    75    1
    81    78    65    1
    82    79    78    1
    83    80    78    1
    84    75    78    1
    85    81    84    1
    86    82    83    1
    87    83    84    1
    88    85    81    1
    89    82    85    1
@<TRIPOS>SUBSTRUCTURE
     1 RES1        1 GROUP             0 ****  ****    0  
     2 RES2       59 GROUP             0 ****  ****    0  
     3 RES3       65 GROUP             0 ****  ****    0  
     4 RES4       81 GROUP             0 ****  ****    0  
@<TRIPOS>CRYSIN
   14.2600   11.1210   29.8370   90.0000  108.3200   90.0000    14     1
