@<TRIPOS>MOLECULE
BINZUT
    53    58     2     0     0
SMALL
USER_CHARGES
****
Generated from the CSD

@<TRIPOS>ATOM
     1 Fe1      1.6888   0.4409  10.0293   Fe        1 RES1   1.0000
     2 P1       2.8335  -0.8759   8.5877   P.3       1 RES1   0.0000
     3 P2       2.4807   2.1592   8.8173   P.3       1 RES1   0.0000
     4 P3       0.4944   1.7565  11.4788   P.3       1 RES1   0.0000
     5 P4       3.2790   0.3501  11.6256   P.3       1 RES1   0.0000
     6 S1      -0.2530   0.1924   8.7986   S.2       1 RES1   0.0000
     7 S2       0.5861  -1.4387  10.8435   S.2       1 RES1   0.0000
     8 C1       4.0220   0.1255   7.7108   C.3       1 RES1   0.0000
     9 C2       3.5540   1.5534   7.4399   C.3       1 RES1   0.0000
    10 C3       3.9437  -2.1652   9.0442   C.3       1 RES1   0.0000
    11 C4       3.1038  -3.5680   9.2538   C.3       1 RES1   0.0000
    12 C5       1.9282  -1.5713   7.1489   C.3       1 RES1   0.0000
    13 C6       2.6749  -2.2751   5.9983   C.3       1 RES1   0.0000
    14 C7       3.6086   3.3577   9.5728   C.3       1 RES1   0.0000
    15 C8       4.2679   4.5036   8.8120   C.3       1 RES1   0.0000
    16 C9       1.3304   3.2465   7.9003   C.3       1 RES1   0.0000
    17 C10      0.7603   2.8283   6.6524   C.3       1 RES1   0.0000
    18 C11      1.2798   1.5366  13.1259   C.3       1 RES1   0.0000
    19 C12      2.8327   1.5295  12.9697   C.3       1 RES1   0.0000
    20 C13      0.4599   3.5847  11.3240   C.3       1 RES1   0.0000
    21 C14     -0.2296   4.3984  12.5199   C.3       1 RES1   0.0000
    22 C15     -1.2386   1.4100  11.8739   C.3       1 RES1   0.0000
    23 C16     -2.3564   2.0457  11.0237   C.3       1 RES1   0.0000
    24 C17      3.2507  -1.1734  12.6053   C.3       1 RES1   0.0000
    25 C18      4.2613  -1.3765  13.7639   C.3       1 RES1   0.0000
    26 C19      5.0431   0.6094  11.3533   C.3       1 RES1   0.0000
    27 C20      5.8060   1.5366  12.4225   C.3       1 RES1   0.0000
    28 C21     -0.6090  -1.1818   9.7169   C.3       1 RES1   0.0000
    29 B1       3.9079  17.0166   3.2434   B         2 RES2  -1.0000
    30 C22      4.0525  17.4432   1.6471   C.ar      2 RES2   0.0000
    31 C23      4.9640  16.8087   0.8008   C.ar      2 RES2   0.0000
    32 C24      5.0993  17.2340  -0.5219   C.ar      2 RES2   0.0000
    33 C25      4.3259  18.2915  -0.9971   C.ar      2 RES2   0.0000
    34 C26      3.4144  18.9248  -0.1508   C.ar      2 RES2   0.0000
    35 C27      3.2792  18.5006   1.1706   C.ar      2 RES2   0.0000
    36 C28      2.3110  17.2460   3.7119   C.ar      2 RES2   0.0000
    37 C29      1.3222  16.6700   2.9151   C.ar      2 RES2   0.0000
    38 C30     -0.0220  16.8194   3.2541   C.ar      2 RES2   0.0000
    39 C31     -0.3775  17.5447   4.3926   C.ar      2 RES2   0.0000
    40 C32      0.6113  18.1195   5.1908   C.ar      2 RES2   0.0000
    41 C33      1.9556  17.9701   4.8505   C.ar      2 RES2   0.0000
    42 C34      4.8712  18.0502   4.1871   C.ar      2 RES2   0.0000
    43 C35      5.3225  17.6284   5.4377   C.ar      2 RES2   0.0000
    44 C36      5.9842  18.5221   6.2786   C.ar      2 RES2   0.0000
    45 C37      6.1917  19.8401   5.8702   C.ar      2 RES2   0.0000
    46 C38      5.7404  20.2619   4.6195   C.ar      2 RES2   0.0000
    47 C39      5.0787  19.3669   3.7773   C.ar      2 RES2   0.0000
    48 C40      4.3805  15.4262   3.4543   C.ar      2 RES2   0.0000
    49 C41      3.4404  14.4033   3.5744   C.ar      2 RES2   0.0000
    50 C42      3.8606  13.0770   3.6759   C.ar      2 RES2   0.0000
    51 C43      5.2209  12.7735   3.6572   C.ar      2 RES2   0.0000
    52 C44      6.1639  13.7963   3.5371   C.ar      2 RES2   0.0000
    53 C45      5.7437  15.1227   3.4356   C.ar      2 RES2   0.0000
@<TRIPOS>BOND
     1     1     2    1
     2     2     8    1
     3     3     1    1
     4     4     1    1
     5     5     1    1
     6     6     1    1
     7     7     1    1
     8     8     9    1
     9     9     3    1
    10    10     2    1
    11    11    10    1
    12    12     2    1
    13    13    12    1
    14    14     3    1
    15    15    14    1
    16    16     3    1
    17    17    16    1
    18    18     4    1
    19    19     5    1
    20    20     4    1
    21    21    20    1
    22    22     4    1
    23    23    22    1
    24    24     5    1
    25    25    24    1
    26    26     5    1
    27    27    26    1
    28    28     6   un
    29     7    28   un
    30    18    19    1
    31    29    30    1
    32    30    31   ar
    33    31    32   ar
    34    32    33   ar
    35    33    34   ar
    36    34    35   ar
    37    35    30   ar
    38    36    29    1
    39    37    36   ar
    40    38    37   ar
    41    39    38   ar
    42    40    39   ar
    43    41    36   ar
    44    42    29    1
    45    43    42   ar
    46    44    43   ar
    47    45    44   ar
    48    46    45   ar
    49    47    42   ar
    50    48    29    1
    51    49    48   ar
    52    50    49   ar
    53    51    50   ar
    54    52    51   ar
    55    53    48   ar
    56    40    41   ar
    57    46    47   ar
    58    52    53   ar
@<TRIPOS>SUBSTRUCTURE
     1 RES1        1 GROUP             0 ****  ****    0  
     2 RES2       29 GROUP             0 ****  ****    0  
@<TRIPOS>CRYSIN
   28.9120   11.9490   13.3860   90.0000   94.3500   90.0000    14     2
