@<TRIPOS>MOLECULE
BINZUW
   148   162     3     0     0
SMALL
USER_CHARGES
****
Generated from the CSD

@<TRIPOS>ATOM
     1 Fe1     -3.7387  28.7546  10.6977   Fe        1 RES1   2.0000
     2 N1      -5.5809  28.2284  10.3362   N.ar      1 RES1   0.0000
     3 N2      -3.1522  27.9759   8.8942   N.pl3     1 RES1   0.0000
     4 H1      -2.4352  27.3707   9.0421   H         1 RES1   0.0000
     5 H2      -3.8705  27.4899   8.5230   H         1 RES1   0.0000
     6 N3      -1.8317  29.2206  11.2134   N.pl3     1 RES1   0.0000
     7 H3      -1.3516  28.4345  11.4397   H         1 RES1   0.0000
     8 H4      -1.3889  29.6223  10.4578   H         1 RES1   0.0000
     9 N4      -3.7585  30.4425   9.6834   N.ar      1 RES1   0.0000
    10 N5      -4.1481  29.6443  12.4036   N.ar      1 RES1   0.0000
    11 N6      -3.6258  26.9259  11.5672   N.pl3     1 RES1   0.0000
    12 H5      -2.8483  26.4508  11.2565   H         1 RES1   0.0000
    13 H6      -3.5693  27.0560  12.5047   H         1 RES1   0.0000
    14 C1      -5.2918  29.6852  13.0774   C.ar      1 RES1   0.0000
    15 H7      -6.0163  29.1463  12.7817   H         1 RES1   0.0000
    16 C2      -5.4732  30.4942  14.2135   C.ar      1 RES1   0.0000
    17 H8      -6.3079  30.4920  14.6661   H         1 RES1   0.0000
    18 C3      -4.4733  31.2696  14.6629   C.ar      1 RES1   0.0000
    19 H9      -4.5993  31.8240  15.4234   H         1 RES1   0.0000
    20 C4      -3.2290  31.2508  13.9880   C.ar      1 RES1   0.0000
    21 C5      -3.1101  30.3870  12.8813   C.ar      1 RES1   0.0000
    22 C6      -1.8631  30.2400  12.2313   C.ar      1 RES1   0.0000
    23 C7      -0.7923  30.9939  12.6163   C.ar      1 RES1   0.0000
    24 H10      0.0363  30.9072  12.1597   H         1 RES1   0.0000
    25 C8      -0.9103  31.8979  13.6864   C.ar      1 RES1   0.0000
    26 H11     -0.1662  32.4317  13.9401   H         1 RES1   0.0000
    27 C9      -2.0954  32.0112  14.3657   C.ar      1 RES1   0.0000
    28 H12     -2.1582  32.6092  15.1012   H         1 RES1   0.0000
    29 C10     -4.8476  26.1948  11.3149   C.ar      1 RES1   0.0000
    30 C11     -5.0525  24.8868  11.6662   C.ar      1 RES1   0.0000
    31 H13     -4.3750  24.4037  12.1247   H         1 RES1   0.0000
    32 C12     -6.2718  24.2636  11.3456   C.ar      1 RES1   0.0000
    33 H14     -6.3966  23.3450  11.5525   H         1 RES1   0.0000
    34 C13     -7.2794  24.9617  10.7381   C.ar      1 RES1   0.0000
    35 H15     -8.0997  24.5242  10.5431   H         1 RES1   0.0000
    36 C14     -7.1200  26.3160  10.3970   C.ar      1 RES1   0.0000
    37 C15     -5.8629  26.9136  10.6766   C.ar      1 RES1   0.0000
    38 C16     -6.5577  28.9326   9.7880   C.ar      1 RES1   0.0000
    39 H16     -6.3816  29.8398   9.5660   H         1 RES1   0.0000
    40 C17     -7.8283  28.4258   9.5142   C.ar      1 RES1   0.0000
    41 H17     -8.4901  28.9810   9.1196   H         1 RES1   0.0000
    42 C18     -8.1076  27.1335   9.8143   C.ar      1 RES1   0.0000
    43 H18     -8.9709  26.7799   9.6333   H         1 RES1   0.0000
    44 C19     -3.0482  30.3577   8.4924   C.ar      1 RES1   0.0000
    45 C20     -2.6603  29.0691   8.0781   C.ar      1 RES1   0.0000
    46 C21     -1.8983  28.8996   6.9567   C.ar      1 RES1   0.0000
    47 H19     -1.6427  28.0295   6.6730   H         1 RES1   0.0000
    48 C22     -1.4949  30.0388   6.2247   C.ar      1 RES1   0.0000
    49 H20     -0.9292  29.9277   5.4709   H         1 RES1   0.0000
    50 C23     -1.8933  31.2804   6.5687   C.ar      1 RES1   0.0000
    51 H21     -1.6310  32.0256   6.0421   H         1 RES1   0.0000
    52 C24     -2.7092  31.4782   7.7223   C.ar      1 RES1   0.0000
    53 C25     -3.1771  32.7450   8.1498   C.ar      1 RES1   0.0000
    54 H22     -2.9673  33.5312   7.6598   H         1 RES1   0.0000
    55 C26     -3.9317  32.8104   9.2770   C.ar      1 RES1   0.0000
    56 H23     -4.2948  33.6436   9.5535   H         1 RES1   0.0000
    57 C27     -4.1819  31.6491  10.0427   C.ar      1 RES1   0.0000
    58 H24     -4.6739  31.7354  10.8500   H         1 RES1   0.0000
    59 C28    -11.5697  24.2687  12.8608   C.ar      2 RES2   0.0000
    60 C29    -11.8645  23.3337  13.8724   C.ar      2 RES2   0.0000
    61 H25    -12.2616  23.6448  14.6775   H         2 RES2   0.0000
    62 C30    -11.6007  21.9896  13.7450   C.ar      2 RES2   0.0000
    63 H26    -11.8341  21.3931  14.4470   H         2 RES2   0.0000
    64 C31    -11.0016  21.5067  12.6061   C.ar      2 RES2   0.0000
    65 H27    -10.8166  20.5791  12.5183   H         2 RES2   0.0000
    66 C32    -10.6711  22.3845  11.5871   C.ar      2 RES2   0.0000
    67 H28    -10.2446  22.0648  10.8010   H         2 RES2   0.0000
    68 C33    -10.9644  23.7289  11.7218   C.ar      2 RES2   0.0000
    69 H29    -10.7447  24.3138  11.0070   H         2 RES2   0.0000
    70 C34    -13.1842  26.2618  13.8680   C.ar      2 RES2   0.0000
    71 C35    -13.3753  27.5559  14.3847   C.ar      2 RES2   0.0000
    72 H30    -12.6660  28.1844  14.3210   H         2 RES2   0.0000
    73 C36    -14.5722  27.9507  14.9894   C.ar      2 RES2   0.0000
    74 H31    -14.6623  28.8368  15.3203   H         2 RES2   0.0000
    75 C37    -15.6246  27.0668  15.1109   C.ar      2 RES2   0.0000
    76 H32    -16.4310  27.3299  15.5395   H         2 RES2   0.0000
    77 C38    -15.4853  25.7969  14.6014   C.ar      2 RES2   0.0000
    78 H33    -16.2069  25.1825  14.6597   H         2 RES2   0.0000
    79 C39    -14.2773  25.4014  13.9909   C.ar      2 RES2   0.0000
    80 H34    -14.2052  24.5170  13.6517   H         2 RES2   0.0000
    81 C40    -10.4587  26.5814  15.4037   C.ar      2 RES2   0.0000
    82 H35    -11.2885  26.6053  15.8654   H         2 RES2   0.0000
    83 C41     -9.2901  26.8581  16.1064   C.ar      2 RES2   0.0000
    84 H36     -9.3405  27.0714  17.0310   H         2 RES2   0.0000
    85 C42     -8.0674  26.8279  15.4856   C.ar      2 RES2   0.0000
    86 H37     -7.2753  27.0458  15.9634   H         2 RES2   0.0000
    87 C43     -8.0062  26.4722  14.1432   C.ar      2 RES2   0.0000
    88 H38     -7.1686  26.4128  13.7012   H         2 RES2   0.0000
    89 C44     -9.1697  26.2074  13.4610   C.ar      2 RES2   0.0000
    90 H39     -9.1066  25.9682  12.5440   H         2 RES2   0.0000
    91 C45    -10.4519  26.2703  14.0451   C.ar      2 RES2   0.0000
    92 C46    -11.7382  26.7339  11.7189   C.ar      2 RES2   0.0000
    93 C47    -11.1243  27.9909  11.6208   C.ar      2 RES2   0.0000
    94 H40    -10.7268  28.3636  12.3988   H         2 RES2   0.0000
    95 C48    -11.0739  28.7175  10.4336   C.ar      2 RES2   0.0000
    96 H41    -10.6569  29.5706  10.4177   H         2 RES2   0.0000
    97 C49    -11.6295  28.2005   9.2814   C.ar      2 RES2   0.0000
    98 H42    -11.5682  28.6764   8.4614   H         2 RES2   0.0000
    99 C50    -12.2808  26.9749   9.3371   C.ar      2 RES2   0.0000
   100 H43    -12.6815  26.6141   8.5547   H         2 RES2   0.0000
   101 C51    -12.3459  26.2761  10.5360   C.ar      2 RES2   0.0000
   102 H44    -12.8220  25.4543  10.5578   H         2 RES2   0.0000
   103 B1     -11.7619  25.8776  13.1228   B         2 RES2  -1.0000
   104 C52     -5.1941  16.7127   4.2733   C.ar      3 RES3   0.0000
   105 H45     -5.4169  17.6359   4.2938   H         3 RES3   0.0000
   106 C53     -6.2128  15.7805   4.4387   C.ar      3 RES3   0.0000
   107 H46     -7.1139  16.0697   4.5185   H         3 RES3   0.0000
   108 C54     -5.9093  14.4231   4.4855   C.ar      3 RES3   0.0000
   109 H47     -6.5944  13.7753   4.6044   H         3 RES3   0.0000
   110 C55     -4.6203  14.0494   4.3596   C.ar      3 RES3   0.0000
   111 H48     -4.3952  13.1272   4.4030   H         3 RES3   0.0000
   112 C56     -3.6129  14.9874   4.1664   C.ar      3 RES3   0.0000
   113 H49     -2.7165  14.6846   4.0904   H         3 RES3   0.0000
   114 C57     -3.8688  16.3570   4.0815   C.ar      3 RES3   0.0000
   115 C58     -3.4753  18.5918   6.1998   C.ar      3 RES3   0.0000
   116 H50     -3.7894  17.7332   6.4570   H         3 RES3   0.0000
   117 C59     -3.5628  19.6497   7.1162   C.ar      3 RES3   0.0000
   118 H51     -3.9241  19.4887   7.9802   H         3 RES3   0.0000
   119 C60     -3.1468  20.8862   6.7971   C.ar      3 RES3   0.0000
   120 H52     -3.2277  21.6005   7.4177   H         3 RES3   0.0000
   121 C61     -2.5980  21.0976   5.5513   C.ar      3 RES3   0.0000
   122 H53     -2.2803  21.9603   5.3129   H         3 RES3   0.0000
   123 C62     -2.5104  20.0520   4.6466   C.ar      3 RES3   0.0000
   124 H54     -2.1366  20.2280   3.7918   H         3 RES3   0.0000
   125 C63     -2.9415  18.7583   4.9233   C.ar      3 RES3   0.0000
   126 C64     -3.9870  18.5289   1.7509   C.ar      3 RES3   0.0000
   127 H55     -4.7940  18.3640   2.2257   H         3 RES3   0.0000
   128 C65     -4.0703  19.1432   0.5051   C.ar      3 RES3   0.0000
   129 H56     -4.9179  19.3889   0.1524   H         3 RES3   0.0000
   130 C66     -2.9286  19.3941  -0.2152   C.ar      3 RES3   0.0000
   131 H57     -2.9754  19.8170  -1.0647   H         3 RES3   0.0000
   132 C67     -1.7383  19.0275   0.3074   C.ar      3 RES3   0.0000
   133 H58     -0.9405  19.1816  -0.1864   H         3 RES3   0.0000
   134 C68     -1.6672  18.4271   1.5606   C.ar      3 RES3   0.0000
   135 H59     -0.8110  18.1984   1.9026   H         3 RES3   0.0000
   136 C69     -2.7886  18.1432   2.3394   C.ar      3 RES3   0.0000
   137 C70     -1.2189  16.8897   4.1400   C.ar      3 RES3   0.0000
   138 C71     -0.4087  17.2243   5.2380   C.ar      3 RES3   0.0000
   139 H60     -0.7159  17.8955   5.8353   H         3 RES3   0.0000
   140 C72      0.8136  16.6293   5.4942   C.ar      3 RES3   0.0000
   141 H61      1.3195  16.8898   6.2551   H         3 RES3   0.0000
   142 C73      1.2960  15.6525   4.6407   C.ar      3 RES3   0.0000
   143 H62      2.1316  15.2334   4.8115   H         3 RES3   0.0000
   144 C74      0.5473  15.2951   3.5340   C.ar      3 RES3   0.0000
   145 H63      0.8646  14.6194   2.9471   H         3 RES3   0.0000
   146 C75     -0.6639  15.9163   3.2778   C.ar      3 RES3   0.0000
   147 H64     -1.1410  15.6789   2.4913   H         3 RES3   0.0000
   148 B2      -2.7076  17.5207   3.8619   B         3 RES3  -1.0000
@<TRIPOS>BOND
     1     1     2    1
     2     2    37   ar
     3     3     1    1
     4     4     3    1
     5     5     3    1
     6     6     1    1
     7     7     6    1
     8     8     6    1
     9     9     1    1
    10    10     1    1
    11    11     1    1
    12    12    11    1
    13    13    11    1
    14    14    10   ar
    15    15    14    1
    16    16    14   ar
    17    17    16    1
    18    18    16   ar
    19    19    18    1
    20    20    18   ar
    21    21    10   ar
    22    22     6    1
    23    23    22   ar
    24    24    23    1
    25    25    23   ar
    26    26    25    1
    27    27    20   ar
    28    28    27    1
    29    29    11    1
    30    30    29   ar
    31    31    30    1
    32    32    30   ar
    33    33    32    1
    34    34    32   ar
    35    35    34    1
    36    36    34   ar
    37    37    29   ar
    38    38     2   ar
    39    39    38    1
    40    40    38   ar
    41    41    40    1
    42    42    36   ar
    43    43    42    1
    44    44     9   ar
    45    45     3    1
    46    46    45   ar
    47    47    46    1
    48    48    46   ar
    49    49    48    1
    50    50    48   ar
    51    51    50    1
    52    52    44   ar
    53    53    52   ar
    54    54    53    1
    55    55    53   ar
    56    56    55    1
    57    57     9   ar
    58    58    57    1
    59    20    21   ar
    60    21    22   ar
    61    25    27   ar
    62    36    37   ar
    63    40    42   ar
    64    44    45   ar
    65    50    52   ar
    66    55    57   ar
    67    59    60   ar
    68    60    61    1
    69    62    60   ar
    70    63    62    1
    71    64    62   ar
    72    65    64    1
    73    66    64   ar
    74    67    66    1
    75    68    59   ar
    76    69    68    1
    77    70    71   ar
    78    71    72    1
    79    73    71   ar
    80    74    73    1
    81    75    73   ar
    82    76    75    1
    83    77    75   ar
    84    78    77    1
    85    79    70   ar
    86    80    79    1
    87    81    82    1
    88    83    81   ar
    89    84    83    1
    90    85    83   ar
    91    86    85    1
    92    87    85   ar
    93    88    87    1
    94    89    87   ar
    95    90    89    1
    96    91    81   ar
    97    92    93   ar
    98    93    94    1
    99    95    93   ar
   100    96    95    1
   101    97    95   ar
   102    98    97    1
   103    99    97   ar
   104   100    99    1
   105   101    92   ar
   106   102   101    1
   107   103    59    1
   108    66    68   ar
   109    70   103    1
   110    77    79   ar
   111    89    91   ar
   112    91   103    1
   113    92   103    1
   114    99   101   ar
   115   104   105    1
   116   106   104   ar
   117   107   106    1
   118   108   106   ar
   119   109   108    1
   120   110   108   ar
   121   111   110    1
   122   112   110   ar
   123   113   112    1
   124   114   104   ar
   125   115   116    1
   126   117   115   ar
   127   118   117    1
   128   119   117   ar
   129   120   119    1
   130   121   119   ar
   131   122   121    1
   132   123   121   ar
   133   124   123    1
   134   125   115   ar
   135   126   127    1
   136   128   126   ar
   137   129   128    1
   138   130   128   ar
   139   131   130    1
   140   132   130   ar
   141   133   132    1
   142   134   132   ar
   143   135   134    1
   144   136   126   ar
   145   137   138   ar
   146   138   139    1
   147   140   138   ar
   148   141   140    1
   149   142   140   ar
   150   143   142    1
   151   144   142   ar
   152   145   144    1
   153   146   137   ar
   154   147   146    1
   155   148   114    1
   156   112   114   ar
   157   123   125   ar
   158   125   148    1
   159   134   136   ar
   160   136   148    1
   161   137   148    1
   162   144   146   ar
@<TRIPOS>SUBSTRUCTURE
     1 RES1        1 GROUP             0 ****  ****    0  
     2 RES2       59 GROUP             0 ****  ****    0  
     3 RES3      104 GROUP             0 ****  ****    0  
@<TRIPOS>CRYSIN
   12.3225   34.0360   19.0462   90.0000  129.7690   90.0000    14     1
