@<TRIPOS>MOLECULE
BITPFE
   137   148     3     0     0
SMALL
NO_CHARGES
****
Generated from the CSD

@<TRIPOS>ATOM
     1 Fe1     -5.6233   2.9139   2.9754   Fe        1 RES1   0.0000
     2 N1      -6.8949   2.2311   1.5903   N.2       1 RES1   0.0000
     3 C1      -7.5064   0.9981   1.5414   C.2       1 RES1   0.0000
     4 C2      -8.3349   0.9083   0.3681   C.2       1 RES1   0.0000
     5 C3      -8.2596   2.0901  -0.2645   C.2       1 RES1   0.0000
     6 C4      -7.3586   2.9214   0.4949   C.2       1 RES1   0.0000
     7 C5      -7.0454   4.2248   0.1495   C.2       1 RES1   0.0000
     8 N2      -5.5132   4.6799   2.0224   N.2       1 RES1   0.0000
     9 C6      -6.1828   5.0445   0.8758   C.2       1 RES1   0.0000
    10 C7      -5.8572   6.3979   0.5184   C.2       1 RES1   0.0000
    11 C8      -4.9975   6.8599   1.4446   C.2       1 RES1   0.0000
    12 C9      -4.7860   5.7919   2.3878   C.2       1 RES1   0.0000
    13 C10     -3.9204   5.8659   3.4792   C.2       1 RES1   0.0000
    14 N3      -4.3500   3.6033   4.3618   N.2       1 RES1   0.0000
    15 C11     -3.7212   4.8272   4.3826   C.2       1 RES1   0.0000
    16 C12     -2.8395   4.9034   5.5241   C.2       1 RES1   0.0000
    17 C13     -2.9374   3.7342   6.1819   C.2       1 RES1   0.0000
    18 C14     -3.8826   2.9218   5.4605   C.2       1 RES1   0.0000
    19 C15     -4.2514   1.6216   5.8261   C.2       1 RES1   0.0000
    20 N4      -5.7579   1.1585   3.9334   N.2       1 RES1   0.0000
    21 C16     -5.1343   0.8152   5.1137   C.2       1 RES1   0.0000
    22 C17     -5.5375  -0.5017   5.5214   C.2       1 RES1   0.0000
    23 C18     -6.3913  -0.9621   4.5926   C.2       1 RES1   0.0000
    24 C19     -6.5261   0.0686   3.5890   C.2       1 RES1   0.0000
    25 C20     -7.3539  -0.0269   2.4808   C.2       1 RES1   0.0000
    26 C21     -7.0418   3.7437   3.9313   C.1       1 RES1   0.0000
    27 N5      -7.8053   4.4496   4.4274   N.1       1 RES1   0.0000
    28 C22     -8.5474   5.6826   4.7131   C.3       1 RES1   0.0000
    29 C23     -7.5170   6.8018   4.7563   C.3       1 RES1   0.0000
    30 C24     -9.5290   5.8733   3.5797   C.3       1 RES1   0.0000
    31 C25     -9.2612   5.5242   6.0357   C.3       1 RES1   0.0000
    32 C26     -4.0511   2.2837   2.1143   C.1       1 RES1   0.0000
    33 N6      -2.9981   1.9363   1.7677   N.1       1 RES1   0.0000
    34 C27     -1.5796   1.6077   1.6797   C.3       1 RES1   0.0000
    35 C28     -1.3725   0.2675   2.3499   C.3       1 RES1   0.0000
    36 C29     -1.1878   1.5734   0.2153   C.3       1 RES1   0.0000
    37 C30     -0.8395   2.7144   2.4209   C.3       1 RES1   0.0000
    38 C31     -7.6991   4.8097  -1.0750   C.ar      1 RES1   0.0000
    39 C32     -8.7479   5.7178  -0.9282   C.ar      1 RES1   0.0000
    40 C33     -9.3594   6.2656  -2.0559   C.ar      1 RES1   0.0000
    41 C34     -8.9227   5.9053  -3.3250   C.ar      1 RES1   0.0000
    42 C35     -7.8737   4.9970  -3.4777   C.ar      1 RES1   0.0000
    43 C36     -7.2620   4.4494  -2.3499   C.ar      1 RES1   0.0000
    44 C37     -3.1387   7.1431   3.6728   C.ar      1 RES1   0.0000
    45 C38     -3.7803   8.3362   4.0056   C.ar      1 RES1   0.0000
    46 C39     -3.0380   9.5062   4.1665   C.ar      1 RES1   0.0000
    47 C40     -1.6537   9.4832   3.9947   C.ar      1 RES1   0.0000
    48 C41     -1.0121   8.2900   3.6619   C.ar      1 RES1   0.0000
    49 C42     -1.7544   7.1201   3.5009   C.ar      1 RES1   0.0000
    50 C43     -3.6517   1.0656   7.0853   C.ar      1 RES1   0.0000
    51 C44     -2.7308   0.0195   7.0230   C.ar      1 RES1   0.0000
    52 C45     -2.1645  -0.4819   8.1952   C.ar      1 RES1   0.0000
    53 C46     -2.5190   0.0628   9.4294   C.ar      1 RES1   0.0000
    54 C47     -3.4399   1.1088   9.4919   C.ar      1 RES1   0.0000
    55 C48     -4.0062   1.6101   8.3197   C.ar      1 RES1   0.0000
    56 C49     -8.1571  -1.2844   2.2791   C.ar      1 RES1   0.0000
    57 C50     -7.5256  -2.4956   2.0414   C.ar      1 RES1   0.0000
    58 C51     -8.2802  -3.6466   1.7862   C.ar      1 RES1   0.0000
    59 C52     -9.6727  -3.5866   1.8461   C.ar      1 RES1   0.0000
    60 C53    -10.3073  -2.3754   2.1224   C.ar      1 RES1   0.0000
    61 C54     -9.5497  -1.2244   2.3389   C.ar      1 RES1   0.0000
    62 H1      -8.8766   0.1510   0.1164   H         1 RES1   0.0000
    63 H2      -8.7145   2.3275  -1.0860   H         1 RES1   0.0000
    64 H3      -6.1952   6.8818  -0.2327   H         1 RES1   0.0000
    65 H4      -4.5857   7.7247   1.4933   H         1 RES1   0.0000
    66 H5      -2.2953   5.6615   5.7793   H         1 RES1   0.0000
    67 H6      -2.4352   3.4598   6.9817   H         1 RES1   0.0000
    68 H7      -5.2322  -0.9687   6.2836   H         1 RES1   0.0000
    69 H8      -6.8464  -1.8117   4.6157   H         1 RES1   0.0000
    70 H9      -9.0396   5.9634  -0.0582   H         1 RES1   0.0000
    71 H10    -10.0824   6.8818  -1.9588   H         1 RES1   0.0000
    72 H11     -9.3362   6.2779  -4.1115   H         1 RES1   0.0000
    73 H12     -7.5707   4.7430  -4.3442   H         1 RES1   0.0000
    74 H13     -6.5485   3.8246  -2.4630   H         1 RES1   0.0000
    75 H14     -4.7292   8.3538   4.1309   H         1 RES1   0.0000
    76 H15     -3.4683  10.3164   4.4024   H         1 RES1   0.0000
    77 H16     -1.1454  10.2787   4.1115   H         1 RES1   0.0000
    78 H17     -0.0598   8.2783   3.5297   H         1 RES1   0.0000
    79 H18     -1.3207   6.3031   3.2581   H         1 RES1   0.0000
    80 H19     -2.4825  -0.3523   6.1866   H         1 RES1   0.0000
    81 H20     -1.5327  -1.1952   8.1453   H         1 RES1   0.0000
    82 H21     -2.1401  -0.2768  10.2205   H         1 RES1   0.0000
    83 H22     -3.6973   1.4720  10.3368   H         1 RES1   0.0000
    84 H23     -4.6234   2.3149   8.3587   H         1 RES1   0.0000
    85 H24     -6.5686  -2.5288   1.9588   H         1 RES1   0.0000
    86 H25     -7.8440  -4.4663   1.5903   H         1 RES1   0.0000
    87 H26    -10.1957  -4.3656   1.6873   H         1 RES1   0.0000
    88 H27    -11.2515  -2.3401   2.1721   H         1 RES1   0.0000
    89 H28     -9.9761  -0.4026   2.5406   H         1 RES1   0.0000
    90 H29     -6.8891   6.6428   5.4302   H         1 RES1   0.0000
    91 H30     -7.0562   6.8441   3.9175   H         1 RES1   0.0000
    92 H31     -7.9310   7.6492   4.9066   H         1 RES1   0.0000
    93 H32    -10.0466   6.6679   3.7042   H         1 RES1   0.0000
    94 H33     -9.0644   5.9257   2.7539   H         1 RES1   0.0000
    95 H34    -10.1448   5.1330   3.5490   H         1 RES1   0.0000
    96 H35     -9.8256   6.2653   6.2060   H         1 RES1   0.0000
    97 H36     -9.7469   4.7179   6.0508   H         1 RES1   0.0000
    98 H37     -8.5847   5.4853   6.7296   H         1 RES1   0.0000
    99 H38     -1.6287   0.2894   3.2387   H         1 RES1   0.0000
   100 H39     -1.9187  -0.4026   1.8812   H         1 RES1   0.0000
   101 H40     -0.4680   0.0000   2.2691   H         1 RES1   0.0000
   102 H41     -0.2731   1.3713   0.0970   H         1 RES1   0.0000
   103 H42     -1.6826   0.8807  -0.2521   H         1 RES1   0.0000
   104 H43     -1.3746   2.4030  -0.2327   H         1 RES1   0.0000
   105 H44      0.0961   2.5414   2.4048   H         1 RES1   0.0000
   106 H45     -1.0245   3.5604   2.0363   H         1 RES1   0.0000
   107 H46     -1.1279   2.7301   3.3357   H         1 RES1   0.0000
   108 C55      8.5085   2.9579   2.5801   C.ar      2 RES2   0.0000
   109 C56      9.0470   3.1159   3.8584   C.ar      2 RES2   0.0000
   110 C57     10.3788   2.7770   4.0979   C.ar      2 RES2   0.0000
   111 C58     11.1722   2.2897   3.0590   C.ar      2 RES2   0.0000
   112 C59     10.6335   2.1414   1.7807   C.ar      2 RES2   0.0000
   113 C60      9.3017   2.4803   1.5414   C.ar      2 RES2   0.0000
   114 C61      7.0563   3.3372   2.3193   C.3       2 RES2   0.0000
   115 H47      8.5046   3.4724   4.5575   H         2 RES2   0.0000
   116 H48     10.7499   2.9062   4.9648   H         2 RES2   0.0000
   117 H49     12.0829   2.0633   3.2194   H         2 RES2   0.0000
   118 H50     11.1691   1.7865   1.0860   H         2 RES2   0.0000
   119 H51      8.9239   2.3526   0.6788   H         2 RES2   0.0000
   120 H52      6.9244   4.2650   2.4630   H         2 RES2   0.0000
   121 H53      6.8293   3.1201   1.4351   H         2 RES2   0.0000
   122 H54      6.4909   2.8433   2.9091   H         2 RES2   0.0000
   123 C62      4.3618   0.3616   1.1671   C.ar      3 RES3   0.0000
   124 C63      3.7491   1.1454   2.1449   C.ar      3 RES3   0.0000
   125 C64      3.2374   2.4002   1.8137   C.ar      3 RES3   0.0000
   126 C65      3.3416   2.8712   0.4656   C.ar      3 RES3   0.0000
   127 C66      3.9512   2.0874  -0.4732   C.ar      3 RES3   0.0000
   128 C67      4.4628   0.8326  -0.1418   C.ar      3 RES3   0.0000
   129 C68      4.9333  -1.0065   1.3578   C.3       3 RES3   0.0000
   130 H55      3.6732   0.8303   3.0254   H         3 RES3   0.0000
   131 H56      2.8319   2.9440   2.4824   H         3 RES3   0.0000
   132 H57      2.9858   3.7366   0.2715   H         3 RES3   0.0000
   133 H58      4.0220   2.4156  -1.3576   H         3 RES3   0.0000
   134 H59      4.8633   0.3019  -0.8145   H         3 RES3   0.0000
   135 H60      4.5660  -1.2833   2.3660   H         3 RES3   0.0000
   136 H61      4.6643  -1.6355   0.8533   H         3 RES3   0.0000
   137 H62      5.8676  -0.9687   1.5709   H         3 RES3   0.0000
@<TRIPOS>BOND
     1     1     2    1
     2     2     3    1
     3     3     4    1
     4     4     5    2
     5     5     6    1
     6     6     2    1
     7     7     6    2
     8     8     1    1
     9     9     7    1
    10    10     9    1
    11    11    10    2
    12    12     8    1
    13    13    12    2
    14    14     1    1
    15    15    13    1
    16    16    15    2
    17    17    16    1
    18    18    14    1
    19    19    18    1
    20    20     1    1
    21    21    19    2
    22    22    21    1
    23    23    22    2
    24    24    20    2
    25    25     3    2
    26    26     1    1
    27    27    26    3
    28    28    27    1
    29    29    28    1
    30    30    28    1
    31    31    28    1
    32    32     1    1
    33    33    32    3
    34    34    33    1
    35    35    34    1
    36    36    34    1
    37    37    34    1
    38    38     7    1
    39    39    38   ar
    40    40    39   ar
    41    41    40   ar
    42    42    41   ar
    43    43    38   ar
    44    44    13    1
    45    45    44   ar
    46    46    45   ar
    47    47    46   ar
    48    48    47   ar
    49    49    44   ar
    50    50    19    1
    51    51    50   ar
    52    52    51   ar
    53    53    52   ar
    54    54    53   ar
    55    55    50   ar
    56    56    25    1
    57    57    56   ar
    58    58    57   ar
    59    59    58   ar
    60    60    59   ar
    61    61    56   ar
    62    62     4    1
    63    63     5    1
    64    64    10    1
    65    65    11    1
    66    66    16    1
    67    67    17    1
    68    68    22    1
    69    69    23    1
    70    70    39    1
    71    71    40    1
    72    72    41    1
    73    73    42    1
    74    74    43    1
    75    75    45    1
    76    76    46    1
    77    77    47    1
    78    78    48    1
    79    79    49    1
    80    80    51    1
    81    81    52    1
    82    82    53    1
    83    83    54    1
    84    84    55    1
    85    85    57    1
    86    86    58    1
    87    87    59    1
    88    88    60    1
    89    89    61    1
    90    90    29    1
    91    91    29    1
    92    92    29    1
    93    93    30    1
    94    94    30    1
    95    95    30    1
    96    96    31    1
    97    97    31    1
    98    98    31    1
    99    99    35    1
   100   100    35    1
   101   101    35    1
   102   102    36    1
   103   103    36    1
   104   104    36    1
   105   105    37    1
   106   106    37    1
   107   107    37    1
   108     8     9    2
   109    11    12    1
   110    14    15    1
   111    17    18    2
   112    20    21    1
   113    23    24    1
   114    24    25    1
   115    42    43   ar
   116    48    49   ar
   117    54    55   ar
   118    60    61   ar
   119   108   109   ar
   120   109   110   ar
   121   110   111   ar
   122   111   112   ar
   123   112   113   ar
   124   113   108   ar
   125   114   108    1
   126   115   109    1
   127   116   110    1
   128   117   111    1
   129   118   112    1
   130   119   113    1
   131   120   114    1
   132   121   114    1
   133   122   114    1
   134   123   124   ar
   135   124   125   ar
   136   125   126   ar
   137   126   127   ar
   138   127   128   ar
   139   128   123   ar
   140   129   123    1
   141   130   124    1
   142   131   125    1
   143   132   126    1
   144   133   127    1
   145   134   128    1
   146   135   129    1
   147   136   129    1
   148   137   129    1
@<TRIPOS>SUBSTRUCTURE
     1 RES1        1 GROUP             0 ****  ****    0  
     2 RES2      108 GROUP             0 ****  ****    0  
     3 RES3      123 GROUP             0 ****  ****    0  
@<TRIPOS>CRYSIN
   22.1130   12.5810   19.4550   90.0000   94.5500   90.0000    14     1
