@<TRIPOS>MOLECULE
BIWTOT
   147   154     5     0     0
SMALL
USER_CHARGES
****
Generated from the CSD

@<TRIPOS>ATOM
     1 Fe1      3.9879   8.1086   8.6688   Fe        1 RES1   2.0000
     2 N1       5.1975   9.2868   7.6668   N.ar      1 RES1   0.0000
     3 C1       5.3396  10.5417   9.7507   C.3       1 RES1   0.0000
     4 H1       5.7966  11.3589  10.1001   H         1 RES1   0.0000
     5 N2       3.9068  10.7345   9.8450   N.pl3     1 RES1   0.0000
     6 C2       5.7551  10.3315   8.3030   C.ar      1 RES1   0.0000
     7 N3       3.0876   9.7640   9.3326   N.2       1 RES1   0.0000
     8 C3       6.6571  11.1755   7.6879   C.ar      1 RES1   0.0000
     9 H2       7.0339  11.9040   8.1676   H         1 RES1   0.0000
    10 N4       5.7201   9.4046  10.5750   N.pl3     1 RES1   0.0000
    11 C4       7.0044  10.9530   6.3790   C.ar      1 RES1   0.0000
    12 H3       7.6294  11.5185   5.9410   H         1 RES1   0.0000
    13 N5       5.2575   8.1713  10.2025   N.2       1 RES1   0.0000
    14 C5       6.4299   9.8900   5.7137   C.ar      1 RES1   0.0000
    15 H4       6.6499   9.7151   4.8060   H         1 RES1   0.0000
    16 N6       2.7369   7.9802   7.1536   N.ar      1 RES1   0.0000
    17 C6       5.5326   9.0867   6.3773   C.ar      1 RES1   0.0000
    18 H5       5.1348   8.3633   5.9092   H         1 RES1   0.0000
    19 N7       4.8662   6.4798   7.9670   N.2       1 RES1   0.0000
    20 C7       3.1984  11.7375  10.4394   C.2       1 RES1   0.0000
    21 N8       4.0496   5.4222   7.6457   N.pl3     1 RES1   0.0000
    22 C8       1.8841  11.4132  10.2689   C.2       1 RES1   0.0000
    23 H6       1.1365  11.9209  10.5598   H         1 RES1   0.0000
    24 N9       2.7633   6.9770   9.7305   N.2       1 RES1   0.0000
    25 C9       1.8412  10.1871   9.5869   C.2       1 RES1   0.0000
    26 N10      2.2405   5.8681   9.1213   N.pl3     1 RES1   0.0000
    27 C10      0.6102   9.4315   9.2057   C.3       1 RES1   0.0000
    28 H7       0.1571   9.1105  10.0248   H         1 RES1   0.0000
    29 H8       0.8647   8.6418   8.6675   H         1 RES1   0.0000
    30 C11     -0.3560  10.2958   8.4017   C.3       1 RES1   0.0000
    31 H9      -1.1712   9.7864   8.2128   H         1 RES1   0.0000
    32 H10      0.0663  10.5624   7.5575   H         1 RES1   0.0000
    33 H11     -0.5843  11.0973   8.9182   H         1 RES1   0.0000
    34 C12      3.8453  12.9076  11.1131   C.3       1 RES1   0.0000
    35 H12      4.4473  13.3576  10.4695   H         1 RES1   0.0000
    36 H13      4.3963  12.5798  11.8670   H         1 RES1   0.0000
    37 C13      2.8454  13.9061  11.6313   C.3       1 RES1   0.0000
    38 H14      2.3435  14.2865  10.8807   H         1 RES1   0.0000
    39 H15      3.3174  14.6227  12.1060   H         1 RES1   0.0000
    40 H16      2.2273  13.4595  12.2464   H         1 RES1   0.0000
    41 C14      6.4360   9.3551  11.7366   C.2       1 RES1   0.0000
    42 C15      6.4697   8.0322  12.0876   C.2       1 RES1   0.0000
    43 H17      6.9142   7.6620  12.8415   H         1 RES1   0.0000
    44 C16      5.7277   7.3258  11.1331   C.2       1 RES1   0.0000
    45 C17      5.4427   5.8569  11.1465   C.3       1 RES1   0.0000
    46 H18      5.0759   5.5954  10.2655   H         1 RES1   0.0000
    47 H19      4.7480   5.6735  11.8285   H         1 RES1   0.0000
    48 C18      6.6464   5.0095  11.4424   C.3       1 RES1   0.0000
    49 H20      7.3104   5.1267  10.7319   H         1 RES1   0.0000
    50 H21      6.3808   4.0670  11.4892   H         1 RES1   0.0000
    51 H22      7.0354   5.2812  12.2999   H         1 RES1   0.0000
    52 C19      6.9841  10.5556  12.4370   C.3       1 RES1   0.0000
    53 H23      6.2388  11.0566  12.8549   H         1 RES1   0.0000
    54 H24      7.4142  11.1517  11.7734   H         1 RES1   0.0000
    55 C20      7.9927  10.1939  13.5002   C.3       1 RES1   0.0000
    56 H25      8.7389   9.7100  13.0906   H         1 RES1   0.0000
    57 H26      7.5650   9.6268  14.1755   H         1 RES1   0.0000
    58 H27      8.3262  11.0124  13.9264   H         1 RES1   0.0000
    59 C21      2.6075   5.6219   7.7347   C.3       1 RES1   0.0000
    60 H28      2.1466   4.7922   7.4204   H         1 RES1   0.0000
    61 C22      2.1662   6.7807   6.8738   C.ar      1 RES1   0.0000
    62 C23      1.2078   6.6227   5.9092   C.ar      1 RES1   0.0000
    63 H29      0.8264   5.7686   5.7454   H         1 RES1   0.0000
    64 C24      0.8009   7.7231   5.1737   C.ar      1 RES1   0.0000
    65 H30      0.1297   7.6433   4.5067   H         1 RES1   0.0000
    66 C25      1.3923   8.9356   5.4328   C.ar      1 RES1   0.0000
    67 H31      1.1365   9.7049   4.9364   H         1 RES1   0.0000
    68 C26      2.3514   9.0358   6.4074   C.ar      1 RES1   0.0000
    69 H32      2.7580   9.8798   6.5645   H         1 RES1   0.0000
    70 C27      4.7590   4.3177   7.3034   C.2       1 RES1   0.0000
    71 C28      6.0824   4.6767   7.3970   C.2       1 RES1   0.0000
    72 H33      6.8326   4.1214   7.2215   H         1 RES1   0.0000
    73 C29      6.1114   6.0131   7.8015   C.2       1 RES1   0.0000
    74 C30      7.3393   6.8384   8.0606   C.3       1 RES1   0.0000
    75 H34      7.8116   6.4801   8.8530   H         1 RES1   0.0000
    76 H35      7.0714   7.7707   8.2612   H         1 RES1   0.0000
    77 C31      8.2857   6.8316   6.8621   C.3       1 RES1   0.0000
    78 H36      7.8130   7.1611   6.0697   H         1 RES1   0.0000
    79 H37      8.6000   5.9180   6.6983   H         1 RES1   0.0000
    80 H38      9.0542   7.4124   7.0493   H         1 RES1   0.0000
    81 C32      4.1380   3.0142   6.9239   C.3       1 RES1   0.0000
    82 H39      3.7435   3.0974   6.0196   H         1 RES1   0.0000
    83 H40      3.4050   2.8087   7.5575   H         1 RES1   0.0000
    84 C33      5.1369   1.8680   6.9256   C.3       1 RES1   0.0000
    85 H41      5.8347   2.0412   6.2603   H         1 RES1   0.0000
    86 H42      4.6758   1.0325   6.7049   H         1 RES1   0.0000
    87 H43      5.5436   1.7915   7.8149   H         1 RES1   0.0000
    88 C34      1.3939   5.1878   9.9546   C.2       1 RES1   0.0000
    89 C35      1.4022   5.8739  11.1315   C.2       1 RES1   0.0000
    90 H44      0.9146   5.6497  11.9155   H         1 RES1   0.0000
    91 C36      2.2587   6.9709  10.9793   C.2       1 RES1   0.0000
    92 C37      2.6160   7.9948  12.0224   C.3       1 RES1   0.0000
    93 H45      2.9401   8.8150  11.5728   H         1 RES1   0.0000
    94 H46      3.3534   7.6433  12.5808   H         1 RES1   0.0000
    95 C38      1.4463   8.3481  12.9117   C.3       1 RES1   0.0000
    96 H47      0.7143   8.6996  12.3635   H         1 RES1   0.0000
    97 H48      1.7235   9.0290  13.5603   H         1 RES1   0.0000
    98 H49      1.1433   7.5465  13.3882   H         1 RES1   0.0000
    99 C39      0.6636   3.9533   9.5334   C.3       1 RES1   0.0000
   100 H50      1.3092   3.2961   9.1706   H         1 RES1   0.0000
   101 H51      0.0193   4.1808   8.8162   H         1 RES1   0.0000
   102 C40     -0.0838   3.3368  10.7119   C.3       1 RES1   0.0000
   103 H52     -0.5279   2.5132  10.4210   H         1 RES1   0.0000
   104 H53     -0.7543   3.9719  11.0412   H         1 RES1   0.0000
   105 H54      0.5511   3.1314  11.4290   H         1 RES1   0.0000
   106 S1      10.0184   2.5379   6.3297   S.o2      2 RES2   0.0000
   107 O1      10.5430   1.8866   5.2105   O.2       2 RES2   0.0000
   108 O2      10.5462   3.8069   6.5996   O.2       2 RES2   0.0000
   109 O3       8.6152   2.4148   6.4659   O.3       2 RES2  -1.0000
   110 F1      12.0208   1.5487   7.6778   F         2 RES2   0.0000
   111 F2      10.2747   0.4059   7.8199   F         2 RES2   0.0000
   112 F3      10.3729   2.1617   8.8898   F         2 RES2   0.0000
   113 C41     10.7104   1.5521   7.7447   C.3       2 RES2   0.0000
   114 F4      -0.2141   0.3245   6.2603   F         3 RES3   0.0000
   115 S2      -0.3843   2.8992   5.8118   S.o2      3 RES3   0.0000
   116 F5      -2.1463   1.1091   6.5346   F         3 RES3   0.0000
   117 F6      -0.6435   1.4789   7.9950   F         3 RES3   0.0000
   118 O4      -0.6124   2.5625   4.4422   O.2       3 RES3   0.0000
   119 O5       0.9948   3.0842   6.1523   O.2       3 RES3   0.0000
   120 O6      -1.2495   3.8864   6.3890   O.3       3 RES3  -1.0000
   121 C42     -0.8619   1.3772   6.7016   C.3       3 RES3   0.0000
   122 O7       2.9746  12.3642   6.6364   O.3       4 RES4   0.0000
   123 C43      3.7722  13.4221   7.0292   C.3       4 RES4   0.0000
   124 H55      4.2643  13.7923   6.2536   H         4 RES4   0.0000
   125 H56      4.4277  13.1283   7.7096   H         4 RES4   0.0000
   126 C44      2.8334  14.4648   7.6110   C.3       4 RES4   0.0000
   127 H57      2.8094  14.4138   8.5989   H         4 RES4   0.0000
   128 H58      3.0983  15.3784   7.3385   H         4 RES4   0.0000
   129 C45      1.5375  14.0878   7.0259   C.3       4 RES4   0.0000
   130 H59      0.8750  13.9078   7.7397   H         4 RES4   0.0000
   131 H60      1.1932  14.8180   6.4525   H         4 RES4   0.0000
   132 C46      1.7532  12.9687   6.2887   C.3       4 RES4   0.0000
   133 H61      1.7659  13.2047   5.3275   H         4 RES4   0.0000
   134 H62      1.0148  12.3285   6.4375   H         4 RES4   0.0000
   135 O8       4.1522   6.9794   4.1824   O.3       5 RES5   0.0000
   136 C47      5.0102   5.9995   3.7512   C.3       5 RES5   0.0000
   137 H63      4.5865   5.1114   3.8565   H         5 RES5   0.0000
   138 H64      5.8379   6.0148   4.2944   H         5 RES5   0.0000
   139 C48      5.3416   6.2271   2.3453   C.3       5 RES5   0.0000
   140 H65      5.0486   5.4612   1.7887   H         5 RES5   0.0000
   141 H66      6.3154   6.3510   2.2300   H         5 RES5   0.0000
   142 C49      4.6018   7.4684   1.9658   C.3       5 RES5   0.0000
   143 H67      5.2319   8.2003   1.7502   H         5 RES5   0.0000
   144 H68      4.0212   7.3054   1.1802   H         5 RES5   0.0000
   145 C50      3.8355   7.7911   3.0858   C.3       5 RES5   0.0000
   146 H69      2.8769   7.6858   2.8669   H         5 RES5   0.0000
   147 H70      3.9910   8.7386   3.3249   H         5 RES5   0.0000
@<TRIPOS>BOND
     1     1     2    1
     2     2     6   ar
     3     3     4    1
     4     5     3    1
     5     6     3    1
     6     7     1    1
     7     8     6   ar
     8     9     8    1
     9    10     3    1
    10    11     8   ar
    11    12    11    1
    12    13     1    1
    13    14    11   ar
    14    15    14    1
    15    16     1    1
    16    17     2   ar
    17    18    17    1
    18    19     1    1
    19    20     5    1
    20    21    19    1
    21    22    20    2
    22    23    22    1
    23    24     1    1
    24    25     7    2
    25    26    24    1
    26    27    25    1
    27    28    27    1
    28    29    27    1
    29    30    27    1
    30    31    30    1
    31    32    30    1
    32    33    30    1
    33    34    20    1
    34    35    34    1
    35    36    34    1
    36    37    34    1
    37    38    37    1
    38    39    37    1
    39    40    37    1
    40    41    10    1
    41    42    41    2
    42    43    42    1
    43    44    13    2
    44    45    44    1
    45    46    45    1
    46    47    45    1
    47    48    45    1
    48    49    48    1
    49    50    48    1
    50    51    48    1
    51    52    41    1
    52    53    52    1
    53    54    52    1
    54    55    52    1
    55    56    55    1
    56    57    55    1
    57    58    55    1
    58    59    21    1
    59    60    59    1
    60    61    16   ar
    61    62    61   ar
    62    63    62    1
    63    64    62   ar
    64    65    64    1
    65    66    64   ar
    66    67    66    1
    67    68    16   ar
    68    69    68    1
    69    70    21    1
    70    71    70    2
    71    72    71    1
    72    73    19    2
    73    74    73    1
    74    75    74    1
    75    76    74    1
    76    77    74    1
    77    78    77    1
    78    79    77    1
    79    80    77    1
    80    81    70    1
    81    82    81    1
    82    83    81    1
    83    84    81    1
    84    85    84    1
    85    86    84    1
    86    87    84    1
    87    88    26    1
    88    89    88    2
    89    90    89    1
    90    91    24    2
    91    92    91    1
    92    93    92    1
    93    94    92    1
    94    95    92    1
    95    96    95    1
    96    97    95    1
    97    98    95    1
    98    99    88    1
    99   100    99    1
   100   101    99    1
   101   102    99    1
   102   103   102    1
   103   104   102    1
   104   105   102    1
   105     5     7    1
   106    10    13    1
   107    14    17   ar
   108    22    25    1
   109    26    59    1
   110    42    44    1
   111    59    61    1
   112    66    68   ar
   113    71    73    1
   114    89    91    1
   115   106   107    2
   116   108   106    2
   117   109   106    1
   118   110   113    1
   119   111   113    1
   120   112   113    1
   121   113   106    1
   122   114   121    1
   123   115   118    2
   124   116   121    1
   125   117   121    1
   126   119   115    2
   127   120   115    1
   128   121   115    1
   129   122   123    1
   130   123   124    1
   131   125   123    1
   132   126   123    1
   133   127   126    1
   134   128   126    1
   135   129   126    1
   136   130   129    1
   137   131   129    1
   138   132   122    1
   139   133   132    1
   140   134   132    1
   141   129   132    1
   142   135   136    1
   143   136   137    1
   144   138   136    1
   145   139   136    1
   146   140   139    1
   147   141   139    1
   148   142   139    1
   149   143   142    1
   150   144   142    1
   151   145   135    1
   152   146   145    1
   153   147   145    1
   154   142   145    1
@<TRIPOS>SUBSTRUCTURE
     1 RES1        1 GROUP             0 ****  ****    0  
     2 RES2      106 GROUP             0 ****  ****    0  
     3 RES3      114 GROUP             0 ****  ****    0  
     4 RES4      122 GROUP             0 ****  ****    0  
     5 RES5      135 GROUP             0 ****  ****    0  
@<TRIPOS>CRYSIN
   19.8147   16.9814   16.8541   90.0000   97.3290   90.0000    14     1
