@<TRIPOS>MOLECULE
BIXFIA
   151   166     3     0     0
SMALL
USER_CHARGES
****
Generated from the CSD

@<TRIPOS>ATOM
     1 Fe1      4.2843   4.5385  10.5219   Fe        1 RES1   2.0000
     2 C1       0.0385   2.3473   9.0762   C.ar      1 RES1   0.0000
     3 H1       0.1020   1.5122   9.5244   H         1 RES1   0.0000
     4 C2      -0.7202   2.4544   7.9377   C.ar      1 RES1   0.0000
     5 H2      -1.1736   1.6956   7.5905   H         1 RES1   0.0000
     6 C3      -0.8159   3.6744   7.3001   C.ar      1 RES1   0.0000
     7 H3      -1.3540   3.7579   6.5215   H         1 RES1   0.0000
     8 C4      -0.1371   4.7727   7.7822   C.ar      1 RES1   0.0000
     9 H4      -0.2042   5.6060   7.3295   H         1 RES1   0.0000
    10 C5       0.6479   4.6687   8.9282   C.ar      1 RES1   0.0000
    11 C6       1.3442   5.8784   9.4080   C.2       1 RES1   0.0000
    12 C7       0.8245   7.1792   9.3965   C.2       1 RES1   0.0000
    13 H5      -0.0309   7.4450   9.0783   H         1 RES1   0.0000
    14 C8       1.7801   7.9927   9.9303   C.2       1 RES1   0.0000
    15 C9       1.7601   9.4473  10.1692   C.ar      1 RES1   0.0000
    16 C10      1.3324  10.2879   9.1530   C.ar      1 RES1   0.0000
    17 H6       1.0928   9.9248   8.3081   H         1 RES1   0.0000
    18 C11      1.2567  11.6621   9.3687   C.ar      1 RES1   0.0000
    19 H7       0.9552  12.2358   8.6742   H         1 RES1   0.0000
    20 C12      1.6170  12.1922  10.5871   C.ar      1 RES1   0.0000
    21 H8       1.5722  13.1308  10.7281   H         1 RES1   0.0000
    22 C13      2.0450  11.3699  11.5993   C.ar      1 RES1   0.0000
    23 H9       2.2943  11.7402  12.4369   H         1 RES1   0.0000
    24 C14      2.1124   9.9974  11.4053   C.ar      1 RES1   0.0000
    25 H10      2.3984   9.4310  12.1128   H         1 RES1   0.0000
    26 C15      4.1832   7.6165  10.5934   C.3       1 RES1   0.0000
    27 H11      4.1542   8.6159  10.6418   H         1 RES1   0.0000
    28 C16      5.5186   8.1116   8.5162   C.2       1 RES1   0.0000
    29 C17      5.3280   9.5710   8.5307   C.ar      1 RES1   0.0000
    30 C18      4.8805  10.1971   7.3640   C.ar      1 RES1   0.0000
    31 H12      4.7098   9.6852   6.5825   H         1 RES1   0.0000
    32 C19      4.6880  11.5732   7.3527   C.ar      1 RES1   0.0000
    33 H13      4.4186  12.0052   6.5530   H         1 RES1   0.0000
    34 C20      4.8880  12.3120   8.4975   C.ar      1 RES1   0.0000
    35 H14      4.7082  13.2452   8.4933   H         1 RES1   0.0000
    36 C21      5.3447  11.7075   9.6443   C.ar      1 RES1   0.0000
    37 H15      5.4985  12.2249  10.4272   H         1 RES1   0.0000
    38 C22      5.5823  10.3387   9.6549   C.ar      1 RES1   0.0000
    39 H16      5.9215   9.9266  10.4398   H         1 RES1   0.0000
    40 C23      6.1051   7.3039   7.5724   C.2       1 RES1   0.0000
    41 H17      6.4967   7.5829   6.7529   H         1 RES1   0.0000
    42 C24      6.0137   5.9955   8.0490   C.2       1 RES1   0.0000
    43 C25      6.5322   4.7809   7.3769   C.ar      1 RES1   0.0000
    44 C26      6.5130   4.7400   5.9821   C.ar      1 RES1   0.0000
    45 H18      6.1645   5.4734   5.4882   H         1 RES1   0.0000
    46 C27      7.0028   3.6326   5.3220   C.ar      1 RES1   0.0000
    47 H19      7.0053   3.6145   4.3729   H         1 RES1   0.0000
    48 C28      7.4896   2.5506   6.0248   C.ar      1 RES1   0.0000
    49 H20      7.8126   1.7864   5.5640   H         1 RES1   0.0000
    50 C29      7.5047   2.5888   7.3990   C.ar      1 RES1   0.0000
    51 H21      7.8290   1.8426   7.8893   H         1 RES1   0.0000
    52 C30      7.0444   3.7107   8.0678   C.ar      1 RES1   0.0000
    53 H22      7.0851   3.7397   9.0172   H         1 RES1   0.0000
    54 N1       2.8283   7.1830  10.2590   N.pl3     1 RES1   0.0000
    55 N2       2.5844   5.8748   9.9404   N.2       1 RES1   0.0000
    56 N3       5.1065   7.2847   9.5160   N.pl3     1 RES1   0.0000
    57 N4       5.3798   5.9712   9.2380   N.2       1 RES1   0.0000
    58 N5       4.6878   5.8125  12.1603   N.ar      1 RES1   0.0000
    59 C31      4.6523   7.1385  11.9512   C.ar      1 RES1   0.0000
    60 C32      5.0195   8.0428  12.9167   C.ar      1 RES1   0.0000
    61 H23      4.9793   8.9753  12.7420   H         1 RES1   0.0000
    62 C33      5.4468   7.5793  14.1475   C.ar      1 RES1   0.0000
    63 H24      5.7113   8.1875  14.8274   H         1 RES1   0.0000
    64 C34      5.4850   6.2159  14.3729   C.ar      1 RES1   0.0000
    65 H25      5.7755   5.8710  15.2083   H         1 RES1   0.0000
    66 C35      5.0937   5.3718  13.3615   C.ar      1 RES1   0.0000
    67 H26      5.1108   4.4350  13.5206   H         1 RES1   0.0000
    68 C36      0.7118   3.4500   9.5831   C.ar      1 RES1   0.0000
    69 H27      1.2181   3.3676  10.3830   H         1 RES1   0.0000
    70 C1F      8.5301   6.7297  11.9676   C.ar      1 RES1   0.0000
    71 H1F      8.4665   7.5648  11.5193   H         1 RES1   0.0000
    72 C2F      9.2888   6.6226  13.1060   C.ar      1 RES1   0.0000
    73 H2F      9.7422   7.3814  13.4533   H         1 RES1   0.0000
    74 C3F      9.3844   5.4026  13.7437   C.ar      1 RES1   0.0000
    75 H3F      9.9226   5.3191  14.5223   H         1 RES1   0.0000
    76 C4F      8.7057   4.3043  13.2616   C.ar      1 RES1   0.0000
    77 H4F      8.7727   3.4710  13.7142   H         1 RES1   0.0000
    78 C5F      7.9206   4.4083  12.1155   C.ar      1 RES1   0.0000
    79 C6F      7.2243   3.1986  11.6357   C.2       1 RES1   0.0000
    80 C7F      7.7441   1.8978  11.6473   C.2       1 RES1   0.0000
    81 H5F      8.5995   1.6320  11.9655   H         1 RES1   0.0000
    82 C8F      6.7885   1.0843  11.1134   C.2       1 RES1   0.0000
    83 C9F      6.8084  -0.3703  10.8746   C.ar      1 RES1   0.0000
    84 C10F     7.2362  -1.2109  11.8908   C.ar      1 RES1   0.0000
    85 H6F      7.4757  -0.8478  12.7357   H         1 RES1   0.0000
    86 C11F     7.3119  -2.5851  11.6751   C.ar      1 RES1   0.0000
    87 H7F      7.6134  -3.1588  12.3695   H         1 RES1   0.0000
    88 C12F     6.9516  -3.1152  10.4566   C.ar      1 RES1   0.0000
    89 H8F      6.9963  -4.0538  10.3156   H         1 RES1   0.0000
    90 C13F     6.5235  -2.2929   9.4444   C.ar      1 RES1   0.0000
    91 H9F      6.2743  -2.6632   8.6069   H         1 RES1   0.0000
    92 C14F     6.4562  -0.9204   9.6385   C.ar      1 RES1   0.0000
    93 H10F     6.1701  -0.3540   8.9310   H         1 RES1   0.0000
    94 C15F     4.3854   1.4605  10.4503   C.3       1 RES1   0.0000
    95 H11F     4.4144   0.4611  10.4019   H         1 RES1   0.0000
    96 C16F     3.0500   0.9654  12.5276   C.2       1 RES1   0.0000
    97 C17F     3.2405  -0.4940  12.5130   C.ar      1 RES1   0.0000
    98 C18F     3.6880  -1.1201  13.6797   C.ar      1 RES1   0.0000
    99 H12F     3.8588  -0.6082  14.4613   H         1 RES1   0.0000
   100 C19F     3.8806  -2.4962  13.6911   C.ar      1 RES1   0.0000
   101 H13F     4.1500  -2.9282  14.4907   H         1 RES1   0.0000
   102 C20F     3.6806  -3.2350  12.5463   C.ar      1 RES1   0.0000
   103 H14F     3.8603  -4.1682  12.5505   H         1 RES1   0.0000
   104 C21F     3.2239  -2.6305  11.3994   C.ar      1 RES1   0.0000
   105 H15F     3.0701  -3.1479  10.6166   H         1 RES1   0.0000
   106 C22F     2.9863  -1.2617  11.3889   C.ar      1 RES1   0.0000
   107 H16F     2.6470  -0.8496  10.6039   H         1 RES1   0.0000
   108 C23F     2.4634   1.7731  13.4714   C.2       1 RES1   0.0000
   109 H17F     2.0719   1.4941  14.2908   H         1 RES1   0.0000
   110 C24F     2.5549   3.0815  12.9947   C.2       1 RES1   0.0000
   111 C25F     2.0364   4.2961  13.6669   C.ar      1 RES1   0.0000
   112 C26F     2.0556   4.3370  15.0616   C.ar      1 RES1   0.0000
   113 H18F     2.4041   3.6036  15.5555   H         1 RES1   0.0000
   114 C27F     1.5657   5.4444  15.7218   C.ar      1 RES1   0.0000
   115 H19F     1.5633   5.4625  16.6709   H         1 RES1   0.0000
   116 C28F     1.0790   6.5264  15.0189   C.ar      1 RES1   0.0000
   117 H20F     0.7560   7.2906  15.4798   H         1 RES1   0.0000
   118 C29F     1.0639   6.4882  13.6448   C.ar      1 RES1   0.0000
   119 H21F     0.7396   7.2344  13.1544   H         1 RES1   0.0000
   120 C30F     1.5241   5.3663  12.9760   C.ar      1 RES1   0.0000
   121 H22F     1.4834   5.3373  12.0265   H         1 RES1   0.0000
   122 N1F      5.7403   1.8940  10.7847   N.pl3     1 RES1   0.0000
   123 N2F      5.9842   3.2022  11.1033   N.2       1 RES1   0.0000
   124 N3F      3.4621   1.7923  11.5278   N.pl3     1 RES1   0.0000
   125 N4F      3.1888   3.1058  11.8058   N.2       1 RES1   0.0000
   126 N5F      3.8808   3.2645   8.8834   N.ar      1 RES1   0.0000
   127 C31F     3.9163   1.9385   9.0926   C.ar      1 RES1   0.0000
   128 C32F     3.5491   1.0342   8.1271   C.ar      1 RES1   0.0000
   129 H23F     3.5893   0.1017   8.3018   H         1 RES1   0.0000
   130 C33F     3.1218   1.4977   6.8962   C.ar      1 RES1   0.0000
   131 H24F     2.8572   0.8895   6.2163   H         1 RES1   0.0000
   132 C34F     3.0835   2.8611   6.6709   C.ar      1 RES1   0.0000
   133 H25F     2.7930   3.2060   5.8354   H         1 RES1   0.0000
   134 C35F     3.4749   3.7052   7.6822   C.ar      1 RES1   0.0000
   135 H26F     3.4577   4.6420   7.5231   H         1 RES1   0.0000
   136 C36F     7.8567   5.6270  11.4606   C.ar      1 RES1   0.0000
   137 H27F     7.3505   5.7094  10.6608   H         1 RES1   0.0000
   138 C37      3.3339   6.9112   4.7706   C.2       2 RES2   0.0000
   139 C38      1.9955   7.4413   5.2252   C.3       2 RES2   0.0000
   140 F1       1.9612   8.2982   6.1258   F         2 RES2   0.0000
   141 F2       1.1717   6.4955   5.4987   F         2 RES2   0.0000
   142 F3       1.3513   8.0803   4.1793   F         2 RES2   0.0000
   143 O1       4.0644   7.7608   4.2887   O.co2     2 RES2   0.0000
   144 O2       3.5101   5.7131   4.9684   O.co2     2 RES2   0.0000
   145 C39     11.5010   6.8931   7.3737   C.2       3 RES3   0.0000
   146 C40     10.0270   6.8622   7.7946   C.3       3 RES3   0.0000
   147 O3      12.2633   6.2976   8.0240   O.co2     3 RES3   0.0000
   148 O4      11.7348   7.5539   6.4015   O.co2     3 RES3  -1.0000
   149 F4       9.7323   7.8861   8.4954   F         3 RES3   0.0000
   150 F5       9.7210   5.8946   8.5480   F         3 RES3   0.0000
   151 F6       9.2512   6.7678   6.8098   F         3 RES3   0.0000
@<TRIPOS>BOND
     1     1    55    1
     2     2     3    1
     3     4     2   ar
     4     5     4    1
     5     6     4   ar
     6     7     6    1
     7     8     6   ar
     8     9     8    1
     9    10     8   ar
    10    11    10    1
    11    12    11    1
    12    13    12    1
    13    14    12    2
    14    15    14    1
    15    16    15   ar
    16    17    16    1
    17    18    16   ar
    18    19    18    1
    19    20    18   ar
    20    21    20    1
    21    22    20   ar
    22    23    22    1
    23    24    15   ar
    24    25    24    1
    25    26    27    1
    26    28    29    1
    27    29    30   ar
    28    30    31    1
    29    32    30   ar
    30    33    32    1
    31    34    32   ar
    32    35    34    1
    33    36    34   ar
    34    37    36    1
    35    38    29   ar
    36    39    38    1
    37    40    28    2
    38    41    40    1
    39    42    40    1
    40    43    42    1
    41    44    43   ar
    42    45    44    1
    43    46    44   ar
    44    47    46    1
    45    48    46   ar
    46    49    48    1
    47    50    48   ar
    48    51    50    1
    49    52    43   ar
    50    53    52    1
    51    54    14    1
    52    55    11    2
    53    56    26    1
    54    57     1    1
    55    58     1    1
    56    59    26    1
    57    60    59   ar
    58    61    60    1
    59    62    60   ar
    60    63    62    1
    61    64    62   ar
    62    65    64    1
    63    66    58   ar
    64    67    66    1
    65    68     2   ar
    66    69    68    1
    67    70    71    1
    68    72    70   ar
    69    73    72    1
    70    74    72   ar
    71    75    74    1
    72    76    74   ar
    73    77    76    1
    74    78    76   ar
    75    79    78    1
    76    80    79    1
    77    81    80    1
    78    82    80    2
    79    83    82    1
    80    84    83   ar
    81    85    84    1
    82    86    84   ar
    83    87    86    1
    84    88    86   ar
    85    89    88    1
    86    90    88   ar
    87    91    90    1
    88    92    83   ar
    89    93    92    1
    90    94    95    1
    91    96    97    1
    92    97    98   ar
    93    98    99    1
    94   100    98   ar
    95   101   100    1
    96   102   100   ar
    97   103   102    1
    98   104   102   ar
    99   105   104    1
   100   106    97   ar
   101   107   106    1
   102   108    96    2
   103   109   108    1
   104   110   108    1
   105   111   110    1
   106   112   111   ar
   107   113   112    1
   108   114   112   ar
   109   115   114    1
   110   116   114   ar
   111   117   116    1
   112   118   116   ar
   113   119   118    1
   114   120   111   ar
   115   121   120    1
   116   122    82    1
   117   123     1    1
   118   124    94    1
   119   125     1    1
   120   126     1    1
   121   127    94    1
   122   128   127   ar
   123   129   128    1
   124   130   128   ar
   125   131   130    1
   126   132   130   ar
   127   133   132    1
   128   134   126   ar
   129   135   134    1
   130   136    70   ar
   131   137   136    1
   132    10    68   ar
   133    22    24   ar
   134    26    54    1
   135    28    56    1
   136    36    38   ar
   137    42    57    2
   138    50    52   ar
   139    54    55    1
   140    56    57    1
   141    58    59   ar
   142    64    66   ar
   143    78   136   ar
   144    79   123    2
   145    90    92   ar
   146    94   122    1
   147    96   124    1
   148   104   106   ar
   149   110   125    2
   150   118   120   ar
   151   122   123    1
   152   124   125    1
   153   126   127   ar
   154   132   134   ar
   155   138   139    1
   156   139   140    1
   157   141   139    1
   158   142   139    1
   159   143   138    2
   160   144   138    1
   161   145   146    1
   162   146   149    1
   163   147   145    2
   164   148   145    1
   165   150   146    1
   166   151   146    1
@<TRIPOS>SUBSTRUCTURE
     1 RES1        1 GROUP             0 ****  ****    0  
     2 RES2      138 GROUP             0 ****  ****    0  
     3 RES3      145 GROUP             0 ****  ****    0  
@<TRIPOS>CRYSIN
   18.7400   18.1540   21.0590   90.0000   92.1810   90.0000    15     1
