@<TRIPOS>MOLECULE
BODFUX
   179   195     4     0     0
SMALL
USER_CHARGES
****
Generated from the CSD

@<TRIPOS>ATOM
     1 Fe1      1.4521   4.4086   5.1286   Fe        1 RES1   2.0000
     2 N1       0.9815   4.9008   3.1671   N.3       1 RES1   0.0000
     3 N2      -0.4471   4.2242   5.2360   N.ar      1 RES1   0.0000
     4 N3       1.4013   3.3857   6.9486   N.3       1 RES1   0.0000
     5 N4       1.4379   2.6214   4.4414   N.ar      1 RES1   0.0000
     6 C1      -0.4114   5.4328   3.2204   C.3       1 RES1   0.0000
     7 H1      -0.4029   6.3749   3.5225   H         1 RES1   0.0000
     8 H2      -0.8230   5.3971   2.3207   H         1 RES1   0.0000
     9 C2      -1.1928   4.5963   4.1739   C.ar      1 RES1   0.0000
    10 C3      -2.5024   4.1890   4.0412   C.ar      1 RES1   0.0000
    11 H3      -3.0304   4.4726   3.3038   H         1 RES1   0.0000
    12 C4      -3.0229   3.3582   5.0103   C.ar      1 RES1   0.0000
    13 H4      -3.9153   3.0433   4.9281   H         1 RES1   0.0000
    14 C5      -2.2637   2.9792   6.0989   C.ar      1 RES1   0.0000
    15 H5      -2.6252   2.4072   6.7668   H         1 RES1   0.0000
    16 C6      -0.9666   3.4481   6.1989   C.ar      1 RES1   0.0000
    17 C7      -0.0387   3.1904   7.3463   C.3       1 RES1   0.0000
    18 H6      -0.1661   2.2627   7.6692   H         1 RES1   0.0000
    19 H7      -0.2586   3.8046   8.0896   H         1 RES1   0.0000
    20 C8       2.0115   2.0484   6.6579   C.3       1 RES1   0.0000
    21 H8       2.9993   2.1155   6.6840   H         1 RES1   0.0000
    22 H9       1.7266   1.3927   7.3423   H         1 RES1   0.0000
    23 C9       1.5691   1.5973   5.3069   C.ar      1 RES1   0.0000
    24 C10      1.3250   0.2953   4.9132   C.ar      1 RES1   0.0000
    25 H10      1.4173  -0.4226   5.5290   H         1 RES1   0.0000
    26 C11      0.9438   0.0599   3.6040   C.ar      1 RES1   0.0000
    27 H11      0.7668  -0.8263   3.3123   H         1 RES1   0.0000
    28 C12      0.8207   1.1160   2.7201   C.ar      1 RES1   0.0000
    29 H12      0.5678   0.9601   1.8175   H         1 RES1   0.0000
    30 C13      1.0708   2.4070   3.1666   C.ar      1 RES1   0.0000
    31 C14      0.9998   3.6456   2.3224   C.3       1 RES1   0.0000
    32 H13      0.1817   3.6145   1.7666   H         1 RES1   0.0000
    33 H14      1.7812   3.6721   1.7156   H         1 RES1   0.0000
    34 C15      1.8501   5.9381   2.5326   C.3       1 RES1   0.0000
    35 H15      1.5421   6.1087   1.6179   H         1 RES1   0.0000
    36 H16      2.7767   5.6199   2.5118   H         1 RES1   0.0000
    37 H17      1.8026   6.7667   3.0533   H         1 RES1   0.0000
    38 C16      2.1449   3.9843   8.0949   C.3       1 RES1   0.0000
    39 H18      2.0714   3.3964   8.8752   H         1 RES1   0.0000
    40 H19      1.7626   4.8610   8.3105   H         1 RES1   0.0000
    41 H20      3.0886   4.0897   7.8540   H         1 RES1   0.0000
    42 N5       1.5481   6.2322   5.8462   N.2       1 RES1   0.0000
    43 N6       3.4006   4.6215   5.0387   N.2       1 RES1   0.0000
    44 C17      2.7711   6.6635   5.9993   C.2       1 RES1   0.0000
    45 C18      3.4125   7.8329   6.5972   C.ar      1 RES1   0.0000
    46 C19      2.9865   8.9356   7.3057   C.ar      1 RES1   0.0000
    47 H21      2.0609   9.0894   7.4590   H         1 RES1   0.0000
    48 C20      3.9627   9.8340   7.7994   C.ar      1 RES1   0.0000
    49 H22      3.6784  10.5801   8.3147   H         1 RES1   0.0000
    50 C21      5.3022   9.6680   7.5631   C.ar      1 RES1   0.0000
    51 H23      5.9234  10.2975   7.9092   H         1 RES1   0.0000
    52 C22      5.7678   8.5632   6.8068   C.ar      1 RES1   0.0000
    53 C23      7.1053   8.2764   6.4269   C.ar      1 RES1   0.0000
    54 H24      7.8028   8.8694   6.6819   H         1 RES1   0.0000
    55 C24      7.4035   7.1525   5.6950   C.ar      1 RES1   0.0000
    56 H25      8.3037   7.0065   5.4292   H         1 RES1   0.0000
    57 C25      6.4201   6.2022   5.3205   C.ar      1 RES1   0.0000
    58 H26      6.6555   5.4202   4.8347   H         1 RES1   0.0000
    59 C26      5.1100   6.4471   5.6844   C.ar      1 RES1   0.0000
    60 C27      3.8202   5.7729   5.5094   C.2       1 RES1   0.0000
    61 C28      4.8031   7.6446   6.3764   C.ar      1 RES1   0.0000
    62 C29      0.4536   7.1475   6.0940   C.ar      1 RES1   0.0000
    63 C30     -0.5467   6.8294   6.9981   C.ar      1 RES1   0.0000
    64 H27     -0.4954   6.0307   7.5100   H         1 RES1   0.0000
    65 C31     -1.6278   7.6953   7.1478   C.ar      1 RES1   0.0000
    66 H28     -2.3126   7.4885   7.7733   H         1 RES1   0.0000
    67 C32     -1.7126   8.8471   6.3980   C.ar      1 RES1   0.0000
    68 H29     -2.4609   9.4238   6.4951   H         1 RES1   0.0000
    69 C33     -0.7088   9.1629   5.5033   C.ar      1 RES1   0.0000
    70 H30     -0.7661   9.9598   4.9876   H         1 RES1   0.0000
    71 C34      0.3810   8.3226   5.3549   C.ar      1 RES1   0.0000
    72 H31      1.0777   8.5481   4.7497   H         1 RES1   0.0000
    73 C35      4.3799   3.6420   4.6584   C.ar      1 RES1   0.0000
    74 C36      4.4022   3.1370   3.3669   C.ar      1 RES1   0.0000
    75 H32      3.7753   3.4471   2.7241   H         1 RES1   0.0000
    76 C37      5.3448   2.1757   3.0157   C.ar      1 RES1   0.0000
    77 H33      5.3650   1.8337   2.1296   H         1 RES1   0.0000
    78 C38      6.2480   1.7194   3.9488   C.ar      1 RES1   0.0000
    79 H34      6.8970   1.0714   3.7030   H         1 RES1   0.0000
    80 C39      6.2083   2.2038   5.2413   C.ar      1 RES1   0.0000
    81 H35      6.8239   1.8750   5.8857   H         1 RES1   0.0000
    82 C40      5.2783   3.1654   5.6035   C.ar      1 RES1   0.0000
    83 H36      5.2557   3.4967   6.4929   H         1 RES1   0.0000
    84 B1      -0.3711  10.0304  11.1671   B         2 RES2  -1.0000
    85 C41      0.2018  11.1101  10.0670   C.ar      2 RES2   0.0000
    86 C42      0.9079  12.2580  10.4174   C.ar      2 RES2   0.0000
    87 H37      0.9575  12.4985  11.3361   H         2 RES2   0.0000
    88 C43      1.5456  13.0697   9.4806   C.ar      2 RES2   0.0000
    89 H38      2.0162  13.8428   9.7691   H         2 RES2   0.0000
    90 C44      1.4968  12.7594   8.1472   C.ar      2 RES2   0.0000
    91 H39      1.9506  13.2960   7.5079   H         2 RES2   0.0000
    92 C45      0.7751  11.6526   7.7527   C.ar      2 RES2   0.0000
    93 H40      0.7111  11.4335   6.8305   H         2 RES2   0.0000
    94 C46      0.1417  10.8574   8.6971   C.ar      2 RES2   0.0000
    95 H41     -0.3562  10.1060   8.3975   H         2 RES2   0.0000
    96 C47      0.7923   8.8813  11.4251   C.ar      2 RES2   0.0000
    97 C48      1.9048   8.7290  10.6144   C.ar      2 RES2   0.0000
    98 H42      2.0322   9.3442   9.9029   H         2 RES2   0.0000
    99 C49      2.8453   7.7208  10.7887   C.ar      2 RES2   0.0000
   100 H43      3.5937   7.6717  10.2065   H         2 RES2   0.0000
   101 C50      2.7062   6.7937  11.7922   C.ar      2 RES2   0.0000
   102 H44      3.3388   6.0933  11.9009   H         2 RES2   0.0000
   103 C51      1.6329   6.9077  12.6307   C.ar      2 RES2   0.0000
   104 H45      1.5172   6.2812  13.3362   H         2 RES2   0.0000
   105 C52      0.7088   7.9331  12.4604   C.ar      2 RES2   0.0000
   106 H46     -0.0130   7.9962  13.0729   H         2 RES2   0.0000
   107 C53     -1.7639   9.3191  10.6223   C.ar      2 RES2   0.0000
   108 C54     -2.0763   7.9588  10.7832   C.ar      2 RES2   0.0000
   109 H47     -1.4224   7.3830  11.1620   H         2 RES2   0.0000
   110 C55     -3.3052   7.4176  10.4108   C.ar      2 RES2   0.0000
   111 H48     -3.4719   6.4918  10.5420   H         2 RES2   0.0000
   112 C56     -4.2788   8.2162   9.8530   C.ar      2 RES2   0.0000
   113 H49     -5.1227   7.8533   9.6120   H         2 RES2   0.0000
   114 C57     -4.0045   9.5554   9.6507   C.ar      2 RES2   0.0000
   115 H50     -4.6631  10.1200   9.2638   H         2 RES2   0.0000
   116 C58     -2.7637  10.0789  10.0146   C.ar      2 RES2   0.0000
   117 H51     -2.5922  10.9972   9.8413   H         2 RES2   0.0000
   118 C59     -0.7164  10.8337  12.5750   C.ar      2 RES2   0.0000
   119 C60      0.2660  11.0594  13.5562   C.ar      2 RES2   0.0000
   120 H52      1.1468  10.7400  13.3999   H         2 RES2   0.0000
   121 C61      0.0003  11.7305  14.7459   C.ar      2 RES2   0.0000
   122 H53      0.6913  11.8468  15.3873   H         2 RES2   0.0000
   123 C62     -1.2629  12.2276  14.9960   C.ar      2 RES2   0.0000
   124 H54     -1.4510  12.6796  15.8098   H         2 RES2   0.0000
   125 C63     -2.2423  12.0597  14.0516   C.ar      2 RES2   0.0000
   126 H55     -3.1119  12.4108  14.2068   H         2 RES2   0.0000
   127 C64     -1.9720  11.3778  12.8649   C.ar      2 RES2   0.0000
   128 H56     -2.6695  11.2789  12.2279   H         2 RES2   0.0000
   129 B2       0.5399  10.3059   0.5480   B         3 RES3  -1.0000
   130 C65     -1.0156  10.2615   1.0918   C.ar      3 RES3   0.0000
   131 C66     -1.3638   9.3869   2.1354   C.ar      3 RES3   0.0000
   132 H57     -0.6907   8.8267   2.5055   H         3 RES3   0.0000
   133 C67     -2.6573   9.3088   2.6500   C.ar      3 RES3   0.0000
   134 H58     -2.8468   8.7060   3.3590   H         3 RES3   0.0000
   135 C68     -3.6664  10.1042   2.1343   C.ar      3 RES3   0.0000
   136 H59     -4.5513  10.0413   2.4736   H         3 RES3   0.0000
   137 C69     -3.3641  10.9918   1.1164   C.ar      3 RES3   0.0000
   138 H60     -4.0414  11.5516   0.7559   H         3 RES3   0.0000
   139 C70     -2.0610  11.0614   0.6225   C.ar      3 RES3   0.0000
   140 H61     -1.8749  11.6860  -0.0701   H         3 RES3   0.0000
   141 C71      0.7887  11.5661  -0.4841   C.ar      3 RES3   0.0000
   142 C72      0.1271  11.5848  -1.7169   C.ar      3 RES3   0.0000
   143 H62     -0.4946  10.8911  -1.9067   H         3 RES3   0.0000
   144 C73      0.3348  12.5690  -2.6757   C.ar      3 RES3   0.0000
   145 H63     -0.1547  12.5515  -3.4885   H         3 RES3   0.0000
   146 C74      1.2526  13.5679  -2.4443   C.ar      3 RES3   0.0000
   147 H64      1.4046  14.2436  -3.0936   H         3 RES3   0.0000
   148 C75      1.9460  13.5722  -1.2561   C.ar      3 RES3   0.0000
   149 H65      2.5937  14.2480  -1.0935   H         3 RES3   0.0000
   150 C76      1.7102  12.5970  -0.2864   C.ar      3 RES3   0.0000
   151 H66      2.1897  12.6351   0.5329   H         3 RES3   0.0000
   152 C77      0.9141   8.9497  -0.3015   C.ar      3 RES3   0.0000
   153 C78      0.1857   7.7535  -0.3128   C.ar      3 RES3   0.0000
   154 H67     -0.6241   7.7105   0.1826   H         3 RES3   0.0000
   155 C79      0.5931   6.6277  -1.0158   C.ar      3 RES3   0.0000
   156 H68      0.0647   5.8385  -0.9894   H         3 RES3   0.0000
   157 C80      1.7658   6.6471  -1.7557   C.ar      3 RES3   0.0000
   158 H69      2.0520   5.8786  -2.2358   H         3 RES3   0.0000
   159 C81      2.5141   7.8210  -1.7767   C.ar      3 RES3   0.0000
   160 H70      3.3206   7.8595  -2.2761   H         3 RES3   0.0000
   161 C82      2.0850   8.9305  -1.0722   C.ar      3 RES3   0.0000
   162 H71      2.6106   9.7205  -1.1126   H         3 RES3   0.0000
   163 C83      1.5136  10.4076   1.8740   C.ar      3 RES3   0.0000
   164 C84      2.5342   9.5193   2.1776   C.ar      3 RES3   0.0000
   165 H72      2.7123   8.8050   1.5776   H         3 RES3   0.0000
   166 C85      3.3175   9.6370   3.3397   C.ar      3 RES3   0.0000
   167 H73      4.0093   9.0088   3.5098   H         3 RES3   0.0000
   168 C86      3.0836  10.6507   4.2230   C.ar      3 RES3   0.0000
   169 H74      3.6106  10.7345   5.0088   H         3 RES3   0.0000
   170 C87      2.0741  11.5521   3.9622   C.ar      3 RES3   0.0000
   171 H75      1.9021  12.2579   4.5735   H         3 RES3   0.0000
   172 C88      1.3100  11.4347   2.8144   C.ar      3 RES3   0.0000
   173 H76      0.6230  12.0725   2.6562   H         3 RES3   0.0000
   174 N7       4.7885   6.8292   2.0596   N.1       4 RES4   0.0000
   175 C89      5.2086   7.6331   1.2867   C.1       4 RES4   0.0000
   176 C90      5.7433   8.5994   0.3567   C.3       4 RES4   0.0000
   177 H77      5.0855   8.7714  -0.3503   H         4 RES4   0.0000
   178 H78      6.5671   8.2493  -0.0425   H         4 RES4   0.0000
   179 H79      5.9379   9.4354   0.8302   H         4 RES4   0.0000
@<TRIPOS>BOND
     1     1     2    1
     2     2     6    1
     3     3     1    1
     4     4     1    1
     5     5     1    1
     6     6     7    1
     7     8     6    1
     8     9     3   ar
     9    10     9   ar
    10    11    10    1
    11    12    10   ar
    12    13    12    1
    13    14    12   ar
    14    15    14    1
    15    16     3   ar
    16    17     4    1
    17    18    17    1
    18    19    17    1
    19    20     4    1
    20    21    20    1
    21    22    20    1
    22    23     5   ar
    23    24    23   ar
    24    25    24    1
    25    26    24   ar
    26    27    26    1
    27    28    26   ar
    28    29    28    1
    29    30     5   ar
    30    31     2    1
    31    32    31    1
    32    33    31    1
    33    34     2    1
    34    35    34    1
    35    36    34    1
    36    37    34    1
    37    38     4    1
    38    39    38    1
    39    40    38    1
    40    41    38    1
    41    42     1    1
    42    43     1    1
    43    44    42    2
    44    45    44    1
    45    46    45   ar
    46    47    46    1
    47    48    46   ar
    48    49    48    1
    49    50    48   ar
    50    51    50    1
    51    52    50   ar
    52    53    52   ar
    53    54    53    1
    54    55    53   ar
    55    56    55    1
    56    57    55   ar
    57    58    57    1
    58    59    57   ar
    59    60    43    2
    60    61    45   ar
    61    62    42    1
    62    63    62   ar
    63    64    63    1
    64    65    63   ar
    65    66    65    1
    66    67    65   ar
    67    68    67    1
    68    69    67   ar
    69    70    69    1
    70    71    62   ar
    71    72    71    1
    72    73    43    1
    73    74    73   ar
    74    75    74    1
    75    76    74   ar
    76    77    76    1
    77    78    76   ar
    78    79    78    1
    79    80    78   ar
    80    81    80    1
    81    82    73   ar
    82    83    82    1
    83     6     9    1
    84    14    16   ar
    85    16    17    1
    86    20    23    1
    87    28    30   ar
    88    30    31    1
    89    44    60    1
    90    52    61   ar
    91    59    60    1
    92    59    61   ar
    93    69    71   ar
    94    80    82   ar
    95    84    85    1
    96    85    86   ar
    97    86    87    1
    98    88    86   ar
    99    89    88    1
   100    90    88   ar
   101    91    90    1
   102    92    90   ar
   103    93    92    1
   104    94    85   ar
   105    95    94    1
   106    96    84    1
   107    97    96   ar
   108    98    97    1
   109    99    97   ar
   110   100    99    1
   111   101    99   ar
   112   102   101    1
   113   103   101   ar
   114   104   103    1
   115   105    96   ar
   116   106   105    1
   117   107    84    1
   118   108   107   ar
   119   109   108    1
   120   110   108   ar
   121   111   110    1
   122   112   110   ar
   123   113   112    1
   124   114   112   ar
   125   115   114    1
   126   116   107   ar
   127   117   116    1
   128   118    84    1
   129   119   118   ar
   130   120   119    1
   131   121   119   ar
   132   122   121    1
   133   123   121   ar
   134   124   123    1
   135   125   123   ar
   136   126   125    1
   137   127   118   ar
   138   128   127    1
   139    92    94   ar
   140   103   105   ar
   141   114   116   ar
   142   125   127   ar
   143   129   130    1
   144   130   131   ar
   145   131   132    1
   146   133   131   ar
   147   134   133    1
   148   135   133   ar
   149   136   135    1
   150   137   135   ar
   151   138   137    1
   152   139   130   ar
   153   140   139    1
   154   141   129    1
   155   142   141   ar
   156   143   142    1
   157   144   142   ar
   158   145   144    1
   159   146   144   ar
   160   147   146    1
   161   148   146   ar
   162   149   148    1
   163   150   141   ar
   164   151   150    1
   165   152   129    1
   166   153   152   ar
   167   154   153    1
   168   155   153   ar
   169   156   155    1
   170   157   155   ar
   171   158   157    1
   172   159   157   ar
   173   160   159    1
   174   161   152   ar
   175   162   161    1
   176   163   129    1
   177   164   163   ar
   178   165   164    1
   179   166   164   ar
   180   167   166    1
   181   168   166   ar
   182   169   168    1
   183   170   168   ar
   184   171   170    1
   185   172   163   ar
   186   173   172    1
   187   137   139   ar
   188   148   150   ar
   189   159   161   ar
   190   170   172   ar
   191   174   175    3
   192   175   176    1
   193   176   177    1
   194   178   176    1
   195   179   176    1
@<TRIPOS>SUBSTRUCTURE
     1 RES1        1 GROUP             0 ****  ****    0  
     2 RES2       84 GROUP             0 ****  ****    0  
     3 RES3      129 GROUP             0 ****  ****    0  
     4 RES4      174 GROUP             0 ****  ****    0  
@<TRIPOS>CRYSIN
   12.7104   13.1967   21.3146   92.8860   93.4270  101.8920     2     1
