@<TRIPOS>MOLECULE
BOFFOS
   157   177     4     0     0
SMALL
NO_CHARGES
****
Generated from the CSD

@<TRIPOS>ATOM
     1 K1      14.5862  10.4919   6.8401   K         1 RES1   0.0000
     2 Fe1     12.1857   7.0340   9.3951   Fe        1 RES1   0.0000
     3 O1      15.0353   9.6511   4.2313   O.3       1 RES1   0.0000
     4 O2      12.4636  10.4362   4.9323   O.3       1 RES1   0.0000
     5 O3      12.0094  11.2969   7.5545   O.3       1 RES1   0.0000
     6 O4      14.1726  12.4082   9.0072   O.3       1 RES1   0.0000
     7 O5      16.7121  11.8312   8.1503   O.3       1 RES1   0.0000
     8 O6      17.2334  10.8739   5.5544   O.3       1 RES1   0.0000
     9 O7      15.7326   8.5784   8.4252   O.co2     1 RES1   0.0000
    10 O8      13.6016   7.9867   8.3314   O.co2     1 RES1   0.0000
    11 O9      13.7732   6.6333  10.5495   O.co2     1 RES1   0.0000
    12 O10     15.9203   7.1357  10.7920   O.co2     1 RES1   0.0000
    13 C1      13.9718   9.6676   3.2948   C.3       1 RES1   0.0000
    14 H1      14.1243   8.9946   2.6134   H         1 RES1   0.0000
    15 H2      13.9293  10.5352   2.8610   H         1 RES1   0.0000
    16 C2      12.6970   9.3939   3.9928   C.3       1 RES1   0.0000
    17 H3      11.9688   9.3555   3.3523   H         1 RES1   0.0000
    18 H4      12.7462   8.5409   4.4509   H         1 RES1   0.0000
    19 C3      11.2091  10.2995   5.5817   C.3       1 RES1   0.0000
    20 H5      11.1732   9.4504   6.0506   H         1 RES1   0.0000
    21 H6      10.4957  10.3157   4.9247   H         1 RES1   0.0000
    22 C4      11.0323  11.4131   6.5438   C.3       1 RES1   0.0000
    23 H7      11.1281  12.2636   6.0876   H         1 RES1   0.0000
    24 H8      10.1448  11.3751   6.9347   H         1 RES1   0.0000
    25 C5      11.8593  12.2660   8.5743   C.3       1 RES1   0.0000
    26 H9      10.9855  12.1813   8.9886   H         1 RES1   0.0000
    27 H10     11.9347  13.1585   8.2000   H         1 RES1   0.0000
    28 C6      12.9203  12.0469   9.5774   C.3       1 RES1   0.0000
    29 H11     12.7474  12.5865  10.3641   H         1 RES1   0.0000
    30 H12     12.9338  11.1156   9.8445   H         1 RES1   0.0000
    31 C7      15.2396  12.2539   9.9254   C.3       1 RES1   0.0000
    32 H13     15.3037  11.3287  10.2071   H         1 RES1   0.0000
    33 H14     15.0856  12.8039  10.7101   H         1 RES1   0.0000
    34 C8      16.4974  12.6716   9.2489   C.3       1 RES1   0.0000
    35 H15     16.4235  13.5932   8.9526   H         1 RES1   0.0000
    36 H16     17.2435  12.6076   9.8660   H         1 RES1   0.0000
    37 C9      17.9558  12.0066   7.5118   C.3       1 RES1   0.0000
    38 H17     18.6618  12.0589   8.1756   H         1 RES1   0.0000
    39 H18     17.9514  12.8334   7.0059   H         1 RES1   0.0000
    40 C10     18.2041  10.8758   6.6121   C.3       1 RES1   0.0000
    41 H19     19.0943  10.9467   6.2368   H         1 RES1   0.0000
    42 H20     18.1488  10.0435   7.1082   H         1 RES1   0.0000
    43 C11     17.3472   9.7461   4.7132   C.3       1 RES1   0.0000
    44 H21     17.2264   8.9355   5.2327   H         1 RES1   0.0000
    45 H22     18.2329   9.7206   4.3164   H         1 RES1   0.0000
    46 C12     16.3214   9.8147   3.6438   C.3       1 RES1   0.0000
    47 H23     16.3723  10.6724   3.1915   H         1 RES1   0.0000
    48 H24     16.4771   9.1149   2.9897   H         1 RES1   0.0000
    49 C13     14.7629   7.9894   8.8707   C.2       1 RES1   0.0000
    50 C14     14.8659   7.1820  10.1945   C.2       1 RES1   0.0000
    51 K1A      7.9896   7.3860   6.8401   K         1 RES1   0.0000
    52 K1B     13.9777   3.2262   6.8401   K         1 RES1   0.0000
    53 O1A      8.4932   8.1954   4.2313   O.3       1 RES1   0.0000
    54 O1B     13.0250   3.2576   4.2313   O.3       1 RES1   0.0000
    55 O2A      9.0991   5.5757   4.9323   O.3       1 RES1   0.0000
    56 O2B     14.9907   5.0922   4.9323   O.3       1 RES1   0.0000
    57 O3A      8.5809   4.7520   7.5545   O.3       1 RES1   0.0000
    58 O3B     15.9632   5.0553   7.5545   O.3       1 RES1   0.0000
    59 O4A      6.5369   6.0698   9.0072   O.3       1 RES1   0.0000
    60 O4B     15.8440   2.6262   9.0072   O.3       1 RES1   0.0000
    61 O5A      5.7668   8.5575   8.1503   O.3       1 RES1   0.0000
    62 O5B     14.0746   0.7154   8.1503   O.3       1 RES1   0.0000
    63 O6A      6.3352   9.4876   5.5544   O.3       1 RES1   0.0000
    64 O6B     12.9849   0.7427   5.5544   O.3       1 RES1   0.0000
    65 O7A      9.0736   9.3356   8.4252   O.co2     1 RES1   0.0000
    66 O7B     11.7473   3.1901   8.4252   O.co2     1 RES1   0.0000
    67 O8A     10.6516   7.7860   8.3314   O.co2     1 RES1   0.0000
    68 O8B     12.3004   5.3315   8.3314   O.co2     1 RES1   0.0000
    69 O9A     11.7378   8.6113  10.5495   O.co2     1 RES1   0.0000
    70 O9B     11.0424   5.8596  10.5495   O.co2     1 RES1   0.0000
    71 O10B    10.4041   3.7489  10.7920   O.co2     1 RES1   0.0000
    72 O10A    10.2291  10.2195  10.7920   O.co2     1 RES1   0.0000
    73 C1A      9.0107   7.2662   3.2948   C.3       1 RES1   0.0000
    74 C1B     13.5710   4.1704   3.2948   C.3       1 RES1   0.0000
    75 H1A      9.5173   7.7347   2.6134   H         1 RES1   0.0000
    76 H1B     12.9119   4.3749   2.6134   H         1 RES1   0.0000
    77 H2A      8.2806   6.7955   2.8610   H         1 RES1   0.0000
    78 H2B     14.3436   3.7734   2.8610   H         1 RES1   0.0000
    79 C2A      9.8852   6.2990   3.9928   C.3       1 RES1   0.0000
    80 C2B     13.9714   5.4113   3.9928   C.3       1 RES1   0.0000
    81 H3B     14.3022   6.0611   3.3523   H         1 RES1   0.0000
    82 H3A     10.2825   5.6876   3.3523   H         1 RES1   0.0000
    83 H4B     13.2080   5.7952   4.4509   H         1 RES1   0.0000
    84 H4A     10.5993   6.7681   4.4509   H         1 RES1   0.0000
    85 C3A      9.8448   4.5577   5.5817   C.3       1 RES1   0.0000
    86 C3B     15.4995   6.2470   5.5817   C.3       1 RES1   0.0000
    87 H5A     10.5981   4.9510   6.0506   H         1 RES1   0.0000
    88 H5B     14.7822   6.7027   6.0506   H         1 RES1   0.0000
    89 H6A     10.1875   3.9317   4.9247   H         1 RES1   0.0000
    90 H6B     15.8703   6.8567   4.9247   H         1 RES1   0.0000
    91 C4A      8.9688   3.8477   6.5438   C.3       1 RES1   0.0000
    92 C4B     16.5524   5.8433   6.5438   C.3       1 RES1   0.0000
    93 H7A      8.1843   3.5054   6.0876   H         1 RES1   0.0000
    94 H7B     17.2411   5.3351   6.0876   H         1 RES1   0.0000
    95 H8A      9.4454   3.0981   6.9347   H         1 RES1   0.0000
    96 H8B     16.9633   6.6309   6.9347   H         1 RES1   0.0000
    97 C5A      7.8167   4.1375   8.5743   C.3       1 RES1   0.0000
    98 C5B     16.8775   4.7007   8.5743   C.3       1 RES1   0.0000
    99 H9A      8.3269   3.4231   8.9886   H         1 RES1   0.0000
   100 H9B     17.2411   5.4997   8.9886   H         1 RES1   0.0000
   101 H10A     7.0061   3.7565   8.2000   H         1 RES1   0.0000
   102 H10B    17.6127   4.1892   8.2000   H         1 RES1   0.0000
   103 C6A      7.4759   5.1659   9.5774   C.3       1 RES1   0.0000
   104 C6B     16.1573   3.8914   9.5774   C.3       1 RES1   0.0000
   105 H11B    16.7110   3.7713  10.3641   H         1 RES1   0.0000
   106 H11A     7.0950   4.7463  10.3641   H         1 RES1   0.0000
   107 H12B    15.3439   4.3453   9.8445   H         1 RES1   0.0000
   108 H12A     8.2757   5.6433   9.8445   H         1 RES1   0.0000
   109 C7A      6.1370   7.0710   9.9254   C.3       1 RES1   0.0000
   110 C7B     15.1769   1.7793   9.9254   C.3       1 RES1   0.0000
   111 H13A     6.9062   7.5891  10.2071   H         1 RES1   0.0000
   112 H13B    14.3436   2.1864  10.2071   H         1 RES1   0.0000
   113 H14A     5.7377   6.6626  10.7101   H         1 RES1   0.0000
   114 H14B    15.7302   1.6377  10.7101   H         1 RES1   0.0000
   115 C8A      5.1464   7.9514   9.2489   C.3       1 RES1   0.0000
   116 C8B     14.9097   0.4812   9.2489   C.3       1 RES1   0.0000
   117 H15A     4.3852   7.4266   8.9526   H         1 RES1   0.0000
   118 H15B    15.7448   0.0844   8.9526   H         1 RES1   0.0000
   119 H16A     4.8287   8.6295   9.8660   H         1 RES1   0.0000
   120 H16B    14.4813  -0.1330   9.8660   H         1 RES1   0.0000
   121 C9A      4.9931   9.5469   7.5118   C.3       1 RES1   0.0000
   122 C9B     13.6046  -0.4493   7.5118   C.3       1 RES1   0.0000
   123 H17A     4.5948  10.1321   8.1756   H         1 RES1   0.0000
   124 H17B    13.2969  -1.0869   8.1756   H         1 RES1   0.0000
   125 H18A     4.2792   9.1297   7.0059   H         1 RES1   0.0000
   126 H18B    14.3229  -0.8589   7.0059   H         1 RES1   0.0000
   127 C10A     5.8482  10.3273   6.6121   C.3       1 RES1   0.0000
   128 C10B    12.5012  -0.0990   6.6121   C.3       1 RES1   0.0000
   129 H19B    12.1175  -0.9054   6.2368   H         1 RES1   0.0000
   130 H19A     5.3417  11.0628   6.2368   H         1 RES1   0.0000
   131 H20B    11.8080   0.3651   7.1082   H         1 RES1   0.0000
   132 H20A     6.5967  10.6956   7.1082   H         1 RES1   0.0000
   133 C11B    11.9513   1.2080   4.7132   C.3       1 RES1   0.0000
   134 C11A     7.2550  10.1501   4.7132   C.3       1 RES1   0.0000
   135 H21B    11.3097   1.7179   5.2327   H         1 RES1   0.0000
   136 H21A     8.0174  10.4508   5.2327   H         1 RES1   0.0000
   137 H22B    11.4863   0.4537   4.3164   H         1 RES1   0.0000
   138 H22A     6.8343  10.9299   4.3164   H         1 RES1   0.0000
   139 C12B    12.5236   2.0621   3.6438   C.3       1 RES1   0.0000
   140 C12A     7.7085   9.2274   3.6438   C.3       1 RES1   0.0000
   141 H23B    13.2409   1.5891   3.1915   H         1 RES1   0.0000
   142 H23A     6.9403   8.8426   3.1915   H         1 RES1   0.0000
   143 H24B    11.8397   2.2771   2.9897   H         1 RES1   0.0000
   144 H24A     8.2367   9.7121   2.9897   H         1 RES1   0.0000
   145 C13A    10.0685   8.7903   8.8707   C.2       1 RES1   0.0000
   146 C13B    11.7221   4.3245   8.8707   C.2       1 RES1   0.0000
   147 C14A    10.7163   9.2833  10.1945   C.2       1 RES1   0.0000
   148 C14B    10.9713   4.6389  10.1945   C.2       1 RES1   0.0000
   149 O11     18.3845   8.7080   9.4643   O.3       2 RES2   0.0000
   150 H25     17.5554   8.6738   9.2119   H         2 RES2   0.0000
   151 H28     18.5387   8.2538  10.1769   H         2 RES2   0.0000
   152 O12      8.9476  13.3315   4.5494   O.3       3 RES3   0.0000
   153 H26      8.9215  14.1609   4.2404   H         3 RES3   0.0000
   154 H29      8.1137  13.5890   4.6790   H         3 RES3   0.0000
   155 O13     18.4506   6.8392   2.0091   O.3       4 RES4   0.0000
   156 H27     17.5798   6.6689   1.9009   H         4 RES4   0.0000
   157 H30     18.4230   6.7955   2.8952   H         4 RES4   0.0000
@<TRIPOS>BOND
     1     1     3    1
     2     2    10    1
     3     3    13    1
     4     4     1    1
     5     5     1    1
     6     6     1    1
     7     7     1    1
     8     8     1    1
     9     9     1    1
    10    10     1    1
    11    11     2    1
    12    12    50    2
    13    13    14    1
    14    15    13    1
    15    16     4    1
    16    17    16    1
    17    18    16    1
    18    19     4    1
    19    20    19    1
    20    21    19    1
    21    22     5    1
    22    23    22    1
    23    24    22    1
    24    25     5    1
    25    26    25    1
    26    27    25    1
    27    28     6    1
    28    29    28    1
    29    30    28    1
    30    31     6    1
    31    32    31    1
    32    33    31    1
    33    34     7    1
    34    35    34    1
    35    36    34    1
    36    37     7    1
    37    38    37    1
    38    39    37    1
    39    40     8    1
    40    41    40    1
    41    42    40    1
    42    43     8    1
    43    44    43    1
    44    45    43    1
    45    46     3    1
    46    47    46    1
    47    48    46    1
    48    49     9   un
    49    50    11    1
    50    51    53    1
    51    52    54    1
    52    53    73    1
    53    54    74    1
    54    55    51    1
    55    56    52    1
    56    57    51    1
    57    58    52    1
    58    59    51    1
    59    60    52    1
    60    61    51    1
    61    62    52    1
    62    63    51    1
    63    64    52    1
    64    65    51    1
    65    66    52    1
    66    67     2    1
    67    68     2    1
    68    69     2    1
    69    70     2    1
    70    71   148    2
    71    72   147    2
    72    73    75    1
    73    74    76    1
    74    77    73    1
    75    78    74    1
    76    79    55    1
    77    80    56    1
    78    81    80    1
    79    82    79    1
    80    83    80    1
    81    84    79    1
    82    85    55    1
    83    86    56    1
    84    87    85    1
    85    88    86    1
    86    89    85    1
    87    90    86    1
    88    91    57    1
    89    92    58    1
    90    93    91    1
    91    94    92    1
    92    95    91    1
    93    96    92    1
    94    97    57    1
    95    98    58    1
    96    99    97    1
    97   100    98    1
    98   101    97    1
    99   102    98    1
   100   103    59    1
   101   104    60    1
   102   105   104    1
   103   106   103    1
   104   107   104    1
   105   108   103    1
   106   109    59    1
   107   110    60    1
   108   111   109    1
   109   112   110    1
   110   113   109    1
   111   114   110    1
   112   115    61    1
   113   116    62    1
   114   117   115    1
   115   118   116    1
   116   119   115    1
   117   120   116    1
   118   121    61    1
   119   122    62    1
   120   123   121    1
   121   124   122    1
   122   125   121    1
   123   126   122    1
   124   127    63    1
   125   128    64    1
   126   129   128    1
   127   130   127    1
   128   131   128    1
   129   132   127    1
   130   133    64    1
   131   134    63    1
   132   135   133    1
   133   136   134    1
   134   137   133    1
   135   138   134    1
   136   139    54    1
   137   140    53    1
   138   141   139    1
   139   142   140    1
   140   143   139    1
   141   144   140    1
   142   145    65   un
   143   146    66   un
   144   147    69    1
   145   148    70    1
   146    10    49   un
   147    13    16    1
   148    19    22    1
   149    25    28    1
   150    31    34    1
   151    37    40    1
   152    43    46    1
   153    49    50    1
   154    51    67    1
   155    52    68    1
   156    67   145   un
   157    68   146   un
   158    73    79    1
   159    74    80    1
   160    85    91    1
   161    86    92    1
   162    97   103    1
   163    98   104    1
   164   109   115    1
   165   110   116    1
   166   121   127    1
   167   122   128    1
   168   133   139    1
   169   134   140    1
   170   145   147    1
   171   146   148    1
   172   149   150    1
   173   151   149    1
   174   152   153    1
   175   154   152    1
   176   155   156    1
   177   157   155    1
@<TRIPOS>SUBSTRUCTURE
     1 RES1        1 GROUP             0 ****  ****    0  
     2 RES2      149 GROUP             0 ****  ****    0  
     3 RES3      152 GROUP             0 ****  ****    0  
     4 RES4      155 GROUP             0 ****  ****    0  
@<TRIPOS>CRYSIN
   24.3690   24.3690    9.7480   90.0000   90.0000  120.0000   232     1
