@<TRIPOS>MOLECULE
BONGUH01
   104   118     2     0     0
SMALL
USER_CHARGES
****
Generated from the CSD

@<TRIPOS>ATOM
     1 C17      6.7704   5.7332   4.6341   C.ar      1 RES1   0.0000
     2 C18      6.6055   6.7519   3.6619   C.ar      1 RES1   0.0000
     3 H9       5.8227   7.2527   3.6348   H         1 RES1   0.0000
     4 C19      7.6112   6.9910   2.7636   C.ar      1 RES1   0.0000
     5 H10      7.5133   7.6630   2.1275   H         1 RES1   0.0000
     6 C20      8.7678   6.2415   2.7986   C.ar      1 RES1   0.0000
     7 H11      9.4461   6.4140   2.1862   H         1 RES1   0.0000
     8 C21      8.9272   5.2551   3.7175   C.ar      1 RES1   0.0000
     9 H12      9.7137   4.7566   3.7314   H         1 RES1   0.0000
    10 C22      7.9177   4.9837   4.6402   C.ar      1 RES1   0.0000
    11 H13      8.0225   4.2980   5.2586   H         1 RES1   0.0000
    12 P1       5.3843   5.3843   5.7193   P.3       1 RES1   1.0000
    13 C17A     3.9982   5.0354   4.6341   C.ar      1 RES1   0.0000
    14 C18A     4.1631   4.0167   3.6619   C.ar      1 RES1   0.0000
    15 H9A      4.9459   3.5159   3.6348   H         1 RES1   0.0000
    16 C19A     3.1574   3.7776   2.7636   C.ar      1 RES1   0.0000
    17 H10A     3.2553   3.1056   2.1275   H         1 RES1   0.0000
    18 C20A     2.0008   4.5271   2.7986   C.ar      1 RES1   0.0000
    19 H11A     1.3225   4.3546   2.1862   H         1 RES1   0.0000
    20 C21A     1.8414   5.5135   3.7175   C.ar      1 RES1   0.0000
    21 H12A     1.0549   6.0120   3.7314   H         1 RES1   0.0000
    22 C22A     2.8509   5.7849   4.6402   C.ar      1 RES1   0.0000
    23 H13A     2.7461   6.4706   5.2586   H         1 RES1   0.0000
    24 C17F     5.7332   3.9982   6.8044   C.ar      1 RES1   0.0000
    25 C18F     6.7519   4.1631   7.7767   C.ar      1 RES1   0.0000
    26 H9F      7.2527   4.9459   7.8038   H         1 RES1   0.0000
    27 C19F     6.9910   3.1574   8.6750   C.ar      1 RES1   0.0000
    28 H10F     7.6630   3.2553   9.3111   H         1 RES1   0.0000
    29 C20F     6.2415   2.0008   8.6399   C.ar      1 RES1   0.0000
    30 H11F     6.4140   1.3225   9.2523   H         1 RES1   0.0000
    31 C21F     5.2551   1.8414   7.7210   C.ar      1 RES1   0.0000
    32 H12F     4.7566   1.0549   7.7071   H         1 RES1   0.0000
    33 C22F     4.9837   2.8509   6.7983   C.ar      1 RES1   0.0000
    34 H13F     4.2980   2.7461   6.1799   H         1 RES1   0.0000
    35 C17G     5.0354   6.7704   6.8044   C.ar      1 RES1   0.0000
    36 C18G     4.0167   6.6055   7.7767   C.ar      1 RES1   0.0000
    37 H9G      3.5159   5.8227   7.8038   H         1 RES1   0.0000
    38 C19G     3.7776   7.6112   8.6750   C.ar      1 RES1   0.0000
    39 H10G     3.1056   7.5133   9.3111   H         1 RES1   0.0000
    40 C20G     4.5271   8.7678   8.6399   C.ar      1 RES1   0.0000
    41 H11G     4.3546   9.4461   9.2523   H         1 RES1   0.0000
    42 C21G     5.5135   8.9272   7.7210   C.ar      1 RES1   0.0000
    43 H12G     6.0120   9.7137   7.7071   H         1 RES1   0.0000
    44 C22G     5.7849   7.9177   6.7983   C.ar      1 RES1   0.0000
    45 H13G     6.4706   8.0225   6.1799   H         1 RES1   0.0000
    46 C1      10.4048   1.5970   1.3444   C.2       2 RES2   0.0000
    47 C2      10.7012   2.9144   0.7870   C.2       2 RES2   0.0000
    48 C3      10.2829   3.5373  -0.3813   C.2       2 RES2   0.0000
    49 H1       9.7411   3.1008  -0.9987   H         2 RES2   0.0000
    50 C4      10.7111   4.8405  -0.5849   C.2       2 RES2   0.0000
    51 H2      10.4530   5.2896  -1.3574   H         2 RES2   0.0000
    52 C5      11.5280   5.4972   0.3538   C.2       2 RES2   0.0000
    53 H3      11.7891   6.3760   0.1980   H         2 RES2   0.0000
    54 C6      11.9484   4.8571   1.5038   C.2       2 RES2   0.0000
    55 H4      12.5017   5.2831   2.1180   H         2 RES2   0.0000
    56 C7      11.5140   3.5545   1.7082   C.2       2 RES2   0.0000
    57 C8      11.7083   2.6275   2.8146   C.2       2 RES2   0.0000
    58 C9      12.5041   2.1231   4.9293   C.2       2 RES2   0.0000
    59 C10     13.3408   2.4225   6.0876   C.2       2 RES2   0.0000
    60 C11     14.1540   3.5056   6.4079   C.2       2 RES2   0.0000
    61 H5      14.2407   4.2317   5.8331   H         2 RES2   0.0000
    62 C12     14.8292   3.4595   7.6165   C.2       2 RES2   0.0000
    63 H6      15.3688   4.1753   7.8643   H         2 RES2   0.0000
    64 C13     14.7157   2.3581   8.4722   C.2       2 RES2   0.0000
    65 H7      15.1899   2.3515   9.2721   H         2 RES2   0.0000
    66 C14     13.9154   1.2832   8.1526   C.2       2 RES2   0.0000
    67 H8      13.8453   0.5478   8.7172   H         2 RES2   0.0000
    68 C15     13.2165   1.3416   6.9508   C.2       2 RES2   0.0000
    69 C16     12.2898   0.4122   6.3194   C.2       2 RES2   0.0000
    70 N1      11.8793   0.9280   5.1077   N.2       2 RES2   0.0000
    71 N2      12.4177   2.9379   3.8845   N.2       2 RES2   0.0000
    72 N3      11.0376   1.4643   2.5584   N.2       2 RES2   0.0000
    73 N4       9.5795   0.7478   0.7626   N.2       2 RES2   0.0000
    74 Fe1     10.7686   0.0000   3.8129   Fe        2 RES2   0.0000
    75 Br1      8.7458   1.2003   4.5289   Br        2 RES2  -1.0000
    76 C1D     11.1324  -1.5970   6.2813   C.2       2 RES2   0.0000
    77 C2D     10.8360  -2.9144   6.8387   C.2       2 RES2   0.0000
    78 C3D     11.2543  -3.5373   8.0070   C.2       2 RES2   0.0000
    79 H1D     11.7961  -3.1008   8.6244   H         2 RES2   0.0000
    80 C4D     10.8261  -4.8405   8.2106   C.2       2 RES2   0.0000
    81 H2D     11.0842  -5.2896   8.9831   H         2 RES2   0.0000
    82 C5D     10.0092  -5.4972   7.2719   C.2       2 RES2   0.0000
    83 H3D      9.7481  -6.3760   7.4277   H         2 RES2   0.0000
    84 C6D      9.5888  -4.8571   6.1219   C.2       2 RES2   0.0000
    85 H4D      9.0355  -5.2831   5.5077   H         2 RES2   0.0000
    86 C7D     10.0232  -3.5545   5.9175   C.2       2 RES2   0.0000
    87 C8D      9.8289  -2.6275   4.8111   C.2       2 RES2   0.0000
    88 C9D      9.0331  -2.1231   2.6964   C.2       2 RES2   0.0000
    89 C10D     8.1964  -2.4225   1.5381   C.2       2 RES2   0.0000
    90 C11D     7.3832  -3.5056   1.2178   C.2       2 RES2   0.0000
    91 H5D      7.2965  -4.2317   1.7926   H         2 RES2   0.0000
    92 C12D     6.7080  -3.4595   0.0092   C.2       2 RES2   0.0000
    93 H6D      6.1684  -4.1753  -0.2386   H         2 RES2   0.0000
    94 C13D     6.8215  -2.3581  -0.8465   C.2       2 RES2   0.0000
    95 H7D      6.3473  -2.3515  -1.6464   H         2 RES2   0.0000
    96 C14D     7.6218  -1.2832  -0.5269   C.2       2 RES2   0.0000
    97 H8D      7.6919  -0.5478  -1.0915   H         2 RES2   0.0000
    98 C15D     8.3207  -1.3416   0.6749   C.2       2 RES2   0.0000
    99 C16D     9.2474  -0.4122   1.3063   C.2       2 RES2   0.0000
   100 N1D      9.6579  -0.9280   2.5180   N.2       2 RES2   0.0000
   101 N2D      9.1195  -2.9379   3.7412   N.2       2 RES2   0.0000
   102 N3D     10.4996  -1.4643   5.0673   N.2       2 RES2   0.0000
   103 N4D     11.9577  -0.7478   6.8631   N.2       2 RES2   0.0000
   104 Br1D    12.7914  -1.2003   3.0968   Br        2 RES2   0.0000
@<TRIPOS>BOND
     1     1     2   ar
     2     2     3    1
     3     4     2   ar
     4     5     4    1
     5     6     4   ar
     6     7     6    1
     7     8     6   ar
     8     9     8    1
     9    10     1   ar
    10    11    10    1
    11    12     1    1
    12    13    12    1
    13    14    13   ar
    14    15    14    1
    15    16    14   ar
    16    17    16    1
    17    18    16   ar
    18    19    18    1
    19    20    18   ar
    20    21    20    1
    21    22    13   ar
    22    23    22    1
    23    24    12    1
    24    25    24   ar
    25    26    25    1
    26    27    25   ar
    27    28    27    1
    28    29    27   ar
    29    30    29    1
    30    31    29   ar
    31    32    31    1
    32    33    24   ar
    33    34    33    1
    34    35    12    1
    35    36    35   ar
    36    37    36    1
    37    38    36   ar
    38    39    38    1
    39    40    38   ar
    40    41    40    1
    41    42    40   ar
    42    43    42    1
    43    44    35   ar
    44    45    44    1
    45     8    10   ar
    46    20    22   ar
    47    31    33   ar
    48    42    44   ar
    49    46    47    1
    50    47    48    1
    51    48    49    1
    52    50    48    2
    53    51    50    1
    54    52    50    1
    55    53    52    1
    56    54    52    2
    57    55    54    1
    58    56    47    2
    59    57    56    1
    60    58    59    1
    61    59    60    1
    62    60    61    1
    63    62    60    2
    64    63    62    1
    65    64    62    1
    66    65    64    1
    67    66    64    2
    68    67    66    1
    69    68    59    2
    70    69    68    1
    71    70    58    1
    72    71    57    1
    73    72    46    1
    74    73    46    2
    75    74    70    1
    76    75    74    1
    77    76    77    1
    78    77    78    1
    79    78    79    1
    80    80    78    2
    81    81    80    1
    82    82    80    1
    83    83    82    1
    84    84    82    2
    85    85    84    1
    86    86    77    2
    87    87    86    1
    88    88    89    2
    89    89    90    1
    90    90    91    1
    91    92    90    2
    92    93    92    1
    93    94    92    1
    94    95    94    1
    95    96    94    2
    96    97    96    1
    97    98    89    1
    98    99    73    1
    99   100    74    1
   100   101    87    2
   101   102    74    1
   102   103    69    2
   103   104    74    1
   104    54    56    1
   105    57    72    2
   106    58    71    2
   107    66    68    1
   108    69    70    1
   109    72    74    1
   110    76   102    2
   111    76   103    1
   112    84    86    1
   113    87   102    1
   114    88   100    1
   115    88   101    1
   116    96    98    1
   117    98    99    2
   118    99   100    1
@<TRIPOS>SUBSTRUCTURE
     1 RES1        1 GROUP             0 ****  ****    0  
     2 RES2       46 GROUP             0 ****  ****    0  
