@<TRIPOS>MOLECULE
BONGOB01
   104   118     2     0     0
SMALL
USER_CHARGES
****
Generated from the CSD

@<TRIPOS>ATOM
     1 C17      6.8064   5.6343   4.5635   C.ar      1 RES1   0.0000
     2 C18      6.7604   6.7185   3.6678   C.ar      1 RES1   0.0000
     3 H9       6.0398   7.3062   3.6791   H         1 RES1   0.0000
     4 C19      7.7920   6.9007   2.7759   C.ar      1 RES1   0.0000
     5 H10      7.7708   7.6145   2.1799   H         1 RES1   0.0000
     6 C20      8.8536   6.0286   2.7654   C.ar      1 RES1   0.0000
     7 H11      9.5604   6.1704   2.1776   H         1 RES1   0.0000
     8 C21      8.8808   4.9530   3.6113   C.ar      1 RES1   0.0000
     9 H12      9.5953   4.3582   3.5793   H         1 RES1   0.0000
    10 C22      7.8518   4.7421   4.5168   C.ar      1 RES1   0.0000
    11 H13      7.8683   4.0062   5.0850   H         1 RES1   0.0000
    12 P1       5.3954   5.3954   5.6498   P.3       1 RES1   1.0000
    13 C17A     3.9844   5.1565   4.5635   C.ar      1 RES1   0.0000
    14 C18A     4.0303   4.0722   3.6678   C.ar      1 RES1   0.0000
    15 H9A      4.7510   3.4845   3.6791   H         1 RES1   0.0000
    16 C19A     2.9987   3.8901   2.7759   C.ar      1 RES1   0.0000
    17 H10A     3.0200   3.1763   2.1799   H         1 RES1   0.0000
    18 C20A     1.9372   4.7622   2.7654   C.ar      1 RES1   0.0000
    19 H11A     1.2303   4.6204   2.1776   H         1 RES1   0.0000
    20 C21A     1.9100   5.8378   3.6113   C.ar      1 RES1   0.0000
    21 H12A     1.1954   6.4326   3.5793   H         1 RES1   0.0000
    22 C22A     2.9390   6.0486   4.5168   C.ar      1 RES1   0.0000
    23 H13A     2.9224   6.7845   5.0850   H         1 RES1   0.0000
    24 C17F     5.6343   3.9844   6.7360   C.ar      1 RES1   0.0000
    25 C18F     6.7185   4.0303   7.6317   C.ar      1 RES1   0.0000
    26 H9F      7.3062   4.7510   7.6204   H         1 RES1   0.0000
    27 C19F     6.9007   2.9987   8.5236   C.ar      1 RES1   0.0000
    28 H10F     7.6145   3.0200   9.1196   H         1 RES1   0.0000
    29 C20F     6.0286   1.9372   8.5341   C.ar      1 RES1   0.0000
    30 H11F     6.1704   1.2303   9.1219   H         1 RES1   0.0000
    31 C21F     4.9530   1.9100   7.6882   C.ar      1 RES1   0.0000
    32 H12F     4.3582   1.1954   7.7202   H         1 RES1   0.0000
    33 C22F     4.7421   2.9390   6.7827   C.ar      1 RES1   0.0000
    34 H13F     4.0062   2.9224   6.2145   H         1 RES1   0.0000
    35 C17G     5.1565   6.8064   6.7360   C.ar      1 RES1   0.0000
    36 C18G     4.0722   6.7604   7.6317   C.ar      1 RES1   0.0000
    37 H9G      3.4845   6.0398   7.6204   H         1 RES1   0.0000
    38 C19G     3.8901   7.7920   8.5236   C.ar      1 RES1   0.0000
    39 H10G     3.1763   7.7708   9.1196   H         1 RES1   0.0000
    40 C20G     4.7622   8.8536   8.5341   C.ar      1 RES1   0.0000
    41 H11G     4.6204   9.5604   9.1219   H         1 RES1   0.0000
    42 C21G     5.8378   8.8808   7.6882   C.ar      1 RES1   0.0000
    43 H12G     6.4326   9.5953   7.7202   H         1 RES1   0.0000
    44 C22G     6.0486   7.8518   6.7827   C.ar      1 RES1   0.0000
    45 H13G     6.7845   7.8683   6.2145   H         1 RES1   0.0000
    46 C1      10.4012   1.5897   1.3070   C.2       2 RES2   0.0000
    47 C2      10.7096   2.9018   0.7277   C.2       2 RES2   0.0000
    48 C3      10.2911   3.5197  -0.4467   C.2       2 RES2   0.0000
    49 H1       9.7503   3.0813  -1.0632   H         2 RES2   0.0000
    50 C4      10.7215   4.8237  -0.6516   C.2       2 RES2   0.0000
    51 H2      10.4499   5.2740  -1.4184   H         2 RES2   0.0000
    52 C5      11.5461   5.4746   0.2569   C.2       2 RES2   0.0000
    53 H3      11.8137   6.3488   0.0867   H         2 RES2   0.0000
    54 C6      11.9788   4.8381   1.4177   C.2       2 RES2   0.0000
    55 H4      12.5386   5.2672   2.0243   H         2 RES2   0.0000
    56 C7      11.5422   3.5409   1.6347   C.2       2 RES2   0.0000
    57 C8      11.7272   2.6146   2.7473   C.2       2 RES2   0.0000
    58 C9      12.5464   2.1249   4.8573   C.2       2 RES2   0.0000
    59 C10     13.3989   2.4247   6.0038   C.2       2 RES2   0.0000
    60 C11     14.2129   3.4964   6.3081   C.2       2 RES2   0.0000
    61 H5      14.2998   4.2168   5.7265   H         2 RES2   0.0000
    62 C12     14.8994   3.4589   7.5179   C.2       2 RES2   0.0000
    63 H6      15.4464   4.1717   7.7579   H         2 RES2   0.0000
    64 C13     14.7779   2.3692   8.3737   C.2       2 RES2   0.0000
    65 H7      15.2552   2.3685   9.1719   H         2 RES2   0.0000
    66 C14     13.9757   1.2940   8.0784   C.2       2 RES2   0.0000
    67 H8      13.9013   0.5692   8.6561   H         2 RES2   0.0000
    68 C15     13.2800   1.3393   6.8754   C.2       2 RES2   0.0000
    69 C16     12.3409   0.4120   6.2486   C.2       2 RES2   0.0000
    70 N1      11.9195   0.9205   5.0471   N.2       2 RES2   0.0000
    71 N2      12.4596   2.9349   3.8125   N.2       2 RES2   0.0000
    72 N3      11.0428   1.4641   2.5107   N.2       2 RES2   0.0000
    73 N4       9.5707   0.7418   0.7239   N.2       2 RES2   0.0000
    74 Fe1     10.7908   0.0000   3.7665   Fe        2 RES2   0.0000
    75 Cl1      8.9129   1.0957   4.4937   Cl        2 RES2  -1.0000
    76 C1D     11.1803  -1.5897   6.2260   C.2       2 RES2   0.0000
    77 C2D     10.8719  -2.9018   6.8053   C.2       2 RES2   0.0000
    78 C3D     11.2904  -3.5197   7.9797   C.2       2 RES2   0.0000
    79 H1D     11.8312  -3.0813   8.5962   H         2 RES2   0.0000
    80 C4D     10.8600  -4.8237   8.1846   C.2       2 RES2   0.0000
    81 H2D     11.1316  -5.2740   8.9514   H         2 RES2   0.0000
    82 C5D     10.0354  -5.4746   7.2761   C.2       2 RES2   0.0000
    83 H3D      9.7678  -6.3488   7.4463   H         2 RES2   0.0000
    84 C6D      9.6027  -4.8381   6.1153   C.2       2 RES2   0.0000
    85 H4D      9.0429  -5.2672   5.5087   H         2 RES2   0.0000
    86 C7D     10.0393  -3.5409   5.8983   C.2       2 RES2   0.0000
    87 C8D      9.8543  -2.6146   4.7857   C.2       2 RES2   0.0000
    88 C9D      9.0351  -2.1249   2.6757   C.2       2 RES2   0.0000
    89 C10D     8.1826  -2.4247   1.5292   C.2       2 RES2   0.0000
    90 C11D     7.3686  -3.4964   1.2249   C.2       2 RES2   0.0000
    91 H5D      7.2817  -4.2168   1.8065   H         2 RES2   0.0000
    92 C12D     6.6821  -3.4589   0.0151   C.2       2 RES2   0.0000
    93 H6D      6.1351  -4.1717  -0.2249   H         2 RES2   0.0000
    94 C13D     6.8036  -2.3692  -0.8407   C.2       2 RES2   0.0000
    95 H7D      6.3263  -2.3685  -1.6389   H         2 RES2   0.0000
    96 C14D     7.6058  -1.2940  -0.5454   C.2       2 RES2   0.0000
    97 H8D      7.6802  -0.5692  -1.1231   H         2 RES2   0.0000
    98 C15D     8.3015  -1.3393   0.6576   C.2       2 RES2   0.0000
    99 C16D     9.2406  -0.4120   1.2844   C.2       2 RES2   0.0000
   100 N1D      9.6620  -0.9205   2.4859   N.2       2 RES2   0.0000
   101 N2D      9.1219  -2.9349   3.7205   N.2       2 RES2   0.0000
   102 N3D     10.5387  -1.4641   5.0223   N.2       2 RES2   0.0000
   103 N4D     12.0108  -0.7418   6.8091   N.2       2 RES2   0.0000
   104 Cl1D    12.6686  -1.0957   3.0393   Cl        2 RES2   0.0000
@<TRIPOS>BOND
     1     1     2   ar
     2     2     3    1
     3     4     2   ar
     4     5     4    1
     5     6     4   ar
     6     7     6    1
     7     8     6   ar
     8     9     8    1
     9    10     1   ar
    10    11    10    1
    11    12     1    1
    12    13    12    1
    13    14    13   ar
    14    15    14    1
    15    16    14   ar
    16    17    16    1
    17    18    16   ar
    18    19    18    1
    19    20    18   ar
    20    21    20    1
    21    22    13   ar
    22    23    22    1
    23    24    12    1
    24    25    24   ar
    25    26    25    1
    26    27    25   ar
    27    28    27    1
    28    29    27   ar
    29    30    29    1
    30    31    29   ar
    31    32    31    1
    32    33    24   ar
    33    34    33    1
    34    35    12    1
    35    36    35   ar
    36    37    36    1
    37    38    36   ar
    38    39    38    1
    39    40    38   ar
    40    41    40    1
    41    42    40   ar
    42    43    42    1
    43    44    35   ar
    44    45    44    1
    45     8    10   ar
    46    20    22   ar
    47    31    33   ar
    48    42    44   ar
    49    46    47    1
    50    47    48    1
    51    48    49    1
    52    50    48    2
    53    51    50    1
    54    52    50    1
    55    53    52    1
    56    54    52    2
    57    55    54    1
    58    56    47    2
    59    57    56    1
    60    58    59    2
    61    59    60    1
    62    60    61    1
    63    62    60    2
    64    63    62    1
    65    64    62    1
    66    65    64    1
    67    66    64    2
    68    67    66    1
    69    68    59    1
    70    69    68    2
    71    70    58    1
    72    71    57    2
    73    72    46    2
    74    73    46    1
    75    74    70    1
    76    75    74    1
    77    76    77    1
    78    77    78    1
    79    78    79    1
    80    80    78    2
    81    81    80    1
    82    82    80    1
    83    83    82    1
    84    84    82    2
    85    85    84    1
    86    86    77    2
    87    87    86    1
    88    88    89    1
    89    89    90    1
    90    90    91    1
    91    92    90    2
    92    93    92    1
    93    94    92    1
    94    95    94    1
    95    96    94    2
    96    97    96    1
    97    98    89    2
    98    99    73    2
    99   100    74    1
   100   101    87    1
   101   102    74    1
   102   103    69    1
   103   104    74    1
   104    54    56    1
   105    57    72    1
   106    58    71    1
   107    66    68    1
   108    69    70    1
   109    72    74    1
   110    76   102    1
   111    76   103    2
   112    84    86    1
   113    87   102    2
   114    88   100    1
   115    88   101    2
   116    96    98    1
   117    98    99    1
   118    99   100    1
@<TRIPOS>SUBSTRUCTURE
     1 RES1        1 GROUP             0 ****  ****    0  
     2 RES2       46 GROUP             0 ****  ****    0  
