@<TRIPOS>MOLECULE
BONHAO
   128   144     2     0     0
SMALL
USER_CHARGES
****
Generated from the CSD

@<TRIPOS>ATOM
     1 Fe1      0.0000   0.0000   0.0000   Fe        1 RES1   0.0000
     2 Cl1      0.6946  -0.8533   2.0115   Cl        1 RES1  -1.0000
     3 N1      -0.0471  -1.7834  -0.7713   N.2       1 RES1   0.0000
     4 N2       2.1818  -1.9021  -1.7118   N.2       1 RES1   0.0000
     5 N3       1.8381   0.2101  -0.5869   N.2       1 RES1   0.0000
     6 N4       2.3094   2.4610   0.2117   N.2       1 RES1   0.0000
     7 C1       0.9721  -2.3832  -1.4618   C.2       1 RES1   0.0000
     8 C2       2.5605  -0.7003  -1.2967   C.2       1 RES1   0.0000
     9 C3       3.8945  -0.1730  -1.5754   C.2       1 RES1   0.0000
    10 C4       4.9850  -0.7102  -2.2405   C.2       1 RES1   0.0000
    11 C5       6.1277   0.0844  -2.3158   C.2       1 RES1   0.0000
    12 C6       6.1502   1.3707  -1.7931   C.2       1 RES1   0.0000
    13 C7       5.0557   1.9182  -1.1567   C.2       1 RES1   0.0000
    14 C8       3.9196   1.1145  -1.0407   C.2       1 RES1   0.0000
    15 C9       2.6286   1.3285  -0.4163   C.2       1 RES1   0.0000
    16 C10      1.1230   2.6461   0.7596   C.2       1 RES1   0.0000
    17 C11      0.7619   3.8580   1.4893   C.2       1 RES1   0.0000
    18 C12      1.4760   5.0320   1.7644   C.2       1 RES1   0.0000
    19 C13      0.8381   6.0077   2.5072   C.2       1 RES1   0.0000
    20 C14     -0.4768   5.8272   2.9630   C.2       1 RES1   0.0000
    21 C15     -1.1897   4.6704   2.6831   C.2       1 RES1   0.0000
    22 C16     -0.5407   3.6851   1.9343   C.2       1 RES1   0.0000
    23 H1       4.9513  -1.5779  -2.6245   H         1 RES1   0.0000
    24 H2       6.9091  -0.2579  -2.7321   H         1 RES1   0.0000
    25 H3       6.9389   1.8937  -1.8732   H         1 RES1   0.0000
    26 H4       5.0707   2.8055  -0.8158   H         1 RES1   0.0000
    27 H5       2.3665   5.1457   1.4558   H         1 RES1   0.0000
    28 H6       1.2954   6.8168   2.7082   H         1 RES1   0.0000
    29 H7      -0.8872   6.5121   3.4773   H         1 RES1   0.0000
    30 H8      -2.0843   4.5522   2.9797   H         1 RES1   0.0000
    31 Cl1A    -0.6946   0.8533  -2.0115   Cl        1 RES1   0.0000
    32 N1A      0.0471   1.7834   0.7713   N.2       1 RES1   0.0000
    33 N2A     -2.1818   1.9021   1.7118   N.2       1 RES1   0.0000
    34 N3A     -1.8381  -0.2101   0.5869   N.2       1 RES1   0.0000
    35 N4A     -2.3094  -2.4610  -0.2117   N.2       1 RES1   0.0000
    36 C1A     -0.9721   2.3832   1.4618   C.2       1 RES1   0.0000
    37 C2A     -2.5605   0.7003   1.2967   C.2       1 RES1   0.0000
    38 C3A     -3.8945   0.1730   1.5754   C.2       1 RES1   0.0000
    39 C4A     -4.9850   0.7102   2.2405   C.2       1 RES1   0.0000
    40 C5A     -6.1277  -0.0844   2.3158   C.2       1 RES1   0.0000
    41 C6A     -6.1502  -1.3707   1.7931   C.2       1 RES1   0.0000
    42 C7A     -5.0557  -1.9182   1.1567   C.2       1 RES1   0.0000
    43 C8A     -3.9196  -1.1145   1.0407   C.2       1 RES1   0.0000
    44 C9A     -2.6286  -1.3285   0.4163   C.2       1 RES1   0.0000
    45 C10A    -1.1230  -2.6461  -0.7596   C.2       1 RES1   0.0000
    46 C11A    -0.7619  -3.8580  -1.4893   C.2       1 RES1   0.0000
    47 C12A    -1.4760  -5.0320  -1.7644   C.2       1 RES1   0.0000
    48 C13A    -0.8381  -6.0077  -2.5072   C.2       1 RES1   0.0000
    49 C14A     0.4768  -5.8272  -2.9630   C.2       1 RES1   0.0000
    50 C15A     1.1897  -4.6704  -2.6831   C.2       1 RES1   0.0000
    51 C16A     0.5407  -3.6851  -1.9343   C.2       1 RES1   0.0000
    52 H1A     -4.9513   1.5779   2.6245   H         1 RES1   0.0000
    53 H2A     -6.9091   0.2579   2.7321   H         1 RES1   0.0000
    54 H3A     -6.9389  -1.8937   1.8732   H         1 RES1   0.0000
    55 H4A     -5.0707  -2.8055   0.8158   H         1 RES1   0.0000
    56 H5A     -2.3665  -5.1457  -1.4558   H         1 RES1   0.0000
    57 H6A     -1.2954  -6.8168  -2.7082   H         1 RES1   0.0000
    58 H7A      0.8872  -6.5121  -3.4773   H         1 RES1   0.0000
    59 H8A      2.0843  -4.5522  -2.9797   H         1 RES1   0.0000
    60 P1       4.6056   3.7388   6.7394   P.3       2 RES2   0.0000
    61 N5       4.8756   5.0625   5.9810   N.1       2 RES2   1.0000
    62 C17      4.2421   4.0718   8.4583   C.ar      2 RES2   0.0000
    63 C18      4.7884   5.2181   9.0445   C.ar      2 RES2   0.0000
    64 C19      4.5524   5.5043  10.3782   C.ar      2 RES2   0.0000
    65 C20      3.7838   4.6381  11.1318   C.ar      2 RES2   0.0000
    66 C21      3.2478   3.5007  10.5720   C.ar      2 RES2   0.0000
    67 C22      3.4719   3.2103   9.2347   C.ar      2 RES2   0.0000
    68 C23      6.0216   2.6398   6.6568   C.ar      2 RES2   0.0000
    69 C24      6.3600   1.7927   7.6987   C.ar      2 RES2   0.0000
    70 C25      7.4613   0.9730   7.5923   C.ar      2 RES2   0.0000
    71 C26      8.2352   0.9933   6.4475   C.ar      2 RES2   0.0000
    72 C27      7.8857   1.8093   5.3901   C.ar      2 RES2   0.0000
    73 C28      6.7961   2.6449   5.4953   C.ar      2 RES2   0.0000
    74 C29      3.1963   2.8818   6.0264   C.ar      2 RES2   0.0000
    75 C30      3.2505   1.5613   5.6496   C.ar      2 RES2   0.0000
    76 C31      2.1352   0.9808   5.0049   C.ar      2 RES2   0.0000
    77 C32      1.0396   1.7039   4.7525   C.ar      2 RES2   0.0000
    78 C33      0.9587   3.0092   5.1365   C.ar      2 RES2   0.0000
    79 C34      2.0554   3.6189   5.7669   C.ar      2 RES2   0.0000
    80 H9       5.3274   5.7967   8.5169   H         2 RES2   0.0000
    81 H10      4.9248   6.2863  10.7706   H         2 RES2   0.0000
    82 H11      3.6139   4.8354  12.0457   H         2 RES2   0.0000
    83 H12      2.7264   2.9096  11.1019   H         2 RES2   0.0000
    84 H13      3.0979   2.4306   8.8411   H         2 RES2   0.0000
    85 H14      5.8200   1.7801   8.4810   H         2 RES2   0.0000
    86 H15      7.6940   0.3965   8.3100   H         2 RES2   0.0000
    87 H16      9.0066   0.4418   6.3817   H         2 RES2   0.0000
    88 H17      8.4022   1.8032   4.5922   H         2 RES2   0.0000
    89 H18      6.5597   3.2202   4.7776   H         2 RES2   0.0000
    90 H19      4.0278   1.0443   5.8243   H         2 RES2   0.0000
    91 H20      2.1563   0.0641   4.7561   H         2 RES2   0.0000
    92 H21      0.3167   1.3014   4.2836   H         2 RES2   0.0000
    93 H22      0.1594   3.5011   4.9917   H         2 RES2   0.0000
    94 H23      2.0222   4.5355   6.0169   H         2 RES2   0.0000
    95 P1A      5.1456   6.3861   5.2226   P.3       2 RES2   0.0000
    96 C17A     5.5091   6.0532   3.5037   C.ar      2 RES2   0.0000
    97 C18A     4.9628   4.9069   2.9175   C.ar      2 RES2   0.0000
    98 C19A     5.1988   4.6206   1.5838   C.ar      2 RES2   0.0000
    99 C20A     5.9675   5.4868   0.8302   C.ar      2 RES2   0.0000
   100 C21A     6.5035   6.6243   1.3900   C.ar      2 RES2   0.0000
   101 C22A     6.2794   6.9147   2.7273   C.ar      2 RES2   0.0000
   102 C23A     3.7297   7.4851   5.3051   C.ar      2 RES2   0.0000
   103 C24A     3.3913   8.3322   4.2633   C.ar      2 RES2   0.0000
   104 C25A     2.2900   9.1520   4.3697   C.ar      2 RES2   0.0000
   105 C26A     1.5160   9.1317   5.5145   C.ar      2 RES2   0.0000
   106 C27A     1.8656   8.3156   6.5719   C.ar      2 RES2   0.0000
   107 C28A     2.9552   7.4801   6.4667   C.ar      2 RES2   0.0000
   108 C29A     6.5550   7.2432   5.9355   C.ar      2 RES2   0.0000
   109 C30A     6.5008   8.5637   6.3123   C.ar      2 RES2   0.0000
   110 C31A     7.6161   9.1441   6.9571   C.ar      2 RES2   0.0000
   111 C32A     8.7117   8.4211   7.2095   C.ar      2 RES2   0.0000
   112 C33A     8.7925   7.1157   6.8255   C.ar      2 RES2   0.0000
   113 C34A     7.6958   6.5060   6.1951   C.ar      2 RES2   0.0000
   114 H9A      4.4239   4.3283   3.4451   H         2 RES2   0.0000
   115 H10A     4.8264   3.8386   1.1914   H         2 RES2   0.0000
   116 H11A     6.1373   5.2896  -0.0837   H         2 RES2   0.0000
   117 H12A     7.0249   7.2154   0.8601   H         2 RES2   0.0000
   118 H13A     6.6533   7.6943   3.1209   H         2 RES2   0.0000
   119 H14A     3.9313   8.3449   3.4809   H         2 RES2   0.0000
   120 H15A     2.0572   9.7285   3.6520   H         2 RES2   0.0000
   121 H16A     0.7446   9.6831   5.5803   H         2 RES2   0.0000
   122 H17A     1.3491   8.3217   7.3698   H         2 RES2   0.0000
   123 H18A     3.1916   6.9047   7.1844   H         2 RES2   0.0000
   124 H19A     5.7234   9.0806   6.1377   H         2 RES2   0.0000
   125 H20A     7.5950  10.0608   7.2059   H         2 RES2   0.0000
   126 H21A     9.4345   8.8235   7.6784   H         2 RES2   0.0000
   127 H22A     9.5918   6.6239   6.9703   H         2 RES2   0.0000
   128 H23A     7.7291   5.5894   5.9451   H         2 RES2   0.0000
@<TRIPOS>BOND
     1     1     2    1
     2     3     1    1
     3     4     7    1
     4     5     1    1
     5     6    15    2
     6     7     3    2
     7     8     4    2
     8     9     8    1
     9    10     9    1
    10    11    10    2
    11    12    11    1
    12    13    12    2
    13    14     9    2
    14    15     5    1
    15    16     6    1
    16    17    16    1
    17    18    17    1
    18    19    18    2
    19    20    19    1
    20    21    20    2
    21    22    17    2
    22    23    10    1
    23    24    11    1
    24    25    12    1
    25    26    13    1
    26    27    18    1
    27    28    19    1
    28    29    20    1
    29    30    21    1
    30    31     1    1
    31    32     1    1
    32    33    36    2
    33    34     1    1
    34    35    44    1
    35    36    22    1
    36    37    33    1
    37    38    37    2
    38    39    38    1
    39    40    39    2
    40    41    40    1
    41    42    41    2
    42    43    38    1
    43    44    34    1
    44    45     3    1
    45    46    45    1
    46    47    46    1
    47    48    47    2
    48    49    48    1
    49    50    49    2
    50    51     7    1
    51    52    39    1
    52    53    40    1
    53    54    41    1
    54    55    42    1
    55    56    47    1
    56    57    48    1
    57    58    49    1
    58    59    50    1
    59     5     8    1
    60    13    14    1
    61    14    15    1
    62    16    32    2
    63    21    22    1
    64    32    36    1
    65    34    37    1
    66    35    45    2
    67    42    43    1
    68    43    44    2
    69    46    51    2
    70    50    51    1
    71    60    61    2
    72    61    95    2
    73    62    60    1
    74    63    62   ar
    75    64    63   ar
    76    65    64   ar
    77    66    65   ar
    78    67    62   ar
    79    68    60    1
    80    69    68   ar
    81    70    69   ar
    82    71    70   ar
    83    72    71   ar
    84    73    68   ar
    85    74    60    1
    86    75    74   ar
    87    76    75   ar
    88    77    76   ar
    89    78    77   ar
    90    79    74   ar
    91    80    63    1
    92    81    64    1
    93    82    65    1
    94    83    66    1
    95    84    67    1
    96    85    69    1
    97    86    70    1
    98    87    71    1
    99    88    72    1
   100    89    73    1
   101    90    75    1
   102    91    76    1
   103    92    77    1
   104    93    78    1
   105    94    79    1
   106    95    96    1
   107    96    97   ar
   108    97    98   ar
   109    98    99   ar
   110    99   100   ar
   111   100   101   ar
   112   101    96   ar
   113   102    95    1
   114   103   102   ar
   115   104   103   ar
   116   105   104   ar
   117   106   105   ar
   118   107   102   ar
   119   108    95    1
   120   109   108   ar
   121   110   109   ar
   122   111   110   ar
   123   112   111   ar
   124   113   108   ar
   125   114    97    1
   126   115    98    1
   127   116    99    1
   128   117   100    1
   129   118   101    1
   130   119   103    1
   131   120   104    1
   132   121   105    1
   133   122   106    1
   134   123   107    1
   135   124   109    1
   136   125   110    1
   137   126   111    1
   138   127   112    1
   139   128   113    1
   140    66    67   ar
   141    72    73   ar
   142    78    79   ar
   143   106   107   ar
   144   112   113   ar
@<TRIPOS>SUBSTRUCTURE
     1 RES1        1 GROUP             0 ****  ****    0  
     2 RES2       60 GROUP             0 ****  ****    0  
@<TRIPOS>CRYSIN
   10.5010   12.2320   12.9380   85.7100   68.1600   66.1900     2     1
