@<TRIPOS>MOLECULE
BONZUA
   103   107     7     0     0
SMALL
USER_CHARGES
****
Generated from the CSD

@<TRIPOS>ATOM
     1 F1       2.5469   4.0606  -0.7949   F         1 RES1   0.0000
     2 O1       0.6285  -0.1492   5.3125   O.co2     1 RES1   0.0000
     3 O2       1.7535   2.1862   5.3424   O.co2     1 RES1  -1.0000
     4 O3       3.6757   1.3599   6.0527   O.co2     1 RES1   0.0000
     5 O4       2.4317  -1.1015   6.1919   O.co2     1 RES1   0.0000
     6 O5      -0.6472   1.6859   6.9508   O.co2     1 RES1  -1.0000
     7 O6      -0.7633   3.5552   5.1675   O.co2     1 RES1   0.0000
     8 O7      -1.1056   3.1037   8.6049   O.co2     1 RES1   0.0000
     9 O8      -1.4805   5.0362   6.6601   O.co2     1 RES1   0.0000
    10 O9       0.1845   1.9885   3.0315   O.2       1 RES1   0.0000
    11 O10     -1.8448   0.7952   4.4734   O.co2     1 RES1   0.0000
    12 O11     -3.5722   0.0753   3.3105   O.co2     1 RES1   0.0000
    13 C1      -0.9328   2.8422   7.4302   C.2       1 RES1   0.0000
    14 C2      -1.0728   3.9397   6.3487   C.2       1 RES1   0.0000
    15 C3       1.8150  -0.1456   5.7752   C.2       1 RES1   0.0000
    16 C4       2.4952   1.2443   5.7421   C.2       1 RES1   0.0000
    17 C5      -2.4690   0.6110   3.3719   C.2       1 RES1   0.0000
    18 C6      -2.5425   0.8761   0.9538   C.2       1 RES1   0.0000
    19 H1      -3.3742   0.4655   1.0285   H         1 RES1   0.0000
    20 C7      -1.8222   1.0760   2.1042   C.2       1 RES1   0.0000
    21 C8      -0.5634   1.7362   2.0246   C.2       1 RES1   0.0000
    22 C9      -0.1248   2.1385   0.7141   C.ar      1 RES1   0.0000
    23 C10      1.0747   2.8601   0.5375   C.ar      1 RES1   0.0000
    24 H2       1.6108   3.0507   1.2739   H         1 RES1   0.0000
    25 C11      1.4512   3.2759  -0.6901   C.ar      1 RES1   0.0000
    26 C12      0.7096   2.9965  -1.8771   C.ar      1 RES1   0.0000
    27 C13     -0.4854   2.2989  -1.6958   C.ar      1 RES1   0.0000
    28 H3      -1.0137   2.1039  -2.4354   H         1 RES1   0.0000
    29 C14     -0.9055   1.8857  -0.4283   C.ar      1 RES1   0.0000
    30 C15     -3.0550   1.0903  -1.3959   C.3       1 RES1   0.0000
    31 H4      -3.4539   1.9262  -1.7157   H         1 RES1   0.0000
    32 C16     -2.7767   0.0899  -2.4354   C.3       1 RES1   0.0000
    33 H5      -1.9997  -0.4777  -2.3201   H         1 RES1   0.0000
    34 H6      -2.9815   0.3239  -3.3546   H         1 RES1   0.0000
    35 C17     -3.9180  -0.0927  -1.4940   C.3       1 RES1   0.0000
    36 H7      -4.8153   0.0291  -1.8413   H         1 RES1   0.0000
    37 H8      -3.8334  -0.7724  -0.8069   H         1 RES1   0.0000
    38 C18      2.4869   3.2294  -3.5381   C.3       1 RES1   0.0000
    39 H9       2.5636   2.3006  -3.8053   H         1 RES1   0.0000
    40 H10      3.0924   3.3796  -2.7960   H         1 RES1   0.0000
    41 C19      2.8844   4.1232  -4.7007   C.3       1 RES1   0.0000
    42 H11      2.8921   5.0490  -4.4127   H         1 RES1   0.0000
    43 H12      3.7778   3.8915  -4.9994   H         1 RES1   0.0000
    44 C20      0.5532   4.2687  -5.3608   C.3       1 RES1   0.0000
    45 H13     -0.0689   4.1473  -6.0959   H         1 RES1   0.0000
    46 H14      0.5085   5.1962  -5.0792   H         1 RES1   0.0000
    47 C21      0.1552   3.3727  -4.2107   C.3       1 RES1   0.0000
    48 H15     -0.7318   3.6159  -3.9028   H         1 RES1   0.0000
    49 H16      0.1270   2.4520  -4.5117   H         1 RES1   0.0000
    50 Fe1     -0.1526   1.6654   4.9751   Fe        1 RES1   0.0000
    51 N1       1.9261   3.9553  -5.8182   N.4       1 RES1   1.0000
    52 H17      2.1519   4.5028  -6.4949   H         1 RES1   0.0000
    53 H18      1.9583   3.1081  -6.1210   H         1 RES1   0.0000
    54 N2       1.1103   3.4979  -3.1040   N.3       1 RES1   0.0000
    55 N3      -2.1327   1.2302  -0.2641   N.pl3     1 RES1   0.0000
    56 O12     -8.4837   3.0491  17.8284   O.3       2 RES2   0.0000
    57 H19     -7.7802   3.4693  17.8473   H         2 RES2   0.0000
    58 O13     -9.9475   2.4134  16.3028   O.2       2 RES2   0.0000
    59 O14     -6.3926   4.2938  17.1373   O.2       2 RES2   0.0000
    60 C22     -8.9121   2.9592  16.5734   C.2       2 RES2   0.0000
    61 C23     -6.7666   4.1807  15.9324   C.2       2 RES2   0.0000
    62 C24     -8.0010   3.5636  15.5600   C.2       2 RES2   0.0000
    63 C25     -8.3749   3.5167  14.2481   C.2       2 RES2   0.0000
    64 H20     -9.2026   3.1455  14.0405   H         2 RES2   0.0000
    65 C26     -8.1153   3.9574  11.8684   C.3       2 RES2   0.0000
    66 H21     -8.3306   4.8337  11.4854   H         2 RES2   0.0000
    67 C27     -8.9875   2.8330  11.4233   C.3       2 RES2   0.0000
    68 H22     -9.7140   3.0374  10.8130   H         2 RES2   0.0000
    69 H23     -9.1747   2.1258  12.0588   H         2 RES2   0.0000
    70 C28     -7.5909   2.9618  10.9120   C.3       2 RES2   0.0000
    71 H24     -6.9323   2.3280  11.2371   H         2 RES2   0.0000
    72 H25     -7.4715   3.2397   9.9913   H         2 RES2   0.0000
    73 C29     -6.3780   4.5816  13.5103   C.ar      2 RES2   0.0000
    74 C30     -5.5754   5.0711  12.4650   C.ar      2 RES2   0.0000
    75 H26     -5.8571   4.9612  11.5859   H         2 RES2   0.0000
    76 C31     -4.3640   5.7201  12.7177   C.ar      2 RES2   0.0000
    77 C32     -4.0214   5.8727  14.0885   C.ar      2 RES2   0.0000
    78 C33     -4.7495   5.3578  15.1001   C.ar      2 RES2   0.0000
    79 H27     -4.4467   5.4439  15.9749   H         2 RES2   0.0000
    80 C34     -5.9602   4.6926  14.8437   C.ar      2 RES2   0.0000
    81 C35     -4.1004   6.5024  10.3837   C.3       2 RES2   0.0000
    82 H28     -3.9003   7.4170  10.1288   H         2 RES2   0.0000
    83 H29     -5.0648   6.3970  10.3889   H         2 RES2   0.0000
    84 C36     -3.5046   5.5629   9.3677   C.3       2 RES2   0.0000
    85 H30     -3.7414   4.6467   9.5835   H         2 RES2   0.0000
    86 H31     -3.8497   5.7672   8.4840   H         2 RES2   0.0000
    87 C37     -1.4755   5.4779  10.7347   C.3       2 RES2   0.0000
    88 H32     -0.5206   5.6443  10.7273   H         2 RES2   0.0000
    89 H33     -1.6155   4.5475  10.9711   H         2 RES2   0.0000
    90 C38     -2.1209   6.3513  11.7662   C.3       2 RES2   0.0000
    91 H34     -1.8106   6.0903  12.6469   H         2 RES2   0.0000
    92 H35     -1.8553   7.2726  11.6169   H         2 RES2   0.0000
    93 F2      -2.9399   6.6381  14.3997   F         2 RES2   0.0000
    94 N4      -2.0231   5.7241   9.3853   N.4       2 RES2   1.0000
    95 H36     -1.6523   5.1467   8.8017   H         2 RES2   0.0000
    96 H37     -1.8102   6.5586   9.1239   H         2 RES2   0.0000
    97 N5      -3.5857   6.2546  11.7183   N.pl3     2 RES2   0.0000
    98 N6      -7.6139   3.9795  13.2369   N.pl3     2 RES2   0.0000
    99 O15     -3.3114   7.3587   6.2318   O.3       3 RES3   0.0000
   100 O16     -2.3080  10.1312   6.2363   O.3       4 RES4   0.0000
   101 O17     -5.5912  11.1046   8.3398   O.3       5 RES5   0.0000
   102 O18      3.0010  -0.7908  11.1957   O.3       6 RES6   0.0000
   103 O19      5.2610  -1.2005   5.2033   O.3       7 RES7   0.0000
@<TRIPOS>BOND
     1     1    25    1
     2     2    15    1
     3     3    16    1
     4     4    16    2
     5     5    15    2
     6     6    13    1
     7     7    14    1
     8     8    13    2
     9     9    14    2
    10    10    21    2
    11    11    17    1
    12    12    17    2
    13    13    14    1
    14    15    16    1
    15    17    20    1
    16    18    19    1
    17    20    18    2
    18    21    20    1
    19    22    21    1
    20    23    22   ar
    21    24    23    1
    22    25    23   ar
    23    26    25   ar
    24    27    26   ar
    25    28    27    1
    26    29    22   ar
    27    30    31    1
    28    32    30    1
    29    33    32    1
    30    34    32    1
    31    35    30    1
    32    36    35    1
    33    37    35    1
    34    38    39    1
    35    40    38    1
    36    41    38    1
    37    42    41    1
    38    43    41    1
    39    44    45    1
    40    46    44    1
    41    47    44    1
    42    48    47    1
    43    49    47    1
    44    50     2    1
    45    51    41    1
    46    52    51    1
    47    53    51    1
    48    54    26    1
    49    55    18    1
    50     3    50    1
    51     6    50    1
    52     7    50    1
    53    10    50    1
    54    11    50    1
    55    27    29   ar
    56    29    55    1
    57    30    55    1
    58    32    35    1
    59    38    54    1
    60    44    51    1
    61    47    54    1
    62    56    57    1
    63    58    60    2
    64    59    61    2
    65    60    56    1
    66    61    62    1
    67    62    60    1
    68    63    62    2
    69    64    63    1
    70    65    66    1
    71    67    65    1
    72    68    67    1
    73    69    67    1
    74    70    65    1
    75    71    70    1
    76    72    70    1
    77    73    74   ar
    78    74    75    1
    79    76    74   ar
    80    77    76   ar
    81    78    77   ar
    82    79    78    1
    83    80    61    1
    84    81    82    1
    85    83    81    1
    86    84    81    1
    87    85    84    1
    88    86    84    1
    89    87    88    1
    90    89    87    1
    91    90    87    1
    92    91    90    1
    93    92    90    1
    94    93    77    1
    95    94    84    1
    96    95    94    1
    97    96    94    1
    98    97    76    1
    99    98    63    1
   100    65    98    1
   101    67    70    1
   102    73    80   ar
   103    73    98    1
   104    78    80   ar
   105    81    97    1
   106    87    94    1
   107    90    97    1
@<TRIPOS>SUBSTRUCTURE
     1 RES1        1 GROUP             0 ****  ****    0  
     2 RES2       56 GROUP             0 ****  ****    0  
     3 RES3       99 GROUP             0 ****  ****    0  
     4 RES4      100 GROUP             0 ****  ****    0  
     5 RES5      101 GROUP             0 ****  ****    0  
     6 RES6      102 GROUP             0 ****  ****    0  
     7 RES7      103 GROUP             0 ****  ****    0  
@<TRIPOS>CRYSIN
   10.3430   14.9010   15.6840  100.5020  101.7690  109.5240     2     1
