@<TRIPOS>MOLECULE
BOPMUO01
   145   136    15     0     0
SMALL
NO_CHARGES
****
Generated from the CSD

@<TRIPOS>ATOM
     1 Fe1      7.8356   3.4333  11.0766   Fe        1 RES1   0.0000
     2 O1       6.0833   3.4613  10.0896   O.3       1 RES1   0.0000
     3 O2       8.3451   4.4366   9.3922   O.2       1 RES1   0.0000
     4 O3       8.0312   1.5463  10.4767   O.3       1 RES1   0.0000
     5 O4       9.7231   3.0142  11.6237   O.2       1 RES1   0.0000
     6 O5       6.9648   2.8587  12.7521   O.3       1 RES1   0.0000
     7 O6       7.5866   5.2029  12.0437   O.2       1 RES1   0.0000
     8 N1       4.8600  -0.6590   6.4753   N.am      1 RES1   0.0000
     9 H1       4.0520  -0.7346   6.7593   H         1 RES1   0.0000
    10 C1       5.8945  -0.2903   7.4205   C.3       1 RES1   0.0000
    11 H2       6.7183  -0.7511   7.1541   H         1 RES1   0.0000
    12 C2       5.4731  -0.8419   8.7978   C.2       1 RES1   0.0000
    13 O7       4.5869  -1.6962   8.8790   O.2       1 RES1   0.0000
    14 C3       6.1831   1.2202   7.4194   C.3       1 RES1   0.0000
    15 H3       6.9033   1.4101   8.0423   H         1 RES1   0.0000
    16 H4       6.4738   1.4913   6.5345   H         1 RES1   0.0000
    17 C4       4.9584   2.0113   7.8109   C.3       1 RES1   0.0000
    18 H5       4.6559   1.7127   8.6827   H         1 RES1   0.0000
    19 H6       4.2502   1.8283   7.1738   H         1 RES1   0.0000
    20 C5       5.2009   3.5300   7.8613   C.3       1 RES1   0.0000
    21 H7       5.4278   3.8492   6.9742   H         1 RES1   0.0000
    22 H8       4.3869   3.9758   8.1399   H         1 RES1   0.0000
    23 N2       6.2753   3.8671   8.7836   N.am      1 RES1   0.0000
    24 C6       7.4556   4.3665   8.4853   C.2       1 RES1   0.0000
    25 C7       7.7079   4.8480   7.0915   C.2       1 RES1   0.0000
    26 H9       7.0360   5.3405   6.6770   H         1 RES1   0.0000
    27 C8       8.8092   4.6251   6.4084   C.2       1 RES1   0.0000
    28 C9       9.9803   3.8203   6.8821   C.3       1 RES1   0.0000
    29 H10     10.6557   3.8038   6.1989   H         1 RES1   0.0000
    30 H11      9.6964   2.9220   7.0718   H         1 RES1   0.0000
    31 H12     10.3391   4.2165   7.6782   H         1 RES1   0.0000
    32 C10      8.9681   5.1713   5.0004   C.3       1 RES1   0.0000
    33 H13      9.2726   4.4545   4.4214   H         1 RES1   0.0000
    34 H14      8.0985   5.4588   4.6791   H         1 RES1   0.0000
    35 C11      9.9321   6.3282   4.8907   C.3       1 RES1   0.0000
    36 H15     10.7934   6.0723   5.2581   H         1 RES1   0.0000
    37 H16     10.0579   6.5635   3.9575   H         1 RES1   0.0000
    38 O8       9.4137   7.4563   5.6101   O.3       1 RES1   0.0000
    39 H17      8.6894   7.6723   5.2932   H         1 RES1   0.0000
    40 N3       6.1426  -0.4141   9.8670   N.am      1 RES1   0.0000
    41 H18      6.7681   0.1706   9.7880   H         1 RES1   0.0000
    42 C12      5.7892  -0.9630  11.1905   C.3       1 RES1   0.0000
    43 H19      5.7400  -1.9384  11.1149   H         1 RES1   0.0000
    44 C13      4.4188  -0.4485  11.6467   C.2       1 RES1   0.0000
    45 O9       3.5775  -1.2010  12.1391   O.2       1 RES1   0.0000
    46 C14      6.8369  -0.6191  12.2509   C.3       1 RES1   0.0000
    47 H20      6.5166  -0.9382  13.1085   H         1 RES1   0.0000
    48 H21      6.9042   0.3467  12.3080   H         1 RES1   0.0000
    49 C15      8.2436  -1.1845  12.0239   C.3       1 RES1   0.0000
    50 H22      8.1555  -2.1241  11.8035   H         1 RES1   0.0000
    51 H23      8.7235  -1.1322  12.8661   H         1 RES1   0.0000
    52 C16      9.1187  -0.5269  10.9405   C.3       1 RES1   0.0000
    53 H24     10.0277  -0.8557  11.0250   H         1 RES1   0.0000
    54 H25      8.7883  -0.7869  10.0666   H         1 RES1   0.0000
    55 N4       9.1300   0.9506  11.0337   N.am      1 RES1   0.0000
    56 C17     10.0098   1.7499  11.6072   C.2       1 RES1   0.0000
    57 C18     11.2742   1.2285  12.1117   C.2       1 RES1   0.0000
    58 H26     11.4686   0.3398  11.9165   H         1 RES1   0.0000
    59 C19     12.1789   1.8985  12.8255   C.2       1 RES1   0.0000
    60 C20     12.0240   3.2838  13.3694   C.3       1 RES1   0.0000
    61 H27     12.8188   3.5300  13.8464   H         1 RES1   0.0000
    62 H28     11.2715   3.3113  13.9660   H         1 RES1   0.0000
    63 H29     11.8816   3.8974  12.6457   H         1 RES1   0.0000
    64 C21     13.5185   1.2326  13.1063   C.3       1 RES1   0.0000
    65 H30     13.4523   0.2903  12.8858   H         1 RES1   0.0000
    66 H31     13.7110   1.3014  14.0548   H         1 RES1   0.0000
    67 C22     14.6742   1.8462  12.3211   C.3       1 RES1   0.0000
    68 H32     14.6950   2.8037  12.4768   H         1 RES1   0.0000
    69 H33     15.5120   1.4720  12.6380   H         1 RES1   0.0000
    70 O10     14.5445   1.5958  10.9076   O.3       1 RES1   0.0000
    71 H34     15.1781   1.9342  10.5107   H         1 RES1   0.0000
    72 N5       4.2146   0.8804  11.5305   N.am      1 RES1   0.0000
    73 H35      4.7493   1.3399  11.0392   H         1 RES1   0.0000
    74 C23      3.1173   1.5655  12.2104   C.3       1 RES1   0.0000
    75 H36      2.7743   0.9575  12.8979   H         1 RES1   0.0000
    76 C24      1.9532   1.9205  11.2914   C.2       1 RES1   0.0000
    77 O11      0.9728   2.5148  11.7662   O.2       1 RES1   0.0000
    78 C25      3.6876   2.8051  12.9330   C.3       1 RES1   0.0000
    79 H37      4.1994   3.3347  12.3036   H         1 RES1   0.0000
    80 H38      2.9529   3.3512  13.2565   H         1 RES1   0.0000
    81 C26      4.5772   2.4144  14.1041   C.3       1 RES1   0.0000
    82 H39      5.0984   1.6357  13.8563   H         1 RES1   0.0000
    83 H40      4.0168   2.1667  14.8564   H         1 RES1   0.0000
    84 C27      5.5197   3.5259  14.5340   C.3       1 RES1   0.0000
    85 H41      5.0061   4.2936  14.8323   H         1 RES1   0.0000
    86 H42      6.0659   3.2219  15.2764   H         1 RES1   0.0000
    87 N6       6.3871   3.9194  13.4155   N.am      1 RES1   0.0000
    88 C28      6.7521   5.1259  13.0141   C.2       1 RES1   0.0000
    89 C29      6.1249   6.2993  13.6293   C.2       1 RES1   0.0000
    90 H43      5.2864   6.1631  14.0065   H         1 RES1   0.0000
    91 C30      6.6140   7.5375  13.7138   C.2       1 RES1   0.0000
    92 C31      7.9787   7.9667  13.2225   C.3       1 RES1   0.0000
    93 H44      8.1009   8.9022  13.3947   H         1 RES1   0.0000
    94 H45      8.0428   7.8043  12.2783   H         1 RES1   0.0000
    95 H46      8.6562   7.4645  13.6809   H         1 RES1   0.0000
    96 C32      5.7734   8.6229  14.3947   C.3       1 RES1   0.0000
    97 H47      5.6899   9.3823  13.7993   H         1 RES1   0.0000
    98 H48      4.8826   8.2762  14.5647   H         1 RES1   0.0000
    99 C33      6.3855   9.0769  15.6942   C.3       1 RES1   0.0000
   100 H49      7.2366   9.5061  15.5143   H         1 RES1   0.0000
   101 H50      5.8035   9.7317  16.1098   H         1 RES1   0.0000
   102 O12      6.5865   8.0024  16.5846   O.3       1 RES1   0.0000
   103 H51      5.8668   7.6461  16.7513   H         1 RES1   0.0000
   104 N7       2.0275   1.5380  10.0249   N.am      1 RES1   0.0000
   105 H52      2.7639   1.1914   9.7475   H         1 RES1   0.0000
   106 C34      0.9274   1.6715   9.0742   C.3       1 RES1   0.0000
   107 H53      0.1025   1.3647   9.5073   H         1 RES1   0.0000
   108 C35      1.2497   0.7181   7.9206   C.2       1 RES1   0.0000
   109 O13      2.3026   0.0399   7.9228   O.2       1 RES1   0.0000
   110 C36      0.7216   3.0939   8.6092   C.3       1 RES1   0.0000
   111 H54     -0.0828   3.1366   8.0686   H         1 RES1   0.0000
   112 H55      0.5870   3.6621   9.3834   H         1 RES1   0.0000
   113 O14      1.8035   3.5933   7.8581   O.3       1 RES1   0.0000
   114 H56      1.9135   3.1270   7.1924   H         1 RES1   0.0000
   115 N8       0.3688   0.6548   6.9249   N.am      1 RES1   0.0000
   116 H57     -0.3118   1.1817   6.9150   H         1 RES1   0.0000
   117 C37      0.5653  -0.3288   5.8349   C.3       1 RES1   0.0000
   118 H58      0.4793  -1.2368   6.1924   H         1 RES1   0.0000
   119 C38      1.9191  -0.1610   5.2032   C.2       1 RES1   0.0000
   120 O15      2.3555   0.9492   4.8337   O.2       1 RES1   0.0000
   121 C39     -0.4820  -0.1059   4.7350   C.3       1 RES1   0.0000
   122 H59     -1.3603  -0.2050   5.1057   H         1 RES1   0.0000
   123 H60     -0.3539  -0.7525   4.0365   H         1 RES1   0.0000
   124 H61     -0.3840   0.7786   4.3742   H         1 RES1   0.0000
   125 N9       2.6130  -1.2725   5.0157   N.am      1 RES1   0.0000
   126 H62      2.2906  -2.0182   5.2954   H         1 RES1   0.0000
   127 C40      3.9172  -1.2711   4.3479   C.3       1 RES1   0.0000
   128 H63      3.8725  -0.6590   3.5968   H         1 RES1   0.0000
   129 H64      4.0768  -2.1585   3.9904   H         1 RES1   0.0000
   130 C41      5.1015  -0.8832   5.2109   C.2       1 RES1   0.0000
   131 O16      6.2356  -0.7786   4.6846   O.2       1 RES1   0.0000
   132 O17      2.4204   6.6364   1.4343   O.3       2 RES2   0.0000
   133 O18     11.6631   8.0905   7.0225   O.3       3 RES3   0.0000
   134 O19     18.3404   1.1501   1.2029   O.3       4 RES4   0.0000
   135 O20      1.2168   3.4021   5.1550   O.3       5 RES5   0.0000
   136 O21     18.3159   3.2315   4.8030   O.3       6 RES6   0.0000
   137 O22     17.7310   3.8368   2.1361   O.3       7 RES7   0.0000
   138 O23      0.2163   5.0695   1.2633   O.3       8 RES8   0.0000
   139 O24      2.8204   5.4175   4.0661   O.3       9 RES9   0.0000
   140 O25      4.5213   5.7174  -0.1996   O.3      10 RES10   0.0000
   141 O26     16.9048  -0.8309   2.4596   O.3      11 RES11   0.0000
   142 O27      4.3440   6.3227  17.0868   O.3      12 RES12   0.0000
   143 O28     17.6096   1.6852   7.1036   O.3      13 RES13   0.0000
   144 O29      3.1272  -3.9827  12.5119   O.3      14 RES14   0.0000
   145 O30      0.6158  -0.7580  12.1632   O.3      15 RES15   0.0000
@<TRIPOS>BOND
     1     1     2    1
     2     2    23    1
     3     3     1    1
     4     4     1    1
     5     5     1    1
     6     6     1    1
     7     7     1    1
     8     8     9    1
     9    10     8    1
    10    11    10    1
    11    12    10    1
    12    13    12    2
    13    14    10    1
    14    15    14    1
    15    16    14    1
    16    17    14    1
    17    18    17    1
    18    19    17    1
    19    20    17    1
    20    21    20    1
    21    22    20    1
    22    23    20    1
    23    24     3    2
    24    25    24    1
    25    26    25    1
    26    27    25    2
    27    28    27    1
    28    29    28    1
    29    30    28    1
    30    31    28    1
    31    32    27    1
    32    33    32    1
    33    34    32    1
    34    35    32    1
    35    36    35    1
    36    37    35    1
    37    38    35    1
    38    39    38    1
    39    40    12   am
    40    41    40    1
    41    42    40    1
    42    43    42    1
    43    44    42    1
    44    45    44    2
    45    46    42    1
    46    47    46    1
    47    48    46    1
    48    49    46    1
    49    50    49    1
    50    51    49    1
    51    52    49    1
    52    53    52    1
    53    54    52    1
    54    55     4    1
    55    56     5    2
    56    57    56    1
    57    58    57    1
    58    59    57    2
    59    60    59    1
    60    61    60    1
    61    62    60    1
    62    63    60    1
    63    64    59    1
    64    65    64    1
    65    66    64    1
    66    67    64    1
    67    68    67    1
    68    69    67    1
    69    70    67    1
    70    71    70    1
    71    72    44   am
    72    73    72    1
    73    74    72    1
    74    75    74    1
    75    76    74    1
    76    77    76    2
    77    78    74    1
    78    79    78    1
    79    80    78    1
    80    81    78    1
    81    82    81    1
    82    83    81    1
    83    84    81    1
    84    85    84    1
    85    86    84    1
    86    87     6    1
    87    88     7    2
    88    89    88    1
    89    90    89    1
    90    91    89    2
    91    92    91    1
    92    93    92    1
    93    94    92    1
    94    95    92    1
    95    96    91    1
    96    97    96    1
    97    98    96    1
    98    99    96    1
    99   100    99    1
   100   101    99    1
   101   102    99    1
   102   103   102    1
   103   104    76   am
   104   105   104    1
   105   106   104    1
   106   107   106    1
   107   108   106    1
   108   109   108    2
   109   110   106    1
   110   111   110    1
   111   112   110    1
   112   113   110    1
   113   114   113    1
   114   115   108   am
   115   116   115    1
   116   117   115    1
   117   118   117    1
   118   119   117    1
   119   120   119    2
   120   121   117    1
   121   122   121    1
   122   123   121    1
   123   124   121    1
   124   125   119   am
   125   126   125    1
   126   127   125    1
   127   128   127    1
   128   129   127    1
   129   130     8   am
   130   131   130    2
   131    23    24   am
   132    52    55    1
   133    55    56   am
   134    84    87    1
   135    87    88   am
   136   127   130    1
@<TRIPOS>SUBSTRUCTURE
     1 RES1        1 GROUP             0 ****  ****    0  
     2 RES2      132 GROUP             0 ****  ****    0  
     3 RES3      133 GROUP             0 ****  ****    0  
     4 RES4      134 GROUP             0 ****  ****    0  
     5 RES5      135 GROUP             0 ****  ****    0  
     6 RES6      136 GROUP             0 ****  ****    0  
     7 RES7      137 GROUP             0 ****  ****    0  
     8 RES8      138 GROUP             0 ****  ****    0  
     9 RES9      139 GROUP             0 ****  ****    0  
    10 RES10     140 GROUP             0 ****  ****    0  
    11 RES11     141 GROUP             0 ****  ****    0  
    12 RES12     142 GROUP             0 ****  ****    0  
    13 RES13     143 GROUP             0 ****  ****    0  
    14 RES14     144 GROUP             0 ****  ****    0  
    15 RES15     145 GROUP             0 ****  ****    0  
@<TRIPOS>CRYSIN
   19.9030   13.7570   10.9660   90.0000   90.3900   90.0000     4     1
