@<TRIPOS>MOLECULE
BPBPFE
   101   106     6     0     0
SMALL
USER_CHARGES
****
Generated from the CSD

@<TRIPOS>ATOM
     1 Fe1      3.2335   2.1422   2.9301   Fe        1 RES1   3.0000
     2 N1       1.6694   2.0455   4.1200   N.ar      1 RES1   0.0000
     3 N2       1.9396   3.0254   1.7447   N.ar      1 RES1   0.0000
     4 C1       1.6161   1.4587   5.3363   C.ar      1 RES1   0.0000
     5 C2       0.4436   1.3764   6.0452   C.ar      1 RES1   0.0000
     6 C3      -0.6893   1.9414   5.5378   C.ar      1 RES1   0.0000
     7 C4      -0.6588   2.5339   4.3005   C.ar      1 RES1   0.0000
     8 C5       0.5286   2.5702   3.5976   C.ar      1 RES1   0.0000
     9 C6       2.1916   3.5639   0.5264   C.ar      1 RES1   0.0000
    10 C7       1.2236   4.2011  -0.1985   C.ar      1 RES1   0.0000
    11 C8      -0.0597   4.2847   0.2978   C.ar      1 RES1   0.0000
    12 C9      -0.3354   3.7270   1.5321   C.ar      1 RES1   0.0000
    13 C10      0.6813   3.1211   2.2460   C.ar      1 RES1   0.0000
    14 H1       2.4420   1.0364   5.6351   H         1 RES1   0.0000
    15 H2       0.5350   0.8553   6.8684   H         1 RES1   0.0000
    16 H3      -1.5655   1.8880   5.9660   H         1 RES1   0.0000
    17 H4      -1.4366   3.0495   3.8904   H         1 RES1   0.0000
    18 H5       3.0110   3.4194   0.2005   H         1 RES1   0.0000
    19 H6       1.4867   4.4875  -0.9325   H         1 RES1   0.0000
    20 H7      -0.7174   4.7828  -0.2106   H         1 RES1   0.0000
    21 H8      -1.1261   3.6913   1.8449   H         1 RES1   0.0000
    22 N3       3.8344   3.9249   3.4713   N.ar      1 RES1   0.0000
    23 N4       4.7239   2.3096   1.6685   N.ar      1 RES1   0.0000
    24 C11      3.3239   4.6675   4.4690   C.ar      1 RES1   0.0000
    25 C12      3.9023   5.8441   4.8630   C.ar      1 RES1   0.0000
    26 C13      5.0125   6.2946   4.2183   C.ar      1 RES1   0.0000
    27 C14      5.5341   5.5680   3.1635   C.ar      1 RES1   0.0000
    28 C15      4.9274   4.3732   2.8185   C.ar      1 RES1   0.0000
    29 C16      5.1076   1.4090   0.7460   C.ar      1 RES1   0.0000
    30 C17      6.1546   1.6521  -0.1073   C.ar      1 RES1   0.0000
    31 C18      6.8174   2.8360  -0.0231   C.ar      1 RES1   0.0000
    32 C19      6.4614   3.7627   0.9134   C.ar      1 RES1   0.0000
    33 C20      5.4119   3.4754   1.7577   C.ar      1 RES1   0.0000
    34 H9       2.6101   4.2290   4.9131   H         1 RES1   0.0000
    35 H10      3.5459   6.2155   5.6050   H         1 RES1   0.0000
    36 H11      5.4285   7.1808   4.5221   H         1 RES1   0.0000
    37 H12      6.3259   5.7913   2.7474   H         1 RES1   0.0000
    38 H13      4.6360   0.5428   0.6718   H         1 RES1   0.0000
    39 H14      6.3011   1.0193  -0.6517   H         1 RES1   0.0000
    40 H15      7.5128   3.1278  -0.6016   H         1 RES1   0.0000
    41 H16      6.9444   4.5333   0.9726   H         1 RES1   0.0000
    42 N5       4.3879   1.2241   4.2203   N.ar      1 RES1   0.0000
    43 N6       2.8042   0.3032   2.4074   N.ar      1 RES1   0.0000
    44 C21      5.1173   1.8037   5.1919   C.ar      1 RES1   0.0000
    45 C22      5.7682   1.0680   6.1595   C.ar      1 RES1   0.0000
    46 C23      5.6993  -0.2969   6.1154   C.ar      1 RES1   0.0000
    47 C24      4.9649  -0.9103   5.1167   C.ar      1 RES1   0.0000
    48 C25      4.3136  -0.1343   4.1832   C.ar      1 RES1   0.0000
    49 C26      1.9663  -0.0731   1.4268   C.ar      1 RES1   0.0000
    50 C27      1.7560  -1.4000   1.1280   C.ar      1 RES1   0.0000
    51 C28      2.4116  -2.3635   1.8459   C.ar      1 RES1   0.0000
    52 C29      3.2535  -1.9957   2.8607   C.ar      1 RES1   0.0000
    53 C30      3.4367  -0.6539   3.1264   C.ar      1 RES1   0.0000
    54 H17      6.4345   1.6472   6.8583   H         1 RES1   0.0000
    55 H18      6.0342  -0.8419   6.6779   H         1 RES1   0.0000
    56 H19      4.8767  -1.7830   5.0234   H         1 RES1   0.0000
    57 H20      1.5826   0.5478   1.0227   H         1 RES1   0.0000
    58 H21      1.1861  -1.5698   0.3910   H         1 RES1   0.0000
    59 H22      2.2470  -3.2029   1.6444   H         1 RES1   0.0000
    60 H23      3.8009  -2.6752   3.4492   H         1 RES1   0.0000
    61 N7       5.0701  -3.1421  -1.8028   N.ar      2 RES2   1.0000
    62 N8       6.0184  -2.1359   0.4793   N.ar      2 RES2   0.0000
    63 C31      4.4950  -3.4502  -2.9699   C.ar      2 RES2   0.0000
    64 C32      3.7677  -4.6064  -3.0923   C.ar      2 RES2   0.0000
    65 C33      3.6597  -5.4271  -1.9963   C.ar      2 RES2   0.0000
    66 C34      4.2621  -5.0787  -0.8082   C.ar      2 RES2   0.0000
    67 C35      4.9957  -3.9209  -0.7249   C.ar      2 RES2   0.0000
    68 C36      6.6530  -1.6704   1.5612   C.ar      2 RES2   0.0000
    69 C37      6.9632  -2.4271   2.6471   C.ar      2 RES2   0.0000
    70 C38      6.6528  -3.7532   2.6250   C.ar      2 RES2   0.0000
    71 C39      6.0224  -4.2933   1.5161   C.ar      2 RES2   0.0000
    72 C40      5.7064  -3.4335   0.4783   C.ar      2 RES2   0.0000
    73 H24      4.6650  -2.7911  -3.6798   H         2 RES2   0.0000
    74 H25      3.3577  -4.8764  -3.8403   H         2 RES2   0.0000
    75 H26      3.1121  -6.2051  -2.0956   H         2 RES2   0.0000
    76 H27      4.1502  -5.6012  -0.0902   H         2 RES2   0.0000
    77 H28      6.9257  -0.7672   1.4539   H         2 RES2   0.0000
    78 H29      7.3327  -2.0460   3.3991   H         2 RES2   0.0000
    79 H30      6.9500  -4.2483   3.4191   H         2 RES2   0.0000
    80 H31      5.8112  -5.1739   1.5040   H         2 RES2   0.0000
    81 H32      5.6005  -2.3720  -1.7346   H         2 RES2   0.0000
    82 Cl1      3.0927  -6.2465   3.0432   Cl        3 RES3   0.0000
    83 O1       2.2947  -7.1657   3.7781   O.2       3 RES3   0.0000
    84 O2       2.3599  -5.7890   1.9181   O.2       3 RES3   0.0000
    85 O3       3.4397  -5.1286   3.8673   O.2       3 RES3   0.0000
    86 O4       4.2763  -6.9008   2.5779   O.3       3 RES3  -1.0000
    87 Cl2      2.4894   0.1900  -2.3326   Cl        4 RES4   0.0000
    88 O5       1.3078  -0.2637  -1.9272   O.2       4 RES4   0.0000
    89 O6       2.5009   0.3347  -3.7290   O.2       4 RES4   0.0000
    90 O7       3.4691  -0.5804  -1.8921   O.2       4 RES4   0.0000
    91 O8       2.6834   1.3918  -1.7758   O.3       4 RES4  -1.0000
    92 Cl3      4.4272   6.1238  -1.6413   Cl        5 RES5   0.0000
    93 O9       3.4459   5.5852  -2.4496   O.2       5 RES5   0.0000
    94 O10      4.1180   5.9173  -0.2787   O.2       5 RES5   0.0000
    95 O11      4.4304   7.5609  -1.8129   O.2       5 RES5   0.0000
    96 O12      5.7277   5.7358  -1.9903   O.3       5 RES5  -1.0000
    97 Cl4      7.9506  -1.4713  -3.3487   Cl        6 RES6   0.0000
    98 O13      7.4141  -1.0706  -2.1387   O.2       6 RES6   0.0000
    99 O14      8.5647  -0.3831  -3.9516   O.2       6 RES6   0.0000
   100 O15      8.6997  -2.5902  -3.3470   O.2       6 RES6   0.0000
   101 O16      6.8880  -1.7711  -4.1852   O.3       6 RES6  -1.0000
@<TRIPOS>BOND
     1     1     2    1
     2     2     4   ar
     3     3     1    1
     4     4     5   ar
     5     5     6   ar
     6     6     7   ar
     7     7     8   ar
     8     8     2   ar
     9     9     3   ar
    10    10     9   ar
    11    11    10   ar
    12    12    11   ar
    13    13     3   ar
    14    14     4    1
    15    15     5    1
    16    16     6    1
    17    17     7    1
    18    18     9    1
    19    19    10    1
    20    20    11    1
    21    21    12    1
    22    22     1    1
    23    23     1    1
    24    24    22   ar
    25    25    24   ar
    26    26    25   ar
    27    27    26   ar
    28    28    22   ar
    29    29    23   ar
    30    30    29   ar
    31    31    30   ar
    32    32    31   ar
    33    33    23   ar
    34    34    24    1
    35    35    25    1
    36    36    26    1
    37    37    27    1
    38    38    29    1
    39    39    30    1
    40    40    31    1
    41    41    32    1
    42    42     1    1
    43    43     1    1
    44    44    42   ar
    45    45    44   ar
    46    46    45   ar
    47    47    46   ar
    48    48    42   ar
    49    49    43   ar
    50    50    49   ar
    51    51    50   ar
    52    52    51   ar
    53    53    43   ar
    54    54    45    1
    55    55    46    1
    56    56    47    1
    57    57    49    1
    58    58    50    1
    59    59    51    1
    60    60    52    1
    61     8    13    1
    62    12    13   ar
    63    27    28   ar
    64    28    33    1
    65    32    33   ar
    66    47    48   ar
    67    48    53    1
    68    52    53   ar
    69    61    63   ar
    70    62    68   ar
    71    63    64   ar
    72    64    65   ar
    73    65    66   ar
    74    66    67   ar
    75    67    61   ar
    76    68    69   ar
    77    69    70   ar
    78    70    71   ar
    79    71    72   ar
    80    72    62   ar
    81    73    63    1
    82    74    64    1
    83    75    65    1
    84    76    66    1
    85    77    68    1
    86    78    69    1
    87    79    70    1
    88    80    71    1
    89    81    61    1
    90    67    72    1
    91    82    83    2
    92    84    82    2
    93    85    82    2
    94    86    82    1
    95    87    88    2
    96    89    87    2
    97    90    87    2
    98    91    87    1
    99    92    93    2
   100    94    92    2
   101    95    92    2
   102    96    92    1
   103    97    98    2
   104    99    97    2
   105   100    97    2
   106   101    97    1
@<TRIPOS>SUBSTRUCTURE
     1 RES1        1 GROUP             0 ****  ****    0  
     2 RES2       61 GROUP             0 ****  ****    0  
     3 RES3       82 GROUP             0 ****  ****    0  
     4 RES4       87 GROUP             0 ****  ****    0  
     5 RES5       92 GROUP             0 ****  ****    0  
     6 RES6       97 GROUP             0 ****  ****    0  
@<TRIPOS>CRYSIN
   16.6070   13.4960   10.2540  101.1300   92.0800  102.7700     2     1
