@<TRIPOS>MOLECULE
BTCFEB
    43    45     2     0     0
SMALL
NO_CHARGES
****
Generated from the CSD

@<TRIPOS>ATOM
     1 Fe1      5.9150   4.3327   1.3298   Fe        1 RES1   0.0000
     2 S1       4.6220   4.9092  -0.5309   S.2       1 RES1   0.0000
     3 N1       5.9150   4.3327  -2.8129   N.pl3     1 RES1   0.0000
     4 C1       5.9150   4.3327  -1.4944   C.3       1 RES1   0.0000
     5 C2       4.7391   4.8180  -3.5901   C.3       1 RES1   0.0000
     6 C3       3.8329   3.5823  -3.9223   C.3       1 RES1   0.0000
     7 C4       2.5364   4.0763  -4.6146   C.2       1 RES1   0.0000
     8 C5       1.4953   4.1109  -4.1427   C.2       1 RES1   0.0000
     9 S2       7.0850   6.3333   1.6476   S.2       1 RES1   0.0000
    10 S3       4.6478   5.5511   2.8832   S.2       1 RES1   0.0000
    11 N2       5.8629   7.8856   3.4886   N.pl3     1 RES1   0.0000
    12 C6       5.8488   6.7418   2.7818   C.3       1 RES1   0.0000
    13 C7       6.9111   8.8735   3.3396   C.3       1 RES1   0.0000
    14 C8       8.1461   8.5078   4.2079   C.3       1 RES1   0.0000
    15 C9       9.2534   9.5702   3.9751   C.3       1 RES1   0.0000
    16 C10     10.4151   9.3085   4.7419   C.3       1 RES1   0.0000
    17 C11      4.7628   8.1837   4.4501   C.3       1 RES1   0.0000
    18 C12      3.6105   8.8544   3.7670   C.3       1 RES1   0.0000
    19 C13      2.5056   9.1213   4.7833   C.3       1 RES1   0.0000
    20 C14      1.2776   9.8717   3.9502   C.3       1 RES1   0.0000
    21 S1A      7.2080   3.7563  -0.5309   S.2       1 RES1   0.0000
    22 S2A      4.7450   2.3322   1.6476   S.2       1 RES1   0.0000
    23 S3A      7.1822   3.1144   2.8832   S.2       1 RES1   0.0000
    24 C2A      7.0909   3.8475  -3.5901   C.3       1 RES1   0.0000
    25 C6A      5.9812   1.9237   2.7818   C.3       1 RES1   0.0000
    26 C3A      7.9971   5.0832  -3.9223   C.3       1 RES1   0.0000
    27 N2A      5.9671   0.7799   3.4886   N.pl3     1 RES1   0.0000
    28 C4A      9.2936   4.5892  -4.6146   C.2       1 RES1   0.0000
    29 C7A      4.9189  -0.2080   3.3396   C.3       1 RES1   0.0000
    30 C11A     7.0672   0.4818   4.4501   C.3       1 RES1   0.0000
    31 C5A     10.3347   4.5546  -4.1427   C.2       1 RES1   0.0000
    32 C8A      3.6839   0.1577   4.2079   C.3       1 RES1   0.0000
    33 C12A     8.2195  -0.1889   3.7670   C.3       1 RES1   0.0000
    34 C9A      2.5766  -0.9047   3.9751   C.3       1 RES1   0.0000
    35 C13A     9.3244  -0.4558   4.7833   C.3       1 RES1   0.0000
    36 C10A     1.4149  -0.6430   4.7419   C.3       1 RES1   0.0000
    37 C14A    10.5524  -1.2062   3.9502   C.3       1 RES1   0.0000
    38 C15      0.6270   3.1681   2.2995   C.ar      2 RES2   0.0000
    39 C16      1.2043   4.2912   1.9994   C.ar      2 RES2   0.0000
    40 C17      0.5584   5.5494   2.2882   C.ar      2 RES2   0.0000
    41 C15C    -0.6270   3.1681   2.8750   C.ar      2 RES2   0.0000
    42 C17C    -0.5584   5.5494   2.8863   C.ar      2 RES2   0.0000
    43 C16C    -1.2043   4.2912   3.1751   C.ar      2 RES2   0.0000
@<TRIPOS>BOND
     1     1     2    1
     2     2     4   un
     3     3     4    1
     4     4    21   un
     5     5     3    1
     6     6     5    1
     7     7     6    1
     8     8     7    1
     9     9     1    1
    10    10     1    1
    11    11    12    1
    12    12     9   un
    13    13    11    1
    14    14    13    1
    15    15    14    1
    16    16    15    1
    17    17    11    1
    18    18    17    1
    19    19    18    1
    20    20    19    1
    21    21     1    1
    22    22     1    1
    23    23     1    1
    24    24     3    1
    25    25    22   un
    26    26    24    1
    27    27    25    1
    28    28    26    1
    29    29    27    1
    30    30    27    1
    31    31    28    1
    32    32    29    1
    33    33    30    1
    34    34    32    1
    35    35    33    1
    36    36    34    1
    37    37    35    1
    38    10    12   un
    39    23    25   un
    40    38    39   ar
    41    39    40   ar
    42    40    42   ar
    43    41    38   ar
    44    42    43   ar
    45    43    41   ar
@<TRIPOS>SUBSTRUCTURE
     1 RES1        1 GROUP             0 ****  ****    0  
     2 RES2       38 GROUP             0 ****  ****    0  
@<TRIPOS>CRYSIN
   23.6600   17.3310   10.3490   90.0000   90.0000   90.0000    52     3
