@<TRIPOS>MOLECULE
BUBMET
   115   114     9     0     0
SMALL
USER_CHARGES
****
Generated from the CSD

@<TRIPOS>ATOM
     1 Fe1     -0.9111   7.9540   6.9469   Fe        1 RES1   0.0000
     2 O1      -0.2364   9.4661   5.6105   O.2       1 RES1   0.0000
     3 F1       2.6390  13.4839   5.6357   F         1 RES1   0.0000
     4 F2      -4.3046  13.5960   8.0631   F         1 RES1   0.0000
     5 C1      -0.8205  14.2266   4.9370   C.ar      1 RES1   0.0000
     6 H1      -1.3789  14.9374   4.7164   H         1 RES1   0.0000
     7 C2      -3.1497  11.3703   4.7899   C.2       1 RES1   0.0000
     8 H2      -4.0638  11.2321   4.6875   H         1 RES1   0.0000
     9 C3      -1.8164  16.8486   9.1025   C.3       1 RES1   0.0000
    10 H3      -1.0795  17.0156   8.4946   H         1 RES1   0.0000
    11 H4      -1.4524  16.5668   9.9560   H         1 RES1   0.0000
    12 O2      -2.6027   8.0056   5.7577   O.co2     1 RES1   0.0000
    13 O3      -0.0765   6.4154   5.7272   O.3       1 RES1   0.0000
    14 H5       0.4900   6.7155   4.9897   H         1 RES1   0.0000
    15 H6      -0.7356   5.9395   5.2008   H         1 RES1   0.0000
    16 N1      -2.6895  15.8018   8.5576   N.3       1 RES1   0.0000
    17 C4      -2.9495  13.4116   8.2607   C.ar      1 RES1   0.0000
    18 C5      -0.7514  10.4905   8.4927   C.2       1 RES1   0.0000
    19 N2      -2.6839  12.6589   4.6480   N.pl3     1 RES1   0.0000
    20 C6      -3.5729  13.7655   4.2463   C.3       1 RES1   0.0000
    21 H7      -3.6654  14.3661   5.0012   H         1 RES1   0.0000
    22 H8      -3.1342  14.2594   3.5358   H         1 RES1   0.0000
    23 N3       1.7916  18.4388   5.7868   N.4       1 RES1   1.0000
    24 H9       1.8714  19.2518   5.9175   H         1 RES1   0.0000
    25 H10      1.1502  18.2349   6.2162   H         1 RES1   0.0000
    26 C7      -1.2941  12.8334   4.9583   C.ar      1 RES1   0.0000
    27 O4       0.7906   8.0156   8.1056   O.co2     1 RES1   0.0000
    28 C8       0.4948  14.4061   5.2658   C.ar      1 RES1   0.0000
    29 N4       0.9933  12.6066   9.0919   N.pl3     1 RES1   0.0000
    30 O5       2.5052   8.8804   9.0932   O.co2     1 RES1   0.0000
    31 O6      -4.2668   8.8979   4.5818   O.co2     1 RES1   0.0000
    32 C9      -2.3821  10.2861   5.0656   C.2       1 RES1   0.0000
    33 C10     -1.1504  11.8339   8.5311   C.ar      1 RES1   0.0000
    34 C11      0.8297  12.0483   5.5177   C.ar      1 RES1   0.0000
    35 H11      1.3910  11.3336   5.7172   H         1 RES1   0.0000
    36 C12      0.6802  10.2812   8.7167   C.2       1 RES1   0.0000
    37 N5       1.0814  15.7146   5.2406   N.3       1 RES1   0.0000
    38 C13     -0.4796  11.8065   5.2632   C.ar      1 RES1   0.0000
    39 C14      1.8283  16.0810   6.4908   C.3       1 RES1   0.0000
    40 H12      2.3700  15.3345   6.7936   H         1 RES1   0.0000
    41 H13      1.2101  16.3220   7.1986   H         1 RES1   0.0000
    42 O7      -1.7540   6.5401   8.2673   O.3       1 RES1   0.0000
    43 H14     -2.6149   6.6390   8.3785   H         1 RES1   0.0000
    44 H15     -1.6854   6.6788   9.1395   H         1 RES1   0.0000
    45 C15      1.3813   9.0001   8.6624   C.2       1 RES1   0.0000
    46 C16     -3.1097   8.9677   5.1200   C.2       1 RES1   0.0000
    47 C17     -2.1598  14.5108   8.5696   C.ar      1 RES1   0.0000
    48 N6      -3.3620  18.5185   7.9876   N.4       1 RES1   1.0000
    49 H16     -3.8577  19.2467   8.1138   H         1 RES1   0.0000
    50 H17     -2.7719  18.3098   7.4358   H         1 RES1   0.0000
    51 C18     -2.6713  18.1497   9.2841   C.3       1 RES1   0.0000
    52 H18     -3.3359  18.0077   9.9764   H         1 RES1   0.0000
    53 H19     -2.0964  18.8791   9.5635   H         1 RES1   0.0000
    54 C19     -2.5204  12.1180   8.2289   C.ar      1 RES1   0.0000
    55 H20     -3.1086  11.4309   8.0150   H         1 RES1   0.0000
    56 C20     -0.3204  12.9430   8.8586   C.ar      1 RES1   0.0000
    57 C21      1.0247  18.0500   4.6268   C.3       1 RES1   0.0000
    58 H21      1.6292  17.8674   3.8908   H         1 RES1   0.0000
    59 H22      0.4476  18.7835   4.3647   H         1 RES1   0.0000
    60 C22     -4.8833  13.4116   3.7969   C.3       1 RES1   0.0000
    61 H23     -4.8169  12.7443   3.1083   H         1 RES1   0.0000
    62 H24     -5.3230  14.1890   3.4464   H         1 RES1   0.0000
    63 H25     -5.3907  13.0606   4.5326   H         1 RES1   0.0000
    64 C23      3.3201  13.3094   9.7972   C.3       1 RES1   0.0000
    65 H26      3.7517  12.9793   9.0133   H         1 RES1   0.0000
    66 H27      3.2949  12.6185  10.4689   H         1 RES1   0.0000
    67 H28      3.8068  14.0641  10.1437   H         1 RES1   0.0000
    68 C24      1.3417  13.3044   5.4872   C.ar      1 RES1   0.0000
    69 C25      1.9070  13.7331   9.4658   C.3       1 RES1   0.0000
    70 H29      1.5315  14.1977  10.2305   H         1 RES1   0.0000
    71 H30      1.9409  14.3639   8.7288   H         1 RES1   0.0000
    72 O8      -1.5266   9.5758   8.1745   O.2       1 RES1   0.0000
    73 C26     -4.1990  17.3920   7.5302   C.3       1 RES1   0.0000
    74 H31     -4.9149  17.2360   8.1656   H         1 RES1   0.0000
    75 H32     -4.5974  17.6423   6.6824   H         1 RES1   0.0000
    76 C27      2.7320  17.2948   6.1170   C.3       1 RES1   0.0000
    77 H33      3.1750  17.7581   6.8416   H         1 RES1   0.0000
    78 H34      3.2921  17.0797   5.3546   H         1 RES1   0.0000
    79 C28     -3.4374  16.1881   7.3605   C.3       1 RES1   0.0000
    80 H35     -2.8137  16.3114   6.6275   H         1 RES1   0.0000
    81 H36     -4.0385  15.4668   7.1189   H         1 RES1   0.0000
    82 C29     -1.0744  10.4282   5.3825   C.2       1 RES1   0.0000
    83 C30     -0.8402  14.1793   8.7989   C.ar      1 RES1   0.0000
    84 H37     -0.2502  14.8874   8.9270   H         1 RES1   0.0000
    85 C31      1.4642  11.4102   9.0893   C.2       1 RES1   0.0000
    86 H38      2.3492  11.2758   9.3412   H         1 RES1   0.0000
    87 C32      0.1954  16.8461   4.8853   C.3       1 RES1   0.0000
    88 H39     -0.4229  17.0222   5.6113   H         1 RES1   0.0000
    89 H40     -0.3195  16.6253   4.0935   H         1 RES1   0.0000
    90 S1      -3.7993  17.9572   3.1500   S.o2      2 RES2   0.0000
    91 O9      -4.6241  16.7514   3.0890   O.3       2 RES2  -1.0000
    92 O10     -4.2701  18.9148   4.1058   O.2       2 RES2   0.0000
    93 O11     -2.4259  17.6163   3.2958   O.2       2 RES2   0.0000
    94 O12     -3.8785  18.6182   1.8547   O.3       2 RES2  -1.0000
    95 O13      5.2094  16.4498   9.1410   O.3       3 RES3   0.0000
    96 H41      5.2000  16.4740   8.2910   H         3 RES3   0.0000
    97 H42      5.8989  16.8947   9.3588   H         3 RES3   0.0000
    98 O14     -6.9025  16.3726   4.5871   O.3       4 RES4   0.0000
    99 H43     -6.2588  15.8685   4.4081   H         4 RES4   0.0000
   100 H44     -7.4485  15.8648   4.1358   H         4 RES4   0.0000
   101 O15     -7.0100  14.8672   6.9336   O.3       5 RES5   0.0000
   102 H45     -7.2866  15.3302   6.1745   H         5 RES5   0.0000
   103 H46     -7.6433  14.1014   6.8756   H         5 RES5   0.0000
   104 O16     -1.0784  19.4831   6.7745   O.3       6 RES6   0.0000
   105 H47     -0.5967  20.0490   6.3705   H         6 RES6   0.0000
   106 H48     -1.4249  20.0635   7.3309   H         6 RES6   0.0000
   107 O17      2.9197  16.8187  11.0275   O.3       7 RES7   0.0000
   108 H49      3.0659  16.7581  10.1927   H         7 RES7   0.0000
   109 H50      3.3775  16.2254  11.4356   H         7 RES7   0.0000
   110 O18     -6.8458  12.0607   6.9204   O.3       8 RES8   0.0000
   111 H51     -6.9590  12.1821   6.1403   H         8 RES8   0.0000
   112 H52     -6.2091  11.4962   6.9256   H         8 RES8   0.0000
   113 O19     -5.2613   9.9472   7.5077   O.3       9 RES9   0.0000
   114 H53     -4.9069   9.9468   6.7611   H         9 RES9   0.0000
   115 H54     -5.1773   9.4932   8.0370   H         9 RES9   0.0000
@<TRIPOS>BOND
     1     1     2    1
     2     2    82    2
     3     3    68    1
     4     4    17    1
     5     5     6    1
     6     7     8    1
     7     9    10    1
     8    11     9    1
     9    12     1    1
    10    13     1    1
    11    14    13    1
    12    15    13    1
    13    16     9    1
    14    17    47   ar
    15    18    33    1
    16    19     7    1
    17    20    19    1
    18    21    20    1
    19    22    20    1
    20    23    24    1
    21    25    23    1
    22    26     5   ar
    23    27     1    1
    24    28     5   ar
    25    29    56    1
    26    30    45    2
    27    31    46    2
    28    32     7    2
    29    33    54   ar
    30    34    35    1
    31    36    18    1
    32    37    28    1
    33    38    26   ar
    34    39    37    1
    35    40    39    1
    36    41    39    1
    37    42     1    1
    38    43    42    1
    39    44    42    1
    40    45    27    1
    41    46    12    1
    42    47    16    1
    43    48    49    1
    44    50    48    1
    45    51     9    1
    46    52    51    1
    47    53    51    1
    48    54    17   ar
    49    55    54    1
    50    56    33   ar
    51    57    23    1
    52    58    57    1
    53    59    57    1
    54    60    20    1
    55    61    60    1
    56    62    60    1
    57    63    60    1
    58    64    65    1
    59    66    64    1
    60    67    64    1
    61    68    28   ar
    62    69    29    1
    63    70    69    1
    64    71    69    1
    65    72     1    1
    66    73    48    1
    67    74    73    1
    68    75    73    1
    69    76    23    1
    70    77    76    1
    71    78    76    1
    72    79    16    1
    73    80    79    1
    74    81    79    1
    75    82    32    1
    76    83    47   ar
    77    84    83    1
    78    85    29    1
    79    86    85    1
    80    87    37    1
    81    88    87    1
    82    89    87    1
    83    18    72    2
    84    19    26    1
    85    32    46    1
    86    34    38   ar
    87    34    68   ar
    88    36    45    1
    89    36    85    2
    90    38    82    1
    91    39    76    1
    92    48    51    1
    93    56    83   ar
    94    57    87    1
    95    64    69    1
    96    73    79    1
    97    90    91    1
    98    92    90    2
    99    93    90    2
   100    94    90    1
   101    95    96    1
   102    97    95    1
   103    98    99    1
   104   100    98    1
   105   101   102    1
   106   103   101    1
   107   104   105    1
   108   106   104    1
   109   107   108    1
   110   109   107    1
   111   110   111    1
   112   112   110    1
   113   113   114    1
   114   115   113    1
@<TRIPOS>SUBSTRUCTURE
     1 RES1        1 GROUP             0 ****  ****    0  
     2 RES2       90 GROUP             0 ****  ****    0  
     3 RES3       95 GROUP             0 ****  ****    0  
     4 RES4       98 GROUP             0 ****  ****    0  
     5 RES5      101 GROUP             0 ****  ****    0  
     6 RES6      104 GROUP             0 ****  ****    0  
     7 RES7      107 GROUP             0 ****  ****    0  
     8 RES8      110 GROUP             0 ****  ****    0  
     9 RES9      113 GROUP             0 ****  ****    0  
@<TRIPOS>CRYSIN
   12.6120   24.9240   13.5400   90.0000  101.7270   90.0000     9     1
