@<TRIPOS>MOLECULE
BUKDUH
   103   109     6     0     0
SMALL
USER_CHARGES
****
Generated from the CSD

@<TRIPOS>ATOM
     1 Fe1      7.2885  10.9860  12.2221   Fe        1 RES1   2.0000
     2 N1       8.8429   9.7861  11.9013   N.ar      1 RES1   0.0000
     3 N2       7.9379  10.8225  13.9615   N.ar      1 RES1   0.0000
     4 N3       5.9868  12.1321  13.1784   N.ar      1 RES1   0.0000
     5 N4       9.5092   9.9231  15.4583   N.ar      1 RES1   0.0000
     6 N5       7.7476  11.3573  16.2456   N.ar      1 RES1   0.0000
     7 C1       9.2519   9.2736  10.7349   C.ar      1 RES1   0.0000
     8 H1       8.7667   9.4891   9.9472   H         1 RES1   0.0000
     9 C2      10.3576   8.4390  10.6308   C.ar      1 RES1   0.0000
    10 H2      10.6163   8.0883   9.7862   H         1 RES1   0.0000
    11 C3      11.0781   8.1232  11.7693   C.ar      1 RES1   0.0000
    12 H3      11.8373   7.5552  11.7161   H         1 RES1   0.0000
    13 C4      10.6777   8.6453  12.9853   C.ar      1 RES1   0.0000
    14 H4      11.1600   8.4470  13.7795   H         1 RES1   0.0000
    15 C5       9.5632   9.4614  13.0230   C.ar      1 RES1   0.0000
    16 C6       9.0197  10.0742  14.2386   C.ar      1 RES1   0.0000
    17 C7       8.8418  10.5803  16.4352   C.ar      1 RES1   0.0000
    18 C8       7.3377  11.4492  14.9876   C.ar      1 RES1   0.0000
    19 C9       6.1889  12.2403  14.5300   C.ar      1 RES1   0.0000
    20 C10      5.4030  13.0302  15.3436   C.ar      1 RES1   0.0000
    21 H5       5.5642  13.0710  16.2795   H         1 RES1   0.0000
    22 C11      4.3749  13.7631  14.7720   C.ar      1 RES1   0.0000
    23 H6       3.8295  14.3288  15.3052   H         1 RES1   0.0000
    24 C12      4.1584  13.6540  13.4089   C.ar      1 RES1   0.0000
    25 H7       3.4569  14.1445  12.9969   H         1 RES1   0.0000
    26 C13      4.9659  12.8288  12.6469   C.ar      1 RES1   0.0000
    27 H8       4.7934  12.7519  11.7161   H         1 RES1   0.0000
    28 C14      9.3319  10.4223  17.8155   C.ar      1 RES1   0.0000
    29 C15      8.8025  11.1939  18.8551   C.ar      1 RES1   0.0000
    30 H9       8.1399  11.8481  18.6683   H         1 RES1   0.0000
    31 C16      9.2411  11.0077  20.1570   C.ar      1 RES1   0.0000
    32 H10      8.8925  11.5480  20.8567   H         1 RES1   0.0000
    33 C17     10.1869  10.0344  20.4399   C.ar      1 RES1   0.0000
    34 H11     10.4733   9.8952  21.3345   H         1 RES1   0.0000
    35 C18     10.7136   9.2649  19.4175   C.ar      1 RES1   0.0000
    36 H12     11.3600   8.5963  19.6135   H         1 RES1   0.0000
    37 C19     10.3031   9.4633  18.1060   C.ar      1 RES1   0.0000
    38 H13     10.6843   8.9466  17.4063   H         1 RES1   0.0000
    39 N6       6.0218   9.4612  12.1743   N.ar      1 RES1   0.0000
    40 N7       6.6419  11.1458  10.4748   N.ar      1 RES1   0.0000
    41 N8       8.2993  12.5886  11.6310   N.ar      1 RES1   0.0000
    42 N9       5.3379  10.2961   8.7174   N.ar      1 RES1   0.0000
    43 N10      6.6434  12.2953   8.4271   N.ar      1 RES1   0.0000
    44 C20      5.7172   8.6188  13.1796   C.ar      1 RES1   0.0000
    45 H14      6.1612   8.7212  14.0124   H         1 RES1   0.0000
    46 C21      4.7819   7.6096  13.0437   C.ar      1 RES1   0.0000
    47 H15      4.5935   7.0346  13.7761   H         1 RES1   0.0000
    48 C22      4.1220   7.4402  11.8400   C.ar      1 RES1   0.0000
    49 H16      3.4772   6.7502  11.7332   H         1 RES1   0.0000
    50 C23      4.4209   8.2979  10.7900   C.ar      1 RES1   0.0000
    51 H17      3.9794   8.2118   9.9523   H         1 RES1   0.0000
    52 C24      5.3702   9.2763  10.9866   C.ar      1 RES1   0.0000
    53 C25      5.7669  10.2630   9.9677   C.ar      1 RES1   0.0000
    54 C26      5.7941  11.3387   7.9853   C.ar      1 RES1   0.0000
    55 C27      7.0564  12.1416   9.6747   C.ar      1 RES1   0.0000
    56 C28      8.0234  13.0077  10.3547   C.ar      1 RES1   0.0000
    57 C29      8.6001  14.1239   9.7924   C.ar      1 RES1   0.0000
    58 H18      8.3722  14.3939   8.9112   H         1 RES1   0.0000
    59 C30      9.5195  14.8477  10.5369   C.ar      1 RES1   0.0000
    60 H19      9.9401  15.6166  10.1698   H         1 RES1   0.0000
    61 C31      9.8130  14.4302  11.8234   C.ar      1 RES1   0.0000
    62 H20     10.4430  14.9091  12.3496   H         1 RES1   0.0000
    63 C32      9.1817  13.3084  12.3385   C.ar      1 RES1   0.0000
    64 H21      9.3825  13.0400  13.2281   H         1 RES1   0.0000
    65 C33      5.3329  11.4518   6.5904   C.ar      1 RES1   0.0000
    66 C34      4.2383  10.7018   6.1565   C.ar      1 RES1   0.0000
    67 H22      3.8027  10.1052   6.7536   H         1 RES1   0.0000
    68 C35      3.7893  10.8309   4.8500   C.ar      1 RES1   0.0000
    69 H23      3.0408  10.3260   4.5532   H         1 RES1   0.0000
    70 C36      4.4302  11.6936   3.9787   C.ar      1 RES1   0.0000
    71 H24      4.1189  11.7819   3.0857   H         1 RES1   0.0000
    72 C37      5.5233  12.4293   4.4015   C.ar      1 RES1   0.0000
    73 H25      5.9634  13.0140   3.7963   H         1 RES1   0.0000
    74 C38      5.9768  12.3168   5.7020   C.ar      1 RES1   0.0000
    75 H26      6.7243  12.8260   5.9916   H         1 RES1   0.0000
    76 B1       1.5528   5.1848  13.9024   B         2 RES2  -1.0000
    77 F1       1.7179   6.5139  14.2756   F         2 RES2   0.0000
    78 F2       2.5690   4.8298  13.0404   F         2 RES2   0.0000
    79 F3       1.5658   4.3941  15.0314   F         2 RES2   0.0000
    80 F4       0.3325   5.0651  13.2563   F         2 RES2   0.0000
    81 B2       2.3437  11.7919   9.9136   B         3 RES3  -1.0000
    82 F5       3.5171  12.5812   9.8021   F         3 RES3   0.0000
    83 F6       2.6039  10.7917  10.8279   F         3 RES3   0.0000
    84 F7       2.0655  11.2506   8.6627   F         3 RES3   0.0000
    85 F8       1.3040  12.5795  10.3347   F         3 RES3   0.0000
    86 N11      9.3581  10.4821   7.7663   N.1       4 RES4   0.0000
    87 C39      9.7865  11.4848   7.4666   C.1       4 RES4   0.0000
    88 C40     10.3265  12.7807   7.0733   C.3       4 RES4   0.0000
    89 H27     10.8658  12.6771   6.2604   H         4 RES4   0.0000
    90 H28     10.8879  13.1338   7.7947   H         4 RES4   0.0000
    91 H29      9.5894  13.4031   6.8992   H         4 RES4   0.0000
    92 N12      7.3640   7.3702  15.9763   N.1       5 RES5   0.0000
    93 C41      8.3896   6.8791  16.0309   C.1       5 RES5   0.0000
    94 C42      9.6952   6.2461  16.0859   C.3       5 RES5   0.0000
    95 H30      9.6910   5.4396  15.5295   H         5 RES5   0.0000
    96 H31      9.9021   6.0034  17.0124   H         5 RES5   0.0000
    97 H32     10.3746   6.8688  15.7521   H         5 RES5   0.0000
    98 N13      9.0308  14.4100  15.5420   N.1       6 RES6   0.0000
    99 C43      8.4945  14.8096  16.4415   C.1       6 RES6   0.0000
   100 C44      7.7848  15.3597  17.5720   C.3       6 RES6   0.0000
   101 H33      7.5778  16.3028  17.4011   H         6 RES6   0.0000
   102 H34      8.3423  15.2888  18.3755   H         6 RES6   0.0000
   103 H35      6.9512  14.8635  17.7077   H         6 RES6   0.0000
@<TRIPOS>BOND
     1     1     2    1
     2     2     7   ar
     3     3     1    1
     4     4     1    1
     5     5    16   ar
     6     6    17   ar
     7     7     8    1
     8     9     7   ar
     9    10     9    1
    10    11     9   ar
    11    12    11    1
    12    13    11   ar
    13    14    13    1
    14    15     2   ar
    15    16     3   ar
    16    17     5   ar
    17    18     3   ar
    18    19     4   ar
    19    20    19   ar
    20    21    20    1
    21    22    20   ar
    22    23    22    1
    23    24    22   ar
    24    25    24    1
    25    26     4   ar
    26    27    26    1
    27    28    17    1
    28    29    28   ar
    29    30    29    1
    30    31    29   ar
    31    32    31    1
    32    33    31   ar
    33    34    33    1
    34    35    33   ar
    35    36    35    1
    36    37    28   ar
    37    38    37    1
    38    39     1    1
    39    40     1    1
    40    41     1    1
    41    42    53   ar
    42    43    54   ar
    43    44    39   ar
    44    45    44    1
    45    46    44   ar
    46    47    46    1
    47    48    46   ar
    48    49    48    1
    49    50    48   ar
    50    51    50    1
    51    52    39   ar
    52    53    40   ar
    53    54    42   ar
    54    55    40   ar
    55    56    41   ar
    56    57    56   ar
    57    58    57    1
    58    59    57   ar
    59    60    59    1
    60    61    59   ar
    61    62    61    1
    62    63    41   ar
    63    64    63    1
    64    65    54    1
    65    66    65   ar
    66    67    66    1
    67    68    66   ar
    68    69    68    1
    69    70    68   ar
    70    71    70    1
    71    72    70   ar
    72    73    72    1
    73    74    65   ar
    74    75    74    1
    75     6    18   ar
    76    13    15   ar
    77    15    16    1
    78    18    19    1
    79    24    26   ar
    80    35    37   ar
    81    43    55   ar
    82    50    52   ar
    83    52    53    1
    84    55    56    1
    85    61    63   ar
    86    72    74   ar
    87    76    77    1
    88    78    76    1
    89    79    76    1
    90    80    76    1
    91    81    82    1
    92    83    81    1
    93    84    81    1
    94    85    81    1
    95    86    87    3
    96    87    88    1
    97    88    89    1
    98    90    88    1
    99    91    88    1
   100    92    93    3
   101    93    94    1
   102    94    95    1
   103    96    94    1
   104    97    94    1
   105    98    99    3
   106    99   100    1
   107   100   101    1
   108   102   100    1
   109   103   100    1
@<TRIPOS>SUBSTRUCTURE
     1 RES1        1 GROUP             0 ****  ****    0  
     2 RES2       76 GROUP             0 ****  ****    0  
     3 RES3       81 GROUP             0 ****  ****    0  
     4 RES4       86 GROUP             0 ****  ****    0  
     5 RES5       92 GROUP             0 ****  ****    0  
     6 RES6       98 GROUP             0 ****  ****    0  
@<TRIPOS>CRYSIN
   10.7889   11.8656   17.8181   73.9700   89.7070   86.2690     2     1
