@<TRIPOS>MOLECULE
BULKUP
   149   154     7     0     0
SMALL
USER_CHARGES
****
Generated from the CSD

@<TRIPOS>ATOM
     1 Fe1      0.0000   0.0000   4.5960   Fe        1 RES1   2.0000
     2 N1       0.8660   1.4617   5.6118   N.ar      1 RES1   0.0000
     3 N2       3.0766   2.2404   8.4250   N.pl3     1 RES1   0.0000
     4 H1       3.1954   1.4509   8.7403   H         1 RES1   0.0000
     5 H2       3.4544   2.9162   8.8012   H         1 RES1   0.0000
     6 N3      -0.6657   1.5191   3.5265   N.ar      1 RES1   0.0000
     7 N4      -2.6043   2.4055   0.5782   N.pl3     1 RES1   0.0000
     8 H3      -2.7631   3.0992   0.0974   H         1 RES1   0.0000
     9 H4      -2.9205   1.6399   0.3530   H         1 RES1   0.0000
    10 C1       1.6650   1.3385   6.7098   C.ar      1 RES1   0.0000
    11 H7       1.8073   0.4916   7.0726   H         1 RES1   0.0000
    12 C2       2.2721   2.4234   7.3087   C.ar      1 RES1   0.0000
    13 C3       2.0110   3.7081   6.7975   C.ar      1 RES1   0.0000
    14 H8       2.3715   4.4664   7.1943   H         1 RES1   0.0000
    15 C4       1.2099   3.8014   5.6970   C.ar      1 RES1   0.0000
    16 H9       1.0435   4.6423   5.3318   H         1 RES1   0.0000
    17 C5       0.6388   2.7021   5.0969   C.ar      1 RES1   0.0000
    18 C6      -0.2106   2.7165   3.9258   C.ar      1 RES1   0.0000
    19 C7      -0.5449   3.8600   3.2052   C.ar      1 RES1   0.0000
    20 H10     -0.2369   4.6949   3.4693   H         1 RES1   0.0000
    21 C8      -1.3460   3.7380   2.0779   C.ar      1 RES1   0.0000
    22 H11     -1.5393   4.4940   1.5703   H         1 RES1   0.0000
    23 C9      -1.8591   2.5167   1.6957   C.ar      1 RES1   0.0000
    24 C10     -1.4565   1.4222   2.4346   C.ar      1 RES1   0.0000
    25 H12     -1.7445   0.5789   2.1668   H         1 RES1   0.0000
    26 N1A     -1.6989   0.0191   5.6118   N.ar      1 RES1   0.0000
    27 N1B      0.8329  -1.4808   5.6118   N.ar      1 RES1   0.0000
    28 N2A     -3.4786   1.5442   8.4250   N.pl3     1 RES1   0.0000
    29 N2B      0.4019  -3.7846   8.4250   N.pl3     1 RES1   0.0000
    30 H1A     -2.8542   2.0418   8.7403   H         1 RES1   0.0000
    31 H1B     -0.3412  -3.4928   8.7403   H         1 RES1   0.0000
    32 H2A     -4.2527   1.5335   8.8012   H         1 RES1   0.0000
    33 H2B      0.7983  -4.4497   8.8012   H         1 RES1   0.0000
    34 N3A     -0.9827  -1.3361   3.5265   N.ar      1 RES1   0.0000
    35 N3B      1.6485  -0.1830   3.5265   N.ar      1 RES1   0.0000
    36 N4A     -0.7811  -3.4581   0.5782   N.pl3     1 RES1   0.0000
    37 N4B      3.3853   1.0526   0.5782   N.pl3     1 RES1   0.0000
    38 H3A     -1.3025  -3.9425   0.0974   H         1 RES1   0.0000
    39 H3B      4.0656   0.8433   0.0974   H         1 RES1   0.0000
    40 H4A      0.0401  -3.3492   0.3530   H         1 RES1   0.0000
    41 H4B      2.8805   1.7093   0.3530   H         1 RES1   0.0000
    42 C1A     -1.9917   0.7727   6.7098   C.ar      1 RES1   0.0000
    43 C1B      0.3267  -2.1112   6.7098   C.ar      1 RES1   0.0000
    44 H7A     -1.3294   1.3194   7.0726   H         1 RES1   0.0000
    45 H7B     -0.4779  -1.8110   7.0726   H         1 RES1   0.0000
    46 C2A     -3.2348   0.7560   7.3087   C.ar      1 RES1   0.0000
    47 C2B      0.9627  -3.1794   7.3087   C.ar      1 RES1   0.0000
    48 C3A     -4.2168  -0.1124   6.7975   C.ar      1 RES1   0.0000
    49 C3B      2.2058  -3.5956   6.7975   C.ar      1 RES1   0.0000
    50 H8A     -5.0538  -0.1794   7.1943   H         1 RES1   0.0000
    51 H8B      2.6823  -4.2870   7.1943   H         1 RES1   0.0000
    52 C4A     -3.8971  -0.8529   5.6970   C.ar      1 RES1   0.0000
    53 C4B      2.6871  -2.9485   5.6970   C.ar      1 RES1   0.0000
    54 H9A     -4.5421  -1.4174   5.3318   H         1 RES1   0.0000
    55 H9B      3.4986  -3.2248   5.3318   H         1 RES1   0.0000
    56 C5A     -2.6595  -0.7978   5.0969   C.ar      1 RES1   0.0000
    57 C5B      2.0207  -1.9043   5.0969   C.ar      1 RES1   0.0000
    58 C6A     -2.2472  -1.5406   3.9258   C.ar      1 RES1   0.0000
    59 C6B      2.4578  -1.1758   3.9258   C.ar      1 RES1   0.0000
    60 C7A     -3.0704  -2.4019   3.2052   C.ar      1 RES1   0.0000
    61 C7B      3.6153  -1.4581   3.2052   C.ar      1 RES1   0.0000
    62 H10A    -3.9475  -2.5526   3.4693   H         1 RES1   0.0000
    63 H10B     4.1843  -2.1423   3.4693   H         1 RES1   0.0000
    64 C8A     -2.5642  -3.0346   2.0779   C.ar      1 RES1   0.0000
    65 C8B      3.9102  -0.7033   2.0779   C.ar      1 RES1   0.0000
    66 H11A    -3.1222  -3.5801   1.5703   H         1 RES1   0.0000
    67 H11B     4.6616  -0.9139   1.5703   H         1 RES1   0.0000
    68 C9A     -1.2500  -2.8684   1.6957   C.ar      1 RES1   0.0000
    69 C9B      3.1091   0.3517   1.6957   C.ar      1 RES1   0.0000
    70 C10A    -0.5034  -1.9725   2.4346   C.ar      1 RES1   0.0000
    71 C10B     1.9599   0.5502   2.4346   C.ar      1 RES1   0.0000
    72 H12A     0.3709  -1.8002   2.1668   H         1 RES1   0.0000
    73 H12B     1.3736   1.2213   2.1668   H         1 RES1   0.0000
    74 S1      -0.0007   7.9748   4.4115   S.o2      2 RES2   0.0000
    75 O2      -0.0007   7.9748   5.8260   O.3       2 RES2  -1.0000
    76 O3       0.9903   7.0669   4.0390   O.3       2 RES2  -1.0000
    77 O3A      0.2907   9.2857   4.0390   O.2       2 RES2   0.0000
    78 O3B     -1.2811   7.5705   4.0390   O.2       2 RES2   0.0000
    79 N5      -4.4081   5.0203   3.0043   N.ar      3 RES3   0.0000
    80 N6      -2.2962   5.5418   5.9210   N.am      3 RES3   0.0000
    81 H5      -1.9503   6.2655   5.6118   H         3 RES3   0.0000
    82 N7      -0.7956   5.7918   7.6277   N.am      3 RES3   0.0000
    83 H6      -0.4282   6.3731   7.1091   H         3 RES3   0.0000
    84 N8      -0.0007   7.9748   9.4548   N.3       3 RES3   0.0000
    85 C11     -3.5690   5.5454   3.9733   C.ar      3 RES3   0.0000
    86 H13     -3.2306   6.4018   3.8467   H         3 RES3   0.0000
    87 C12     -3.2071   4.8707   5.1151   C.ar      3 RES3   0.0000
    88 C13     -3.6450   3.6315   5.2320   C.ar      3 RES3   0.0000
    89 H14     -3.3294   3.1136   5.9405   H         3 RES3   0.0000
    90 C14     -4.5441   3.0765   4.3604   C.ar      3 RES3   0.0000
    91 H15     -4.9447   2.2607   4.5527   H         3 RES3   0.0000
    92 C15     -4.8349   3.7188   3.2307   C.ar      3 RES3   0.0000
    93 H16     -5.3376   3.2858   2.5807   H         3 RES3   0.0000
    94 C16     -1.9185   5.1530   7.1334   C.2       3 RES3   0.0000
    95 C17     -0.1713   5.5908   8.9107   C.3       3 RES3   0.0000
    96 H17      0.7921   5.5609   8.7890   H         3 RES3   0.0000
    97 H18     -0.4523   4.7356   9.2759   H         3 RES3   0.0000
    98 C18     -0.5048   6.6494   9.8712   C.3       3 RES3   0.0000
    99 H19     -0.1285   6.4233  10.7367   H         3 RES3   0.0000
   100 H20     -1.4689   6.6949   9.9698   H         3 RES3   0.0000
   101 O1      -2.3688   4.2200   7.7871   O.2       3 RES3   0.0000
   102 N5A      4.7624   5.6339   3.0043   N.ar      3 RES3   0.0000
   103 N5B     -0.3543  13.2689   3.0043   N.ar      3 RES3   0.0000
   104 N6A      3.2548   7.2020   5.9210   N.am      3 RES3   0.0000
   105 N6B     -0.9586  11.1793   5.9210   N.am      3 RES3   0.0000
   106 H5A      2.4551   7.1398   5.6118   H         3 RES3   0.0000
   107 H5B     -0.5048  10.5178   5.6118   H         3 RES3   0.0000
   108 N7A      2.2880   8.3767   7.6277   N.am      3 RES3   0.0000
   109 N7B     -1.4924   9.7546   7.6277   N.am      3 RES3   0.0000
   110 H6A      1.6008   8.4042   7.1091   H         3 RES3   0.0000
   111 H6B     -1.1726   9.1458   7.1091   H         3 RES3   0.0000
   112 C11A     3.8881   6.0980   3.9733   C.ar      3 RES3   0.0000
   113 C11B    -0.3191  12.2797   3.9733   C.ar      3 RES3   0.0000
   114 H13A     2.9772   5.9628   3.8467   H         3 RES3   0.0000
   115 H13B     0.2535  11.5584   3.8467   H         3 RES3   0.0000
   116 C12A     4.2914   6.7487   5.1151   C.ar      3 RES3   0.0000
   117 C12B    -1.0842  12.3036   5.1151   C.ar      3 RES3   0.0000
   118 C13A     5.5835   6.9891   5.2320   C.ar      3 RES3   0.0000
   119 C13B    -1.9385  13.3024   5.2320   C.ar      3 RES3   0.0000
   120 H14A     5.8742   7.5214   5.9405   H         3 RES3   0.0000
   121 H14B    -2.5449  13.2881   5.9405   H         3 RES3   0.0000
   122 C14A     6.5137   6.4879   4.3604   C.ar      3 RES3   0.0000
   123 C14B    -1.9696  14.3586   4.3604   C.ar      3 RES3   0.0000
   124 H15A     7.4205   6.5489   4.5527   H         3 RES3   0.0000
   125 H15B    -2.4758  15.1134   4.5527   H         3 RES3   0.0000
   126 C15A     6.1028   5.9150   3.2307   C.ar      3 RES3   0.0000
   127 C15B    -1.2679  14.2893   3.2307   C.ar      3 RES3   0.0000
   128 H16A     6.7292   5.6961   2.5807   H         3 RES3   0.0000
   129 H16B    -1.3916  14.9412   2.5807   H         3 RES3   0.0000
   130 C16A     3.4026   7.7236   7.1334   C.2       3 RES3   0.0000
   131 C16B    -1.4841  11.0465   7.1334   C.2       3 RES3   0.0000
   132 C17A     2.1498   9.0178   8.9107   C.3       3 RES3   0.0000
   133 C17B    -1.9786   9.3145   8.9107   C.3       3 RES3   0.0000
   134 H17A     1.6940   9.8671   8.7890   H         3 RES3   0.0000
   135 H17B    -2.4862   8.4951   8.7890   H         3 RES3   0.0000
   136 H18A     3.0310   9.2020   9.2759   H         3 RES3   0.0000
   137 H18B    -2.5787   9.9855   9.2759   H         3 RES3   0.0000
   138 C18A     1.3998   8.1996   9.8712   C.3       3 RES3   0.0000
   139 C18B    -0.8950   9.0740   9.8712   C.3       3 RES3   0.0000
   140 H19A     1.4074   8.6386  10.7367   H         3 RES3   0.0000
   141 H19B    -1.2790   8.8611  10.7367   H         3 RES3   0.0000
   142 H20A     1.8425   7.3420   9.9698   H         3 RES3   0.0000
   143 H20B    -0.3736   9.8862   9.9698   H         3 RES3   0.0000
   144 O1A      4.4357   7.8001   7.7871   O.2       3 RES3   0.0000
   145 O1B     -2.0670  11.9029   7.7871   O.2       3 RES3   0.0000
   146 O4       1.2914   6.4688   1.0396   O.3       4 RES4   0.0000
   147 O5       3.5877   4.6997   0.7133   O.3       5 RES5   0.0000
   148 O6      -5.0973   5.3360   8.9034   O.3       6 RES6   0.0000
   149 O7      -6.9053   3.9868   7.2673   O.3       7 RES7   0.0000
@<TRIPOS>BOND
     1     1     2    1
     2     2    10   ar
     3     3     4    1
     4     5     3    1
     5     6     1    1
     6     7     8    1
     7     9     7    1
     8    10    11    1
     9    12     3    1
    10    13    12   ar
    11    14    13    1
    12    15    13   ar
    13    16    15    1
    14    17     2   ar
    15    18     6   ar
    16    19    18   ar
    17    20    19    1
    18    21    19   ar
    19    22    21    1
    20    23     7    1
    21    24     6   ar
    22    25    24    1
    23    26     1    1
    24    27     1    1
    25    28    30    1
    26    29    31    1
    27    32    28    1
    28    33    29    1
    29    34     1    1
    30    35     1    1
    31    36    38    1
    32    37    39    1
    33    40    36    1
    34    41    37    1
    35    42    26   ar
    36    43    27   ar
    37    44    42    1
    38    45    43    1
    39    46    28    1
    40    47    29    1
    41    48    46   ar
    42    49    47   ar
    43    50    48    1
    44    51    49    1
    45    52    48   ar
    46    53    49   ar
    47    54    52    1
    48    55    53    1
    49    56    26   ar
    50    57    27   ar
    51    58    34   ar
    52    59    35   ar
    53    60    58   ar
    54    61    59   ar
    55    62    60    1
    56    63    61    1
    57    64    60   ar
    58    65    61   ar
    59    66    64    1
    60    67    65    1
    61    68    36    1
    62    69    37    1
    63    70    34   ar
    64    71    35   ar
    65    72    70    1
    66    73    71    1
    67    10    12   ar
    68    15    17   ar
    69    17    18    1
    70    21    23   ar
    71    23    24   ar
    72    42    46   ar
    73    43    47   ar
    74    52    56   ar
    75    53    57   ar
    76    56    58    1
    77    57    59    1
    78    64    68   ar
    79    65    69   ar
    80    68    70   ar
    81    69    71   ar
    82    74    75    1
    83    76    74    1
    84    77    74    2
    85    78    74    2
    86    79    85   ar
    87    80    81    1
    88    82    83    1
    89    84    98    1
    90    85    86    1
    91    87    80    1
    92    88    87   ar
    93    89    88    1
    94    90    88   ar
    95    91    90    1
    96    92    79   ar
    97    93    92    1
    98    94    80   am
    99    95    82    1
   100    96    95    1
   101    97    95    1
   102    98    95    1
   103    99    98    1
   104   100    98    1
   105   101    94    2
   106   102   112   ar
   107   103   113   ar
   108   104   106    1
   109   105   107    1
   110   108   110    1
   111   109   111    1
   112   112   114    1
   113   113   115    1
   114   116   104    1
   115   117   105    1
   116   118   116   ar
   117   119   117   ar
   118   120   118    1
   119   121   119    1
   120   122   118   ar
   121   123   119   ar
   122   124   122    1
   123   125   123    1
   124   126   102   ar
   125   127   103   ar
   126   128   126    1
   127   129   127    1
   128   130   104   am
   129   131   105   am
   130   132   108    1
   131   133   109    1
   132   134   132    1
   133   135   133    1
   134   136   132    1
   135   137   133    1
   136   138    84    1
   137   139    84    1
   138   140   138    1
   139   141   139    1
   140   142   138    1
   141   143   139    1
   142   144   130    2
   143   145   131    2
   144    82    94   am
   145    85    87   ar
   146    90    92   ar
   147   108   130   am
   148   109   131   am
   149   112   116   ar
   150   113   117   ar
   151   122   126   ar
   152   123   127   ar
   153   132   138    1
   154   133   139    1
@<TRIPOS>SUBSTRUCTURE
     1 RES1        1 GROUP             0 ****  ****    0  
     2 RES2       74 GROUP             0 ****  ****    0  
     3 RES3       79 GROUP             0 ****  ****    0  
     4 RES4      146 GROUP             0 ****  ****    0  
     5 RES5      147 GROUP             0 ****  ****    0  
     6 RES6      148 GROUP             0 ****  ****    0  
     7 RES7      149 GROUP             0 ****  ****    0  
@<TRIPOS>CRYSIN
   13.8120   13.8120  121.7310   90.0000   90.0000  120.0000   238     1
