@<TRIPOS>MOLECULE
BULLAW
   147   154     5     0     0
SMALL
USER_CHARGES
****
Generated from the CSD

@<TRIPOS>ATOM
     1 Fe1      0.0000   0.0000   4.4776   Fe        1 RES1   2.0000
     2 N1      -0.6713   1.5083   5.5519   N.ar      1 RES1   0.0000
     3 N2       0.7633   1.5009   3.4264   N.ar      1 RES1   0.0000
     4 C1      -1.2613   1.4225   6.7699   C.ar      1 RES1   0.0000
     5 H1      -1.5562   0.5881   7.0561   H         1 RES1   0.0000
     6 N3      -1.8590   2.2936   8.9048   N.pl3     1 RES1   0.0000
     7 H2      -1.9941   1.4936   9.1872   H         1 RES1   0.0000
     8 H3      -1.9793   2.9626   9.4301   H         1 RES1   0.0000
     9 C2      -1.4537   2.5031   7.6134   C.ar      1 RES1   0.0000
    10 C3      -0.3155   2.7396   5.1113   C.ar      1 RES1   0.0000
    11 C4      -0.5836   3.8827   5.8682   C.ar      1 RES1   0.0000
    12 H4      -0.3841   4.7232   5.5236   H         1 RES1   0.0000
    13 C5      -1.1311   3.7700   7.1069   C.ar      1 RES1   0.0000
    14 H5      -1.2917   4.5309   7.6171   H         1 RES1   0.0000
    15 C6       0.4407   2.7261   3.8669   C.ar      1 RES1   0.0000
    16 C7       0.8517   3.8570   3.1854   C.ar      1 RES1   0.0000
    17 H6       0.6048   4.6963   3.4998   H         1 RES1   0.0000
    18 C8       1.5294   1.3894   2.3307   C.ar      1 RES1   0.0000
    19 H7       1.7656   0.5416   2.0295   H         1 RES1   0.0000
    20 C9       1.6029   3.7614   2.0728   C.ar      1 RES1   0.0000
    21 H8       1.8604   4.5284   1.6153   H         1 RES1   0.0000
    22 C10      1.9885   2.5178   1.6172   C.ar      1 RES1   0.0000
    23 N4       2.7694   2.2973   0.4857   N.pl3     1 RES1   0.0000
    24 H9       3.0474   2.9626   0.0188   H         1 RES1   0.0000
    25 H10      2.9760   1.4936   0.2560   H         1 RES1   0.0000
    26 N1A     -0.9705  -1.3355   5.5519   N.ar      1 RES1   0.0000
    27 N1B      1.6418  -0.1728   5.5519   N.ar      1 RES1   0.0000
    28 N2A     -1.6815  -0.0894   3.4264   N.ar      1 RES1   0.0000
    29 N2B      0.9182  -1.4115   3.4264   N.ar      1 RES1   0.0000
    30 C1A     -0.6013  -1.8035   6.7699   C.ar      1 RES1   0.0000
    31 C1B      1.8625   0.3810   6.7699   C.ar      1 RES1   0.0000
    32 H1A      0.2688  -1.6418   7.0561   H         1 RES1   0.0000
    33 H1B      1.2874   1.0537   7.0561   H         1 RES1   0.0000
    34 N3A     -1.0568  -2.7568   8.9048   N.pl3     1 RES1   0.0000
    35 N3B      2.9158   0.4631   8.9048   N.pl3     1 RES1   0.0000
    36 H2A     -0.2964  -2.4737   9.1872   H         1 RES1   0.0000
    37 H2B      2.2905   0.9802   9.1872   H         1 RES1   0.0000
    38 H3A     -1.5761  -3.1954   9.4301   H         1 RES1   0.0000
    39 H3B      3.5553   0.2328   9.4301   H         1 RES1   0.0000
    40 C2A     -1.4409  -2.5105   7.6134   C.ar      1 RES1   0.0000
    41 C2B      2.8946   0.0074   7.6134   C.ar      1 RES1   0.0000
    42 C3A     -2.2148  -1.6430   5.1113   C.ar      1 RES1   0.0000
    43 C3B      2.5303  -1.0966   5.1113   C.ar      1 RES1   0.0000
    44 C4A     -3.0708  -2.4468   5.8682   C.ar      1 RES1   0.0000
    45 C4B      3.6544  -1.4360   5.8682   C.ar      1 RES1   0.0000
    46 H4A     -3.8984  -2.6943   5.5236   H         1 RES1   0.0000
    47 H4B      4.2825  -2.0290   5.5236   H         1 RES1   0.0000
    48 C5A     -2.6994  -2.8646   7.1069   C.ar      1 RES1   0.0000
    49 C5B      3.8305  -0.9054   7.1069   C.ar      1 RES1   0.0000
    50 H5A     -3.2780  -3.3841   7.6171   H         1 RES1   0.0000
    51 H5B      4.5697  -1.1468   7.6171   H         1 RES1   0.0000
    52 C6A     -2.5812  -0.9814   3.8669   C.ar      1 RES1   0.0000
    53 C6B      2.1405  -1.7447   3.8669   C.ar      1 RES1   0.0000
    54 C7A     -3.7661  -1.1909   3.1854   C.ar      1 RES1   0.0000
    55 C7B      2.9144  -2.6661   3.1854   C.ar      1 RES1   0.0000
    56 H6A     -4.3695  -1.8244   3.4998   H         1 RES1   0.0000
    57 H6B      3.7647  -2.8719   3.4998   H         1 RES1   0.0000
    58 C8A     -1.9679   0.6298   2.3307   C.ar      1 RES1   0.0000
    59 C8B      0.4386  -2.0192   2.3307   C.ar      1 RES1   0.0000
    60 H7A     -1.3518   1.2583   2.0295   H         1 RES1   0.0000
    61 H7B     -0.4138  -1.7999   2.0295   H         1 RES1   0.0000
    62 C9A     -4.0590  -0.4925   2.0728   C.ar      1 RES1   0.0000
    63 C9B      2.4560  -3.2689   2.0728   C.ar      1 RES1   0.0000
    64 H8A     -4.8520  -0.6530   1.6153   H         1 RES1   0.0000
    65 H8B      2.9915  -3.8754   1.6153   H         1 RES1   0.0000
    66 C10A    -3.1747   0.4631   1.6172   C.ar      1 RES1   0.0000
    67 C10B     1.1863  -2.9810   1.6172   C.ar      1 RES1   0.0000
    68 N4A     -3.3742   1.2497   0.4857   N.pl3     1 RES1   0.0000
    69 N4B      0.6048  -3.5470   0.4857   N.pl3     1 RES1   0.0000
    70 H9A     -4.0894   1.1578   0.0188   H         1 RES1   0.0000
    71 H9B      1.0420  -4.1204   0.0188   H         1 RES1   0.0000
    72 H10A    -2.7814   1.8305   0.2560   H         1 RES1   0.0000
    73 H10B    -0.1945  -3.3240   0.2560   H         1 RES1   0.0000
    74 S1      -0.0007   8.1686   5.3811   S.o2      2 RES2   0.0000
    75 O1      -0.0007   8.1686   6.8490   O.3       2 RES2  -1.0000
    76 O2       1.3363   7.9260   4.9287   O.3       2 RES2  -1.0000
    77 O2A     -0.4584   9.4465   4.9287   O.2       2 RES2   0.0000
    78 O2B     -0.8779   7.1320   4.9287   O.2       2 RES2   0.0000
    79 N5      -0.0007   8.1686  10.1718   N.3       3 RES3   0.0000
    80 O3      -4.6546   7.7287   8.2930   O.2       3 RES3   0.0000
    81 N6      -2.4143   7.7814   8.4775   N.am      3 RES3   0.0000
    82 H11     -1.6532   7.6883   8.0897   H         3 RES3   0.0000
    83 C11     -3.5320   7.6025   7.7715   C.2       3 RES3   0.0000
    84 C12     -1.2591   7.6087  10.6331   C.3       3 RES3   0.0000
    85 H12     -1.3596   7.8022  11.5782   H         3 RES3   0.0000
    86 H13     -1.2301   6.6444  10.5314   H         3 RES3   0.0000
    87 N7      -3.3636   7.2350   6.4819   N.am      3 RES3   0.0000
    88 H14     -2.5558   7.1737   6.1957   H         3 RES3   0.0000
    89 C13     -2.4567   8.1343   9.9026   C.3       3 RES3   0.0000
    90 H15     -3.2632   7.7692  10.2999   H         3 RES3   0.0000
    91 H16     -2.4907   9.0998   9.9930   H         3 RES3   0.0000
    92 N8      -4.9015   5.8063   3.5224   N.ar      3 RES3   0.0000
    93 C14     -4.3766   6.9483   5.5764   C.ar      3 RES3   0.0000
    94 C15     -5.6753   7.3795   5.6630   C.ar      3 RES3   0.0000
    95 H17     -5.9654   7.9137   6.3652   H         3 RES3   0.0000
    96 C16     -6.5490   6.9691   4.6294   C.ar      3 RES3   0.0000
    97 H18     -7.4389   7.2386   4.6576   H         3 RES3   0.0000
    98 C17     -4.0222   6.1433   4.4957   C.ar      3 RES3   0.0000
    99 H19     -3.1500   5.8260   4.4392   H         3 RES3   0.0000
   100 C18     -6.1443   6.2193   3.6278   C.ar      3 RES3   0.0000
   101 H20     -6.7584   5.9718   2.9746   H         3 RES3   0.0000
   102 O3A      2.7079   4.3569   8.2930   O.2       3 RES3   0.0000
   103 O3B      1.9467  12.4189   8.2930   O.2       3 RES3   0.0000
   104 N6A      1.5421   6.2707   8.4775   N.am      3 RES3   0.0000
   105 N6B      0.8722  10.4524   8.4775   N.am      3 RES3   0.0000
   106 H11A     1.2422   6.9764   8.0897   H         3 RES3   0.0000
   107 H11B     0.4110   9.8398   8.0897   H         3 RES3   0.0000
   108 C11A     2.2559   5.3922   7.7715   C.2       3 RES3   0.0000
   109 C11B     1.2761  11.5098   7.7715   C.2       3 RES3   0.0000
   110 C12A     1.1141   7.3575  10.6331   C.3       3 RES3   0.0000
   111 C12B     0.1450   9.5384  10.6331   C.3       3 RES3   0.0000
   112 H12A     0.9967   7.1737  11.5782   H         3 RES3   0.0000
   113 H12B     0.3629   9.5286  11.5782   H         3 RES3   0.0000
   114 H13A     1.9347   7.8647  10.5314   H         3 RES3   0.0000
   115 H13B    -0.7046   9.9954  10.5314   H         3 RES3   0.0000
   116 N7A      2.4900   5.7218   6.4819   N.am      3 RES3   0.0000
   117 N7B      0.8736  11.5478   6.4819   N.am      3 RES3   0.0000
   118 H14A     2.1391   6.4520   6.1957   H         3 RES3   0.0000
   119 H14B     0.4166  10.8788   6.1957   H         3 RES3   0.0000
   120 C13A     1.2577   6.0575   9.9026   C.3       3 RES3   0.0000
   121 C13B     1.1990  10.3127   9.9026   C.3       3 RES3   0.0000
   122 H15A     1.9771   5.5417  10.2999   H         3 RES3   0.0000
   123 H15B     1.2860  11.1937  10.2999   H         3 RES3   0.0000
   124 H16A     0.4386   5.5454   9.9930   H         3 RES3   0.0000
   125 H16B     2.0521   9.8594   9.9930   H         3 RES3   0.0000
   126 N8A      4.4961   5.1043   3.5224   N.ar      3 RES3   0.0000
   127 N8B      0.4053  13.5939   3.5224   N.ar      3 RES3   0.0000
   128 C14A     3.2448   4.9879   5.5764   C.ar      3 RES3   0.0000
   129 C14B     1.1318  12.5684   5.5764   C.ar      3 RES3   0.0000
   130 C15A     3.5207   3.6475   5.6630   C.ar      3 RES3   0.0000
   131 C15B     2.1547  13.4775   5.6630   C.ar      3 RES3   0.0000
   132 H17A     3.2030   3.1292   6.3652   H         3 RES3   0.0000
   133 H17B     2.7623  13.4616   6.3652   H         3 RES3   0.0000
   134 C16A     4.3129   3.0961   4.6294   C.ar      3 RES3   0.0000
   135 C16B     2.2360  14.4393   4.6294   C.ar      3 RES3   0.0000
   136 H18A     4.5244   2.1907   4.6576   H         3 RES3   0.0000
   137 H18B     2.9144  15.0752   4.6576   H         3 RES3   0.0000
   138 C17A     3.7647   5.6973   4.4957   C.ar      3 RES3   0.0000
   139 C17B     0.2575  12.6639   4.4957   C.ar      3 RES3   0.0000
   140 H19A     3.6034   6.6113   4.4392   H         3 RES3   0.0000
   141 H19B    -0.4534  12.0673   4.4392   H         3 RES3   0.0000
   142 C18A     4.7600   3.8215   3.6278   C.ar      3 RES3   0.0000
   143 C18B     1.3844  14.4638   3.6278   C.ar      3 RES3   0.0000
   144 H20A     5.2813   3.4135   2.9746   H         3 RES3   0.0000
   145 H20B     1.4770  15.1193   2.9746   H         3 RES3   0.0000
   146 O4       1.8180   7.7336   2.1839   O.3       4 RES4   0.0000
   147 O5       2.8416   5.3383  -1.0298   O.3       5 RES5   0.0000
@<TRIPOS>BOND
     1     1     2    1
     2     2     4   ar
     3     3     1    1
     4     4     5    1
     5     6     7    1
     6     8     6    1
     7     9     4   ar
     8    10     2   ar
     9    11    10   ar
    10    12    11    1
    11    13     9   ar
    12    14    13    1
    13    15     3   ar
    14    16    15   ar
    15    17    16    1
    16    18     3   ar
    17    19    18    1
    18    20    16   ar
    19    21    20    1
    20    22    18   ar
    21    23    22    1
    22    24    23    1
    23    25    23    1
    24    26     1    1
    25    27     1    1
    26    28     1    1
    27    29     1    1
    28    30    26   ar
    29    31    27   ar
    30    32    30    1
    31    33    31    1
    32    34    36    1
    33    35    37    1
    34    38    34    1
    35    39    35    1
    36    40    30   ar
    37    41    31   ar
    38    42    26   ar
    39    43    27   ar
    40    44    42   ar
    41    45    43   ar
    42    46    44    1
    43    47    45    1
    44    48    40   ar
    45    49    41   ar
    46    50    48    1
    47    51    49    1
    48    52    28   ar
    49    53    29   ar
    50    54    52   ar
    51    55    53   ar
    52    56    54    1
    53    57    55    1
    54    58    28   ar
    55    59    29   ar
    56    60    58    1
    57    61    59    1
    58    62    54   ar
    59    63    55   ar
    60    64    62    1
    61    65    63    1
    62    66    58   ar
    63    67    59   ar
    64    68    66    1
    65    69    67    1
    66    70    68    1
    67    71    69    1
    68    72    68    1
    69    73    69    1
    70     6     9    1
    71    10    15    1
    72    11    13   ar
    73    20    22   ar
    74    34    40    1
    75    35    41    1
    76    42    52    1
    77    43    53    1
    78    44    48   ar
    79    45    49   ar
    80    62    66   ar
    81    63    67   ar
    82    74    75    1
    83    76    74    1
    84    77    74    2
    85    78    74    2
    86    79    84    1
    87    80    83    2
    88    81    82    1
    89    83    81   am
    90    84    85    1
    91    86    84    1
    92    87    83   am
    93    88    87    1
    94    89    81    1
    95    90    89    1
    96    91    89    1
    97    92    98   ar
    98    93    87    1
    99    94    93   ar
   100    95    94    1
   101    96    94   ar
   102    97    96    1
   103    98    93   ar
   104    99    98    1
   105   100    92   ar
   106   101   100    1
   107   102   108    2
   108   103   109    2
   109   104   106    1
   110   105   107    1
   111   108   104   am
   112   109   105   am
   113   110    79    1
   114   111    79    1
   115   112   110    1
   116   113   111    1
   117   114   110    1
   118   115   111    1
   119   116   108   am
   120   117   109   am
   121   118   116    1
   122   119   117    1
   123   120   104    1
   124   121   105    1
   125   122   120    1
   126   123   121    1
   127   124   120    1
   128   125   121    1
   129   126   138   ar
   130   127   139   ar
   131   128   116    1
   132   129   117    1
   133   130   128   ar
   134   131   129   ar
   135   132   130    1
   136   133   131    1
   137   134   130   ar
   138   135   131   ar
   139   136   134    1
   140   137   135    1
   141   138   128   ar
   142   139   129   ar
   143   140   138    1
   144   141   139    1
   145   142   126   ar
   146   143   127   ar
   147   144   142    1
   148   145   143    1
   149    84    89    1
   150    96   100   ar
   151   110   120    1
   152   111   121    1
   153   134   142   ar
   154   135   143   ar
@<TRIPOS>SUBSTRUCTURE
     1 RES1        1 GROUP             0 ****  ****    0  
     2 RES2       74 GROUP             0 ****  ****    0  
     3 RES3       79 GROUP             0 ****  ****    0  
     4 RES4      146 GROUP             0 ****  ****    0  
     5 RES5      147 GROUP             0 ****  ****    0  
@<TRIPOS>CRYSIN
   14.1477   14.1477   18.8263   90.0000   90.0000  120.0000   147     1
