@<TRIPOS>MOLECULE
BUQVUF
   108   111     8     0     0
SMALL
NO_CHARGES
****
Generated from the CSD

@<TRIPOS>ATOM
     1 Fe1      3.9936   1.5086   5.6353   Fe        1 RES1   0.0000
     2 C1       7.3927   1.3927   6.3243   C.3       1 RES1   0.0000
     3 H1       7.2593   0.4494   6.5949   H         1 RES1   0.0000
     4 H2       8.2873   1.4628   5.9063   H         1 RES1   0.0000
     5 C2       6.4793   3.6735   5.0247   C.3       1 RES1   0.0000
     6 H3       7.3447   3.8081   4.5620   H         1 RES1   0.0000
     7 H4       5.7815   4.1367   4.4986   H         1 RES1   0.0000
     8 C3       5.2638   4.3384   7.0517   C.3       1 RES1   0.0000
     9 H5       4.6021   4.7980   6.4768   H         1 RES1   0.0000
    10 H6       5.3655   4.8700   7.8802   H         1 RES1   0.0000
    11 C4       6.1558   2.0751   8.3681   C.3       1 RES1   0.0000
    12 H7       6.2653   2.5929   9.2049   H         1 RES1   0.0000
    13 H8       6.0589   1.1196   8.6103   H         1 RES1   0.0000
    14 C5       7.5878   3.6611   7.1772   C.3       1 RES1   0.0000
    15 H9       7.6749   4.1807   8.0157   H         1 RES1   0.0000
    16 H10      8.4516   3.7273   6.6976   H         1 RES1   0.0000
    17 N1       7.3583   2.2462   7.5283   N.3       1 RES1   0.0000
    18 N2       6.5534   4.2869   6.3533   N.3       1 RES1   0.0000
    19 C6       4.2333  -0.9822   3.1252   C.3       1 RES1   0.0000
    20 H11      3.8355  -1.2899   2.2733   H         1 RES1   0.0000
    21 H12      5.1660  -0.7039   2.9444   H         1 RES1   0.0000
    22 C7       1.7105  -0.4828   4.1117   C.3       1 RES1   0.0000
    23 H13      1.0545   0.1137   4.5532   H         1 RES1   0.0000
    24 H14      1.3172  -0.7864   3.2548   H         1 RES1   0.0000
    25 C8       4.9501  -1.8212   5.3496   C.3       1 RES1   0.0000
    26 H15      5.8661  -1.5098   5.1391   H         1 RES1   0.0000
    27 H16      5.0264  -2.6642   5.8626   H         1 RES1   0.0000
    28 C9       2.4013  -1.3151   6.3372   C.3       1 RES1   0.0000
    29 H17      2.4045  -2.1386   6.8856   H         1 RES1   0.0000
    30 H18      1.7490  -0.6880   6.7392   H         1 RES1   0.0000
    31 C10      2.8735  -2.5968   4.3314   C.3       1 RES1   0.0000
    32 H19      2.4825  -2.8710   3.4625   H         1 RES1   0.0000
    33 H20      2.9363  -3.4066   4.8964   H         1 RES1   0.0000
    34 N3       4.2340  -2.0891   4.0916   N.3       1 RES1   0.0000
    35 N4       1.9579  -1.6531   4.9738   N.3       1 RES1   0.0000
    36 P1       6.0944   1.8502   5.0610   P.3       1 RES1   0.0000
    37 C11      6.8709   1.3134   3.4913   C.ar      1 RES1   0.0000
    38 C12      7.5801   0.1046   3.4126   C.ar      1 RES1   0.0000
    39 H21      7.7293  -0.4126   4.1948   H         1 RES1   0.0000
    40 C13      8.0650  -0.3318   2.1837   C.ar      1 RES1   0.0000
    41 H22      8.5248  -1.1621   2.1269   H         1 RES1   0.0000
    42 C14      7.8821   0.4315   1.0436   C.ar      1 RES1   0.0000
    43 H23      8.2023   0.1203   0.2055   H         1 RES1   0.0000
    44 C15      7.2323   1.6495   1.1290   C.ar      1 RES1   0.0000
    45 H24      7.1362   2.1922   0.3563   H         1 RES1   0.0000
    46 C16      6.7174   2.0804   2.3529   C.ar      1 RES1   0.0000
    47 H25      6.2580   2.9100   2.4045   H         1 RES1   0.0000
    48 P2       4.6206   2.6453   7.4889   P.3       1 RES1   0.0000
    49 C17      3.4234   3.0281   8.8062   C.ar      1 RES1   0.0000
    50 C18      2.3736   3.9147   8.5174   C.ar      1 RES1   0.0000
    51 H26      2.3154   4.3191   7.6594   H         1 RES1   0.0000
    52 C19      1.4224   4.1988   9.4847   C.ar      1 RES1   0.0000
    53 H27      0.7167   4.8044   9.2879   H         1 RES1   0.0000
    54 C20      1.4957   3.6053  10.7350   C.ar      1 RES1   0.0000
    55 H28      0.8285   3.7887  11.3864   H         1 RES1   0.0000
    56 C21      2.5389   2.7450  11.0388   C.ar      1 RES1   0.0000
    57 H29      2.5921   2.3499  11.9023   H         1 RES1   0.0000
    58 C22      3.5091   2.4585  10.0823   C.ar      1 RES1   0.0000
    59 H30      4.2289   1.8761  10.2956   H         1 RES1   0.0000
    60 P3       3.2700   0.4721   3.7652   P.3       1 RES1   0.0000
    61 C23      2.8244   1.4107   2.2707   C.ar      1 RES1   0.0000
    62 C24      3.7052   1.4902   1.1885   C.ar      1 RES1   0.0000
    63 H31      4.5238   1.0080   1.2088   H         1 RES1   0.0000
    64 C25      3.3903   2.2629   0.0940   C.ar      1 RES1   0.0000
    65 H32      3.9989   2.3203  -0.6339   H         1 RES1   0.0000
    66 C26      2.1893   2.9578   0.0448   C.ar      1 RES1   0.0000
    67 H33      1.9814   3.5023  -0.7039   H         1 RES1   0.0000
    68 C27      1.3002   2.8500   1.0954   C.ar      1 RES1   0.0000
    69 H34      0.4625   3.2959   1.0492   H         1 RES1   0.0000
    70 C28      1.6174   2.1002   2.2135   C.ar      1 RES1   0.0000
    71 H35      1.0103   2.0562   2.9422   H         1 RES1   0.0000
    72 P4       4.0987  -0.5410   6.4027   P.3       1 RES1   0.0000
    73 C29      4.6065  -1.0089   8.0800   C.ar      1 RES1   0.0000
    74 C30      3.7171  -0.7966   9.1458   C.ar      1 RES1   0.0000
    75 H36      2.8622  -0.4198   8.9753   H         1 RES1   0.0000
    76 C31      4.0680  -1.1289  10.4410   C.ar      1 RES1   0.0000
    77 H37      3.4565  -0.9868  11.1547   H         1 RES1   0.0000
    78 C32      5.3191  -1.6707  10.6930   C.ar      1 RES1   0.0000
    79 H38      5.5609  -1.8970  11.5831   H         1 RES1   0.0000
    80 C33      6.2182  -1.8858   9.6659   C.ar      1 RES1   0.0000
    81 H39      7.0769  -2.2469   9.8519   H         1 RES1   0.0000
    82 C34      5.8595  -1.5733   8.3626   C.ar      1 RES1   0.0000
    83 H40      6.4698  -1.7435   7.6551   H         1 RES1   0.0000
    84 C35      2.0037   2.9181   5.4490   C.2       1 RES1   0.0000
    85 O1       3.1866   3.2528   4.9808   O.co2     1 RES1   0.0000
    86 O2       2.0451   1.7669   6.0840   O.co2     1 RES1   0.0000
    87 O3       0.9643   3.5924   5.3039   O.co2     1 RES1   0.0000
    88 O4       9.9173   0.8642   8.2107   O.3       2 RES2   0.0000
    89 H41      9.1521   1.3290   8.2977   H         2 RES2   0.0000
    90 H42     10.4677   1.2077   7.5917   H         2 RES2   0.0000
    91 O5       8.1284   5.3314   1.0532   O.3       3 RES3   0.0000
    92 H43      7.2337   5.3063   1.1826   H         3 RES3   0.0000
    93 H44      8.5947   5.1910   1.8099   H         3 RES3   0.0000
    94 O6       5.4168   5.3928   1.5166   O.3       4 RES4   0.0000
    95 H45      4.7548   5.2827   2.1138   H         4 RES4   0.0000
    96 H46      5.2881   4.9320   0.7563   H         4 RES4   0.0000
    97 O7       9.9161   5.2278   3.1840   O.3       5 RES5   0.0000
    98 H47      9.5363   5.9884   3.4843   H         5 RES5   0.0000
    99 H48     10.0672   4.6271   3.8385   H         5 RES5   0.0000
   100 O8       3.2901   5.3912   3.3495   O.3       6 RES6   0.0000
   101 H49      3.4147   4.5923   3.7598   H         6 RES6   0.0000
   102 H50      2.4384   5.5169   3.0821   H         6 RES6   0.0000
   103 O9       3.5700   7.2047   5.5535   O.3       7 RES7   0.0000
   104 H51      4.4459   7.4315   5.5303   H         7 RES7   0.0000
   105 H52      3.3437   6.6247   4.8986   H         7 RES7   0.0000
   106 O10      9.2606  -1.9985   8.3963   O.3       8 RES8   0.0000
   107 H53      9.3892  -1.1079   8.3939   H         8 RES8   0.0000
   108 H54      9.0597  -2.3271   7.5807   H         8 RES8   0.0000
@<TRIPOS>BOND
     1     1    36    1
     2     2     3    1
     3     4     2    1
     4     5     6    1
     5     7     5    1
     6     8     9    1
     7    10     8    1
     8    11    12    1
     9    13    11    1
    10    14    15    1
    11    16    14    1
    12    17     2    1
    13    18     5    1
    14    19    20    1
    15    21    19    1
    16    22    23    1
    17    24    22    1
    18    25    26    1
    19    27    25    1
    20    28    29    1
    21    30    28    1
    22    31    32    1
    23    33    31    1
    24    34    19    1
    25    35    22    1
    26    36     2    1
    27    37    36    1
    28    38    37   ar
    29    39    38    1
    30    40    38   ar
    31    41    40    1
    32    42    40   ar
    33    43    42    1
    34    44    42   ar
    35    45    44    1
    36    46    37   ar
    37    47    46    1
    38    48     1    1
    39    49    48    1
    40    50    49   ar
    41    51    50    1
    42    52    50   ar
    43    53    52    1
    44    54    52   ar
    45    55    54    1
    46    56    54   ar
    47    57    56    1
    48    58    49   ar
    49    59    58    1
    50    60     1    1
    51    61    60    1
    52    62    61   ar
    53    63    62    1
    54    64    62   ar
    55    65    64    1
    56    66    64   ar
    57    67    66    1
    58    68    66   ar
    59    69    68    1
    60    70    61   ar
    61    71    70    1
    62    72     1    1
    63    73    72    1
    64    74    73   ar
    65    75    74    1
    66    76    74   ar
    67    77    76    1
    68    78    76   ar
    69    79    78    1
    70    80    78   ar
    71    81    80    1
    72    82    73   ar
    73    83    82    1
    74    84    85    1
    75    85     1    1
    76    86     1    1
    77    87    84    2
    78     5    36    1
    79     8    18    1
    80     8    48    1
    81    11    17    1
    82    11    48    1
    83    14    17    1
    84    14    18    1
    85    19    60    1
    86    22    60    1
    87    25    34    1
    88    25    72    1
    89    28    35    1
    90    28    72    1
    91    31    34    1
    92    31    35    1
    93    44    46   ar
    94    56    58   ar
    95    68    70   ar
    96    80    82   ar
    97    84    86    1
    98    88    89    1
    99    90    88    1
   100    91    92    1
   101    93    91    1
   102    94    95    1
   103    96    94    1
   104    97    98    1
   105    99    97    1
   106   100   101    1
   107   102   100    1
   108   103   104    1
   109   105   103    1
   110   106   107    1
   111   108   106    1
@<TRIPOS>SUBSTRUCTURE
     1 RES1        1 GROUP             0 ****  ****    0  
     2 RES2       88 GROUP             0 ****  ****    0  
     3 RES3       91 GROUP             0 ****  ****    0  
     4 RES4       94 GROUP             0 ****  ****    0  
     5 RES5       97 GROUP             0 ****  ****    0  
     6 RES6      100 GROUP             0 ****  ****    0  
     7 RES7      103 GROUP             0 ****  ****    0  
     8 RES8      106 GROUP             0 ****  ****    0  
@<TRIPOS>CRYSIN
    9.4170   10.5490   22.2750   87.9250   79.2230   65.6000     2     1
