@<TRIPOS>MOLECULE
BUWLUC
   125   131     6     0     0
SMALL
USER_CHARGES
****
Generated from the CSD

@<TRIPOS>ATOM
     1 Pr1      3.9868   8.4906   4.3792   Pr        1 RES1   1.0000
     2 Pr2      6.9880  12.4757   8.7655   Pr        1 RES1   1.0000
     3 Pr3      0.0000  11.4918   8.7655   Pr        1 RES1   1.0000
     4 C1       6.4150  10.1270   6.1446   C.2       1 RES1   0.0000
     5 C2       7.2703   9.2563   5.2400   C.ar      1 RES1   0.0000
     6 C3       8.6553   9.2801   5.3066   C.ar      1 RES1   0.0000
     7 H1       9.1026   9.7986   5.9360   H         1 RES1   0.0000
     8 C4       9.3444   8.4890   4.3880   C.ar      1 RES1   0.0000
     9 H2      10.2752   8.4960   4.3792   H         1 RES1   0.0000
    10 C5       8.6567   7.6994   3.4939   C.ar      1 RES1   0.0000
    11 H3       9.1068   7.1697   2.8768   H         1 RES1   0.0000
    12 C6       7.2787   7.7175   3.5430   C.ar      1 RES1   0.0000
    13 C7       6.4248   6.8413   2.6402   C.2       1 RES1   0.0000
    14 C8       5.3332  14.9068   7.0212   C.2       1 RES1   0.0000
    15 C9       6.2123  15.7621   7.9188   C.ar      1 RES1   0.0000
    16 C10      6.2012  17.1527   7.8539   C.ar      1 RES1   0.0000
    17 H4       5.6826  17.5958   7.2210   H         1 RES1   0.0000
    18 C11      6.9880  17.8725   8.7655   C.ar      1 RES1   0.0000
    19 H5       6.9880  18.8019   8.7655   H         1 RES1   0.0000
    20 C12      0.0000   6.1466   8.7655   C.ar      1 RES1   0.0000
    21 H6       0.0000   5.2172   8.7655   H         1 RES1   0.0000
    22 C13      0.7855   6.8203   7.8591   C.ar      1 RES1   0.0000
    23 H7       1.3040   6.3633   7.2368   H         1 RES1   0.0000
    24 C14      0.7729   8.2039   7.9082   C.ar      1 RES1   0.0000
    25 C15      1.6408   9.0718   7.0089   C.2       1 RES1   0.0000
    26 H8       4.3186   6.4150   6.4689   H         1 RES1   0.0000
    27 H9       2.0265   5.7721   3.9795   H         1 RES1   0.0000
    28 H10      4.9196   9.2940   2.4017   H         1 RES1   0.0000
    29 H11      2.5157  10.7196   5.3382   H         1 RES1   0.0000
    30 H12     -1.6072  11.2367   6.5391   H         1 RES1   0.0000
    31 H13      9.1822  11.0410   9.7122   H         1 RES1   0.0000
    32 H14      4.4024  10.6637   2.3492   H         1 RES1   0.0000
    33 H15      2.0545  10.9013   4.0497   H         1 RES1   0.0000
    34 H16      9.4478  10.3828   8.9233   H         1 RES1   0.0000
    35 N1       6.5855   8.4792   4.3827   N.ar      1 RES1   0.0000
    36 N2       6.9880  15.0633   8.7655   N.ar      1 RES1   0.0000
    37 N3       0.0000   8.9083   8.7655   N.ar      1 RES1   0.0000
    38 O1       5.1516  10.0362   5.9921   O.co2     1 RES1   0.0000
    39 O2       7.0215  10.8705   6.9423   O.co2     1 RES1   0.0000
    40 O3       5.1711   6.9307   2.7734   O.co2     1 RES1   0.0000
    41 O4       7.0453   6.0810   1.8372   O.co2     1 RES1   0.0000
    42 O5       4.9140   6.8972   6.1429   O.3       1 RES1   0.0000
    43 O6       2.6834   6.2081   4.2232   O.3       1 RES1   0.0000
    44 O7       4.5855  15.5315   6.2235   O.co2     1 RES1   0.0000
    45 O8       4.9279  10.0837   2.6332   O.3       1 RES1   0.0000
    46 O9       2.3857   8.4485   6.2077   O.co2     1 RES1   0.0000
    47 O10      2.7113  10.7615   4.5300   O.3       1 RES1   0.0000
    48 O11      2.2767  12.7797   8.5990   O.3       1 RES1   0.0000
    49 O12      1.5527  10.3213   7.1439   O.co2     1 RES1   0.0000
    50 O13     -1.5961  10.5617   7.0177   O.3       1 RES1   0.0000
    51 O14      5.4339  13.6615   7.1526   O.co2     1 RES1   0.0000
    52 O15      8.5631  13.3904   6.9914   O.3       1 RES1   0.0000
    53 O16      9.2703  11.1920   8.8987   O.3       1 RES1   0.0000
    54 C8A      8.6428  14.9068  10.5098   C.2       1 RES1   0.0000
    55 C9A      7.7637  15.7621   9.6122   C.ar      1 RES1   0.0000
    56 C10A     7.7748  17.1527   9.6771   C.ar      1 RES1   0.0000
    57 H4A      8.2934  17.5958  10.3100   H         1 RES1   0.0000
    58 O14A     8.5421  13.6615  10.3784   O.co2     1 RES1   0.0000
    59 O7A      9.3905  15.5315  11.3075   O.co2     1 RES1   0.0000
    60 C13A    -0.7855   6.8203   9.6719   C.ar      1 RES1   0.0000
    61 H7A     -1.3040   6.3633  10.2942   H         1 RES1   0.0000
    62 C14A    -0.7729   8.2039   9.6228   C.ar      1 RES1   0.0000
    63 C15A    -1.6408   9.0718  10.5221   C.2       1 RES1   0.0000
    64 O9A     -2.3857   8.4485  11.3233   O.co2     1 RES1   0.0000
    65 O12A    -1.5527  10.3213  10.3871   O.co2     1 RES1   0.0000
    66 Pr1A    -3.9868   8.4906  13.1518   Pr        1 RES1   1.0000
    67 C1A     -6.4150  10.1270  11.3864   C.2       1 RES1   0.0000
    68 C2A     -7.2703   9.2563  12.2910   C.ar      1 RES1   0.0000
    69 C3A     -8.6553   9.2801  12.2244   C.ar      1 RES1   0.0000
    70 H1A     -9.1026   9.7986  11.5950   H         1 RES1   0.0000
    71 C4A     -9.3444   8.4890  13.1430   C.ar      1 RES1   0.0000
    72 H2A    -10.2752   8.4960  13.1518   H         1 RES1   0.0000
    73 C5A     -8.6567   7.6994  14.0371   C.ar      1 RES1   0.0000
    74 H3A     -9.1068   7.1697  14.6542   H         1 RES1   0.0000
    75 C6A     -7.2787   7.7175  13.9880   C.ar      1 RES1   0.0000
    76 C7A     -6.4248   6.8413  14.8908   C.2       1 RES1   0.0000
    77 H8A     -4.3186   6.4150  11.0621   H         1 RES1   0.0000
    78 H9A     -2.0265   5.7721  13.5515   H         1 RES1   0.0000
    79 H10A    -4.9196   9.2940  15.1293   H         1 RES1   0.0000
    80 H11A    -2.5157  10.7196  12.1928   H         1 RES1   0.0000
    81 H12A     1.6072  11.2367  10.9919   H         1 RES1   0.0000
    82 H14A    -4.4024  10.6637  15.1818   H         1 RES1   0.0000
    83 H15A    -2.0545  10.9013  13.4813   H         1 RES1   0.0000
    84 N1A     -6.5855   8.4792  13.1482   N.ar      1 RES1   0.0000
    85 O1A     -5.1516  10.0362  11.5389   O.co2     1 RES1   0.0000
    86 O2A     -7.0215  10.8705  10.5887   O.co2     1 RES1   0.0000
    87 O3A     -5.1711   6.9307  14.7576   O.co2     1 RES1   0.0000
    88 O4A     -7.0453   6.0810  15.6938   O.co2     1 RES1   0.0000
    89 O5A     -4.9140   6.8972  11.3881   O.3       1 RES1   0.0000
    90 O6A     -2.6834   6.2081  13.3078   O.3       1 RES1   0.0000
    91 O8A     -4.9279  10.0837  14.8978   O.3       1 RES1   0.0000
    92 O10A    -2.7113  10.7615  13.0010   O.3       1 RES1   0.0000
    93 O11A    -2.2767  12.7797   8.9320   O.3       1 RES1   0.0000
    94 O13A     1.5961  10.5617  10.5133   O.3       1 RES1   0.0000
    95 H13A     4.7938  11.0410   7.8188   H         1 RES1   0.0000
    96 H16A     4.5282  10.3828   8.6077   H         1 RES1   0.0000
    97 O16A     4.7057  11.1920   8.6323   O.3       1 RES1   0.0000
    98 O15A     5.4129  13.3904  10.5396   O.3       1 RES1   0.0000
    99 Pr1B    10.9748  15.4786  13.1447   Pr        1 RES1   1.0000
   100 Pr1C     3.0012  15.4786   4.3863   Pr        1 RES1   1.0000
   101 Pr2     -6.9880  12.4757   8.7655   Pr        1 RES1   1.0000
   102 Pr3B    -6.9880   4.5038  17.5310   Pr        1 RES1   1.0000
   103 Pr3B     6.9880   4.5038   0.0000   Pr        1 RES1   1.0000
   104 O2A      6.9545  10.8705  10.5887   O.2       1 RES1   0.0000
   105 O4B      0.0573  13.0690  10.6027   O.2       1 RES1   0.0000
   106 O4C     -0.0573  13.0690   6.9283   O.2       1 RES1   0.0000
   107 O7B     -2.4025   8.5435  14.9890   O.2       1 RES1   0.0000
   108 O7C      2.4025   8.5435   2.5420   O.2       1 RES1   0.0000
   109 Fe1     10.4694   4.9889   6.5747   Fe        2 RES2   0.0000
   110 C16     12.2094   4.3144   6.5233   C.1       2 RES2   0.0000
   111 C17      9.7930   3.2494   6.6460   C.1       2 RES2   0.0000
   112 C18      8.7560   5.6854   6.5180   C.1       2 RES2   0.0000
   113 C19     11.1668   6.7280   6.6390   C.1       2 RES2  -1.0000
   114 C20     10.4862   4.9866   4.6264   C.1       2 RES2  -1.0000
   115 N4      10.4918   4.9810   8.5113   N.2       2 RES2   0.0000
   116 N5       9.3821   2.2096   6.7126   N.1       2 RES2   0.0000
   117 N6       7.6924   6.1033   6.4374   N.1       2 RES2   0.0000
   118 N7      10.4792   4.9964   3.4852   N.1       2 RES2   0.0000
   119 N8      11.5889   7.7916   6.7196   N.1       2 RES2   0.0000
   120 N9      13.2954   3.9133   6.4304   N.1       2 RES2   0.0000
   121 O17     10.4904   5.0034   9.6824   O.2       2 RES2   0.0000
   122 O18      1.6520   1.6576   8.7883   O.3       3 RES3   0.0000
   123 O19     13.8404  10.3562   4.3214   O.3       4 RES4   0.0000
   124 O20      8.5323   8.2556   8.7673   O.3       5 RES5   0.0000
   125 O21     13.7412   7.1795   4.3827   O.3       6 RES6   0.0000
@<TRIPOS>BOND
     1     1    35    1
     2     2    36    1
     3     3    37    1
     4     4     5    1
     5     5     6   ar
     6     6     7    1
     7     8     6   ar
     8     9     8    1
     9    10     8   ar
    10    11    10    1
    11    12    10   ar
    12    13    12    1
    13    14    15    1
    14    15    16   ar
    15    16    17    1
    16    18    16   ar
    17    19    18    1
    18    20    21    1
    19    22    20   ar
    20    23    22    1
    21    24    22   ar
    22    25    24    1
    23    26    42    1
    24    27    43    1
    25    28    45    1
    26    29    47    1
    27    30    50    1
    28    31    53    1
    29    32    45    1
    30    33    47    1
    31    34    53    1
    32    35     5   ar
    33    36    15   ar
    34    37    24   ar
    35    38     1    1
    36    39     2    1
    37    40     1    1
    38    41    13   un
    39    42     1    1
    40    43     1    1
    41    44    14   un
    42    45     1    1
    43    46     1    1
    44    47     1    1
    45    48     3    1
    46    49     3    1
    47    50     3    1
    48    51     2    1
    49    52     2    1
    50    53     2    1
    51    54    55    1
    52    55    36   ar
    53    56    18   ar
    54    57    56    1
    55    58     2    1
    56    59    54   un
    57    60    20   ar
    58    61    60    1
    59    62    37   ar
    60    63    62    1
    61    64    63   un
    62    65     3    1
    63    66    64    1
    64    67    68    1
    65    68    69   ar
    66    69    70    1
    67    71    69   ar
    68    72    71    1
    69    73    71   ar
    70    74    73    1
    71    75    73   ar
    72    76    75    1
    73    77    89    1
    74    78    90    1
    75    79    91    1
    76    80    92    1
    77    81    94    1
    78    82    91    1
    79    83    92    1
    80    84    66    1
    81    85    66    1
    82    86    67   un
    83    87    66    1
    84    88    76   un
    85    89    66    1
    86    90    66    1
    87    91    66    1
    88    92    66    1
    89    93     3    1
    90    94     3    1
    91    95    97    1
    92    96    97    1
    93    97     2    1
    94    98     2    1
    95    99    59   un
    96   100    44   un
    97   101    86   un
    98   102    88   un
    99   103    41   un
   100   104     2   un
   101   105     3   un
   102   106     3   un
   103   107    66   un
   104   108     1   un
   105     4    38   un
   106     4    39   un
   107    12    35   ar
   108    13    40   un
   109    14    51   un
   110    25    46   un
   111    25    49   un
   112    54    58   un
   113    55    56   ar
   114    60    62   ar
   115    63    65   un
   116    67    85   un
   117    68    84   ar
   118    75    84   ar
   119    76    87   un
   120   109   110    1
   121   110   120    3
   122   111   109    1
   123   112   109    1
   124   113   109    1
   125   114   109    1
   126   115   109    1
   127   116   111    3
   128   117   112    3
   129   118   114    3
   130   119   113    3
   131   121   115    2
@<TRIPOS>SUBSTRUCTURE
     1 RES1        1 GROUP             0 ****  ****    0  
     2 RES2      109 GROUP             0 ****  ****    0  
     3 RES3      122 GROUP             0 ****  ****    0  
     4 RES4      123 GROUP             0 ****  ****    0  
     5 RES5      124 GROUP             0 ****  ****    0  
     6 RES6      125 GROUP             0 ****  ****    0  
