@<TRIPOS>MOLECULE
BUWMAJ
   109   115     6     0     0
SMALL
USER_CHARGES
****
Generated from the CSD

@<TRIPOS>ATOM
     1 Nd1      6.9680  13.4108   8.7345   Nd        1 RES1   1.0000
     2 Nd2      3.9783   9.4313  13.0985   Nd        1 RES1   1.0000
     3 Nd3      0.0000  12.4216   8.7345   Nd        1 RES1   1.0000
     4 N1       0.0000   9.8388   8.7345   N.ar      1 RES1   0.0000
     5 N2       6.5583   9.4389  13.1070   N.ar      1 RES1   0.0000
     6 O1       5.1187   7.8683  14.7054   O.co2     1 RES1   0.0000
     7 O2       2.4054   9.3887  11.2675   O.co2     1 RES1   0.0000
     8 O3       5.1326  10.9857  11.5016   O.co2     1 RES1   0.0000
     9 O4       7.0182  11.8442  10.5722   O.co2     1 RES1   0.0000
    10 O5       1.5580   7.5812  15.8584   O.co2     1 RES1   0.0000
    11 O6       7.0028   7.0460  15.6645   O.co2     1 RES1   0.0000
    12 O7       2.3886   9.4793  14.9115   O.co2     1 RES1   0.0000
    13 O8       8.5483  14.3206  10.4797   O.3       1 RES1   0.0000
    14 O9      -2.2702  13.7019   8.6105   O.3       1 RES1   0.0000
    15 O10      2.6883   7.1645  13.2275   O.3       1 RES1   0.0000
    16 O11      2.6869  11.6909  12.9550   O.3       1 RES1   0.0000
    17 O12      4.7132  12.1076   8.8830   O.3       1 RES1   0.0000
    18 O13      1.5636  11.2700  10.3382   O.co2     1 RES1   0.0000
    19 C1       0.7804   9.1573   9.5800   C.ar      1 RES1   0.0000
    20 C2       7.2509  10.2137  12.2528   C.ar      1 RES1   0.0000
    21 O14      4.8971   7.8376  11.3583   O.3       1 RES1   0.0000
    22 O15      4.8818  11.0248  14.8469   O.3       1 RES1   0.0000
    23 C3       7.2384   8.6612  13.9542   C.ar      1 RES1   0.0000
    24 C4       9.3218   9.4389  13.1140   C.ar      1 RES1   0.0000
    25 H1      10.2513   9.4444  13.1210   H         1 RES1   0.0000
    26 C5       1.6584  10.0144  10.4744   C.2       1 RES1   0.0000
    27 C6       8.6152   8.6431  14.0049   C.ar      1 RES1   0.0000
    28 H2       9.0612   8.1108  14.6233   H         1 RES1   0.0000
    29 C7       6.4036  11.0903  11.3583   C.2       1 RES1   0.0000
    30 C8       8.6278  10.2193  12.2178   C.ar      1 RES1   0.0000
    31 H3       9.0821  10.7419  11.5977   H         1 RES1   0.0000
    32 C9       1.6472   8.8424  15.7204   C.2       1 RES1   0.0000
    33 N3       0.0000   9.0068  17.4690   N.ar      1 RES1   0.0000
    34 C10      0.7776   9.7148  16.6130   C.ar      1 RES1   0.0000
    35 C11      0.7734  11.0903  16.5676   C.ar      1 RES1   0.0000
    36 H4       1.2835  11.5474  15.9387   H         1 RES1   0.0000
    37 C12      0.0000  11.7690  17.4690   C.ar      1 RES1   0.0000
    38 H5       0.0000  12.6999  17.4690   H         1 RES1   0.0000
    39 C13      0.0000   7.0656   8.7345   C.ar      1 RES1   0.0000
    40 H6       0.0000   6.1360   8.7345   H         1 RES1   0.0000
    41 C14      6.3799   7.7763  14.8556   C.2       1 RES1   0.0000
    42 C15      0.7860   7.7637   9.6376   C.ar      1 RES1   0.0000
    43 H7       1.3044   7.3150  10.2648   H         1 RES1   0.0000
    44 O16     -1.5734  11.5195  10.4919   O.3       1 RES1   0.0000
    45 O2A     -2.4054   9.3887   6.2015   O.co2     1 RES1   0.0000
    46 O13A    -1.5636  11.2700   7.1308   O.co2     1 RES1   0.0000
    47 C1A     -0.7804   9.1573   7.8890   C.ar      1 RES1   0.0000
    48 C5A     -1.6584  10.0144   6.9946   C.2       1 RES1   0.0000
    49 C15A    -0.7860   7.7637   7.8314   C.ar      1 RES1   0.0000
    50 H7A     -1.3044   7.3150   7.2042   H         1 RES1   0.0000
    51 O5A     -1.5580   7.5812  19.0796   O.co2     1 RES1   0.0000
    52 O7A     -2.3886   9.4793  20.0265   O.co2     1 RES1   0.0000
    53 C9A     -1.6472   8.8424  19.2176   C.2       1 RES1   0.0000
    54 C10A    -0.7776   9.7148  18.3250   C.ar      1 RES1   0.0000
    55 C11A    -0.7734  11.0903  18.3704   C.ar      1 RES1   0.0000
    56 H4A     -1.2835  11.5474  18.9993   H         1 RES1   0.0000
    57 Nd2A    -3.9783   9.4313   4.3705   Nd        1 RES1   1.0000
    58 N2A     -6.5583   9.4389   4.3620   N.ar      1 RES1   0.0000
    59 O1A     -5.1187   7.8683   2.7636   O.co2     1 RES1   0.0000
    60 O3A     -5.1326  10.9857   5.9674   O.co2     1 RES1   0.0000
    61 O4A     -7.0182  11.8442   6.8968   O.co2     1 RES1   0.0000
    62 O6A     -7.0028   7.0460   1.8045   O.co2     1 RES1   0.0000
    63 O9A      2.2702  13.7019   8.8585   O.3       1 RES1   0.0000
    64 O10A    -2.6883   7.1645   4.2415   O.3       1 RES1   0.0000
    65 O11A    -2.6869  11.6909   4.5140   O.3       1 RES1   0.0000
    66 C2A     -7.2509  10.2137   5.2162   C.ar      1 RES1   0.0000
    67 O14A    -4.8971   7.8376   6.1107   O.3       1 RES1   0.0000
    68 O15A    -4.8818  11.0248   2.6221   O.3       1 RES1   0.0000
    69 C3A     -7.2384   8.6612   3.5148   C.ar      1 RES1   0.0000
    70 C4A     -9.3218   9.4389   4.3550   C.ar      1 RES1   0.0000
    71 H1A    -10.2513   9.4444   4.3480   H         1 RES1   0.0000
    72 C6A     -8.6152   8.6431   3.4641   C.ar      1 RES1   0.0000
    73 H2A     -9.0612   8.1108   2.8457   H         1 RES1   0.0000
    74 C7A     -6.4036  11.0903   6.1107   C.2       1 RES1   0.0000
    75 C8A     -8.6278  10.2193   5.2512   C.ar      1 RES1   0.0000
    76 H3A     -9.0821  10.7419   5.8713   H         1 RES1   0.0000
    77 C14A    -6.3799   7.7763   2.6134   C.2       1 RES1   0.0000
    78 O16A     1.5734  11.5195   6.9771   O.3       1 RES1   0.0000
    79 O8A      5.3877  14.3206   6.9893   O.3       1 RES1   0.0000
    80 O12A     9.2228  12.1076   8.5860   O.3       1 RES1   0.0000
    81 Nd1     -6.9680  13.4108   8.7345   Nd        1 RES1   1.0000
    82 Nd1B     0.0000   6.4428  17.4690   Nd        1 RES1   1.0000
    83 Nd2A    -3.9783   9.4313  21.8395   Nd        1 RES1   1.0000
    84 Nd3B    -6.9680   5.4536   0.0000   Nd        1 RES1   1.0000
    85 Nd3B     6.9680   5.4536  17.4690   Nd        1 RES1   1.0000
    86 O4A      6.9178  11.8442   6.8968   O.2       1 RES1   0.0000
    87 O5B      8.5260  14.5492   7.1239   O.2       1 RES1   0.0000
    88 O5C      5.4100  14.5492  10.3451   O.2       1 RES1   0.0000
    89 O6B      0.0348  14.0140   6.9300   O.2       1 RES1   0.0000
    90 O6C     -0.0348  14.0140  10.5390   O.2       1 RES1   0.0000
    91 O7A     -2.3886   9.4793   2.5575   O.2       1 RES1   0.0000
    92 N3B      6.9680  15.9748   8.7345   N.3       1 RES1   0.0000
    93 Fe1     10.4382  12.9222  15.2852   Fe        2 RES2   0.0000
    94 C16     10.4673  12.9061  17.2367   C.1       2 RES2   0.0000
    95 C17     10.4464  12.9131  13.3393   C.1       2 RES2   0.0000
    96 C18     11.1209  11.1976  15.3518   C.1       2 RES2  -1.0000
    97 C19      8.7156  12.2428  15.2312   C.1       2 RES2  -1.0000
    98 N4      13.2559  13.9876  15.1247   N.1       2 RES2   0.0000
    99 N5      10.4520  12.9145  12.2073   N.1       2 RES2   0.0000
   100 N6      10.4604  12.9215  18.3687   N.1       2 RES2   0.0000
   101 N7       7.6676  11.8400  15.1351   N.1       2 RES2   0.0000
   102 N8       9.3566  15.7087  15.4304   N.1       2 RES2   0.0000
   103 C20     12.1787  13.5932  15.2120   C.1       2 RES2   0.0000
   104 C21      9.7775  14.6328  15.3500   C.1       2 RES2   0.0000
   105 N9      11.5390  10.1175  15.4286   N.1       2 RES2   0.0000
   106 O17     13.7646   7.7637  13.0686   O.3       3 RES3   0.0000
   107 O18     13.7520  11.0652  13.1105   O.3       4 RES4   0.0000
   108 O19      5.3319   9.2925   8.7083   O.3       5 RES5   0.0000
   109 O20     12.4058   2.6952   8.6699   O.3       6 RES6   0.0000
@<TRIPOS>BOND
     1     1     9    1
     2     2     5    1
     3     3     4    1
     4     4    19   ar
     5     5    20   ar
     6     6     2    1
     7     7     2    1
     8     8     2    1
     9     9    29   un
    10    10    32   un
    11    11    41   un
    12    12     2    1
    13    13     1    1
    14    14     3    1
    15    15     2    1
    16    16     2    1
    17    17     1    1
    18    18     3    1
    19    19    26    1
    20    20    29    1
    21    21     2    1
    22    22     2    1
    23    23     5   ar
    24    24    25    1
    25    26     7   un
    26    27    23   ar
    27    28    27    1
    28    29     8   un
    29    30    20   ar
    30    31    30    1
    31    32    12   un
    32    33    34   ar
    33    34    32    1
    34    35    34   ar
    35    36    35    1
    36    37    35   ar
    37    38    37    1
    38    39    40    1
    39    41     6   un
    40    42    19   ar
    41    43    42    1
    42    44     3    1
    43    45    48   un
    44    46     3    1
    45    47     4   ar
    46    48    46   un
    47    49    39   ar
    48    50    49    1
    49    51    53   un
    50    52    53   un
    51    53    54    1
    52    54    33   ar
    53    55    37   ar
    54    56    55    1
    55    57    45    1
    56    58    57    1
    57    59    57    1
    58    60    57    1
    59    61    74   un
    60    62    77   un
    61    63     3    1
    62    64    57    1
    63    65    57    1
    64    66    58   ar
    65    67    57    1
    66    68    57    1
    67    69    58   ar
    68    70    71    1
    69    72    69   ar
    70    73    72    1
    71    74    60   un
    72    75    66   ar
    73    76    75    1
    74    77    59   un
    75    78     3    1
    76    79     1    1
    77    80     1    1
    78    81    61   un
    79    82    10   un
    80    83    52   un
    81    84    62   un
    82    85    11   un
    83    86     1   un
    84    87     1   un
    85    88     1   un
    86    89     3   un
    87    90     3   un
    88    91    57   un
    89    92     1   un
    90    18    26   un
    91    23    41    1
    92    24    27   ar
    93    24    30   ar
    94    33    82   un
    95    39    42   ar
    96    47    48    1
    97    47    49   ar
    98    51    82   un
    99    54    55   ar
   100    66    74    1
   101    69    77    1
   102    70    72   ar
   103    70    75   ar
   104    93    94    1
   105    94   100    3
   106    95    93    1
   107    96    93    1
   108    97    93    1
   109    98   103    3
   110    99    95    3
   111   101    97    3
   112   102   104    3
   113   103    93    1
   114   104    93    1
   115   105    96    3
@<TRIPOS>SUBSTRUCTURE
     1 RES1        1 GROUP             0 ****  ****    0  
     2 RES2       93 GROUP             0 ****  ****    0  
     3 RES3      106 GROUP             0 ****  ****    0  
     4 RES4      107 GROUP             0 ****  ****    0  
     5 RES5      108 GROUP             0 ****  ****    0  
     6 RES6      109 GROUP             0 ****  ****    0  
