@<TRIPOS>MOLECULE
CAKDAV
   107   112     1     0     0
SMALL
NO_CHARGES
****
Generated from the CSD

@<TRIPOS>ATOM
     1 Fe1      7.9231   6.3772   5.2731   Fe        1 RES1   0.0000
     2 O1       6.5869   6.0775   3.9565   O.3       1 RES1   0.0000
     3 O2       8.9306   7.6479   4.3219   O.3       1 RES1   0.0000
     4 O3       6.6869   7.5543   6.3295   O.2       1 RES1   0.0000
     5 O4       9.1815   6.5384   6.9013   O.2       1 RES1   0.0000
     6 N1       7.1631   4.4967   6.3009   N.3       1 RES1   0.0000
     7 N2       9.3988   4.8683   4.5404   N.3       1 RES1   0.0000
     8 C1       5.6452   5.1747   3.6799   C.ar      1 RES1   0.0000
     9 C2       5.0324   5.1309   2.3876   C.ar      1 RES1   0.0000
    10 C3       5.3807   6.1768   1.3152   C.3       1 RES1   0.0000
    11 C4       6.8805   6.1967   1.0188   C.3       1 RES1   0.0000
    12 H1       7.0680   6.8686   0.3299   H         1 RES1   0.0000
    13 H2       7.1631   5.3138   0.7010   H         1 RES1   0.0000
    14 H3       7.3716   6.4241   1.8364   H         1 RES1   0.0000
    15 C5       4.9526   7.5772   1.7965   C.3       1 RES1   0.0000
    16 H4       3.9915   7.5774   1.9876   H         1 RES1   0.0000
    17 H5       5.1471   8.2370   1.0969   H         1 RES1   0.0000
    18 H6       5.4479   7.8089   2.6116   H         1 RES1   0.0000
    19 C6       4.6476   5.8941  -0.0173   C.3       1 RES1   0.0000
    20 H7       3.6795   5.8792   0.1402   H         1 RES1   0.0000
    21 H8       4.9344   5.0270  -0.3711   H         1 RES1   0.0000
    22 H9       4.8617   6.5982  -0.6653   H         1 RES1   0.0000
    23 C7       4.0754   4.1486   2.1737   C.ar      1 RES1   0.0000
    24 H10      3.6613   4.1134   1.3196   H         1 RES1   0.0000
    25 C8       3.6753   3.2028   3.1320   C.ar      1 RES1   0.0000
    26 C9       2.5966   2.1712   2.7870   C.3       1 RES1   0.0000
    27 C10      1.2843   2.8884   2.4973   C.3       1 RES1   0.0000
    28 H11      0.5932   2.2288   2.2763   H         1 RES1   0.0000
    29 H12      1.4060   3.4988   1.7402   H         1 RES1   0.0000
    30 H13      1.0087   3.3985   3.2879   H         1 RES1   0.0000
    31 C11      2.3462   1.1922   3.9436   C.3       1 RES1   0.0000
    32 H14      1.6523   0.5531   3.6865   H         1 RES1   0.0000
    33 H15      2.0538   1.6900   4.7340   H         1 RES1   0.0000
    34 H16      3.1758   0.7108   4.1484   H         1 RES1   0.0000
    35 C12      3.0150   1.3663   1.5532   C.3       1 RES1   0.0000
    36 H17      2.3182   0.7108   1.3388   H         1 RES1   0.0000
    37 H18      3.8558   0.8993   1.7374   H         1 RES1   0.0000
    38 H19      3.1367   1.9727   0.7917   H         1 RES1   0.0000
    39 C13      4.2671   3.2987   4.3755   C.ar      1 RES1   0.0000
    40 H20      4.0153   2.6835   5.0528   H         1 RES1   0.0000
    41 C14      5.2241   4.2705   4.6671   C.ar      1 RES1   0.0000
    42 C15      5.6913   4.4330   6.0917   C.3       1 RES1   0.0000
    43 H21      5.2912   5.2626   6.4549   H         1 RES1   0.0000
    44 H22      5.3360   3.6771   6.6226   H         1 RES1   0.0000
    45 C16      7.3814   4.5190   7.7640   C.3       1 RES1   0.0000
    46 H23      6.9225   5.2933   8.1511   H         1 RES1   0.0000
    47 H24      8.3411   4.5825   7.9504   H         1 RES1   0.0000
    48 H25      7.0246   3.6975   8.1593   H         1 RES1   0.0000
    49 C17      7.8585   3.3405   5.7030   C.3       1 RES1   0.0000
    50 H26      7.4220   3.0932   4.8494   H         1 RES1   0.0000
    51 H27      7.8039   2.5647   6.3147   H         1 RES1   0.0000
    52 C18      9.3135   3.6930   5.4509   C.3       1 RES1   0.0000
    53 H28      9.7598   3.9024   6.3092   H         1 RES1   0.0000
    54 H29      9.7794   2.9212   5.0418   H         1 RES1   0.0000
    55 C19      9.1498   4.4553   3.1411   C.3       1 RES1   0.0000
    56 H30      8.2460   4.0806   3.0680   H         1 RES1   0.0000
    57 H31      9.8059   3.7774   2.8783   H         1 RES1   0.0000
    58 H32      9.2295   5.2339   2.5512   H         1 RES1   0.0000
    59 C20     10.7657   5.4402   4.6454   C.3       1 RES1   0.0000
    60 H33     11.4204   4.7341   4.4123   H         1 RES1   0.0000
    61 H34     10.9280   5.6969   5.5889   H         1 RES1   0.0000
    62 C21     11.0273   6.6455   3.7701   C.ar      1 RES1   0.0000
    63 C22     12.2431   6.7162   3.1010   C.ar      1 RES1   0.0000
    64 H35     12.8405   5.9796   3.1560   H         1 RES1   0.0000
    65 C23     12.6110   7.8269   2.3582   C.ar      1 RES1   0.0000
    66 C24     13.9471   7.9277   1.6063   C.3       1 RES1   0.0000
    67 C25     14.8313   6.7006   1.8449   C.3       1 RES1   0.0000
    68 H36     15.6736   6.8031   1.3553   H         1 RES1   0.0000
    69 H37     14.3654   5.8976   1.5285   H         1 RES1   0.0000
    70 H38     15.0188   6.6146   2.8041   H         1 RES1   0.0000
    71 C26     14.7152   9.1732   2.0811   C.3       1 RES1   0.0000
    72 H39     15.5672   9.2346   1.6000   H         1 RES1   0.0000
    73 H40     14.8887   9.1015   3.0433   H         1 RES1   0.0000
    74 H41     14.1808   9.9741   1.9024   H         1 RES1   0.0000
    75 C27     13.6855   8.0527   0.0984   C.3       1 RES1   0.0000
    76 H42     14.5389   8.1244  -0.3766   H         1 RES1   0.0000
    77 H43     13.1483   8.8557  -0.0742   H         1 RES1   0.0000
    78 H44     13.2000   7.2619  -0.2172   H         1 RES1   0.0000
    79 C28     11.6975   8.8819   2.3112   C.ar      1 RES1   0.0000
    80 H45     11.9353   9.6587   1.8172   H         1 RES1   0.0000
    81 C29     10.4579   8.8643   2.9446   C.ar      1 RES1   0.0000
    82 C30      9.4884  10.0598   2.8602   C.3       1 RES1   0.0000
    83 C31     10.0634  11.2032   2.0217   C.3       1 RES1   0.0000
    84 H46     10.9028  11.5105   2.4220   H         1 RES1   0.0000
    85 H47      9.4226  11.9428   1.9958   H         1 RES1   0.0000
    86 H48     10.2341  10.8857   1.1106   H         1 RES1   0.0000
    87 C32      9.2113  10.6112   4.2702   C.3       1 RES1   0.0000
    88 H49     10.0536  10.9001   4.6790   H         1 RES1   0.0000
    89 H50      8.8042   9.9106   4.8219   H         1 RES1   0.0000
    90 H51      8.6000  11.3753   4.2089   H         1 RES1   0.0000
    91 C33      8.1719   9.6136   2.2119   C.3       1 RES1   0.0000
    92 H52      7.7787   8.8864   2.7381   H         1 RES1   0.0000
    93 H53      8.3481   9.2961   1.3003   H         1 RES1   0.0000
    94 H54      7.5493  10.3695   2.1800   H         1 RES1   0.0000
    95 C34     10.1137   7.7116   3.7033   C.ar      1 RES1   0.0000
    96 C35      7.0134   8.4304   7.2150   C.2       1 RES1   0.0000
    97 C36      5.9194   9.3903   7.5996   C.3       1 RES1   0.0000
    98 H55      5.5360   9.7877   6.7903   H         1 RES1   0.0000
    99 H56      6.2915  10.0971   8.1676   H         1 RES1   0.0000
   100 H57      5.2213   8.9110   8.0906   H         1 RES1   0.0000
   101 C37      8.2474   8.4951   7.8308   C.2       1 RES1   0.0000
   102 H58      8.4363   9.2531   8.3710   H         1 RES1   0.0000
   103 C38      9.2365   7.5157   7.7118   C.2       1 RES1   0.0000
   104 C39     10.4299   7.5426   8.6322   C.3       1 RES1   0.0000
   105 H59     10.4243   6.7416   9.1985   H         1 RES1   0.0000
   106 H60     10.3893   8.3415   9.1957   H         1 RES1   0.0000
   107 H61     11.2526   7.5590   8.0988   H         1 RES1   0.0000
@<TRIPOS>BOND
     1     1     2    1
     2     2     8    1
     3     3     1    1
     4     4     1    1
     5     5     1    1
     6     6     1    1
     7     7     1    1
     8     8     9   ar
     9     9    10    1
    10    10    11    1
    11    11    12    1
    12    13    11    1
    13    14    11    1
    14    15    10    1
    15    16    15    1
    16    17    15    1
    17    18    15    1
    18    19    10    1
    19    20    19    1
    20    21    19    1
    21    22    19    1
    22    23     9   ar
    23    24    23    1
    24    25    23   ar
    25    26    25    1
    26    27    26    1
    27    28    27    1
    28    29    27    1
    29    30    27    1
    30    31    26    1
    31    32    31    1
    32    33    31    1
    33    34    31    1
    34    35    26    1
    35    36    35    1
    36    37    35    1
    37    38    35    1
    38    39    25   ar
    39    40    39    1
    40    41     8   ar
    41    42     6    1
    42    43    42    1
    43    44    42    1
    44    45     6    1
    45    46    45    1
    46    47    45    1
    47    48    45    1
    48    49     6    1
    49    50    49    1
    50    51    49    1
    51    52     7    1
    52    53    52    1
    53    54    52    1
    54    55     7    1
    55    56    55    1
    56    57    55    1
    57    58    55    1
    58    59     7    1
    59    60    59    1
    60    61    59    1
    61    62    59    1
    62    63    62   ar
    63    64    63    1
    64    65    63   ar
    65    66    65    1
    66    67    66    1
    67    68    67    1
    68    69    67    1
    69    70    67    1
    70    71    66    1
    71    72    71    1
    72    73    71    1
    73    74    71    1
    74    75    66    1
    75    76    75    1
    76    77    75    1
    77    78    75    1
    78    79    65   ar
    79    80    79    1
    80    81    79   ar
    81    82    81    1
    82    83    82    1
    83    84    83    1
    84    85    83    1
    85    86    83    1
    86    87    82    1
    87    88    87    1
    88    89    87    1
    89    90    87    1
    90    91    82    1
    91    92    91    1
    92    93    91    1
    93    94    91    1
    94    95     3    1
    95    96     4   un
    96    97    96    1
    97    98    97    1
    98    99    97    1
    99   100    97    1
   100   101    96   un
   101   102   101    1
   102   103     5   un
   103   104   103    1
   104   105   104    1
   105   106   104    1
   106   107   104    1
   107    39    41   ar
   108    41    42    1
   109    49    52    1
   110    62    95   ar
   111    81    95   ar
   112   101   103   un
@<TRIPOS>SUBSTRUCTURE
     1 RES1        1 GROUP             0 ****  ****    0  
@<TRIPOS>CRYSIN
   13.9905   20.4850   27.4910   90.0000   90.0000   90.0000    61     1
