@<TRIPOS>MOLECULE
CAKDAV01
   107   112     1     0     0
SMALL
NO_CHARGES
****
Generated from the CSD

@<TRIPOS>ATOM
     1 Fe1     10.4157   5.1508   3.7482   Fe        1 RES1   0.0000
     2 O1      11.6465   6.2052   4.8053   O.3       1 RES1   0.0000
     3 C1      11.8556   7.4906   4.4499   C.ar      1 RES1   0.0000
     4 C2      13.1100   7.9649   4.0145   C.ar      1 RES1   0.0000
     5 C3      13.1648   9.2940   3.5825   C.ar      1 RES1   0.0000
     6 H1      13.9826   9.6179   3.2806   H         1 RES1   0.0000
     7 C4      12.0843  10.1620   3.5770   C.ar      1 RES1   0.0000
     8 C5      10.8865   9.6767   4.0662   C.ar      1 RES1   0.0000
     9 H2      10.1463  10.2378   4.0983   H         1 RES1   0.0000
    10 C6      10.7706   8.3713   4.5079   C.ar      1 RES1   0.0000
    11 C7       9.5118   7.8588   5.1075   C.3       1 RES1   0.0000
    12 H3       8.8806   8.5916   5.1830   H         1 RES1   0.0000
    13 H4       9.7008   7.5407   6.0049   H         1 RES1   0.0000
    14 N1       8.8713   6.7523   4.3319   N.3       1 RES1   0.0000
    15 C8       7.8899   6.0496   5.1732   C.3       1 RES1   0.0000
    16 H5       7.2872   5.5387   4.6113   H         1 RES1   0.0000
    17 H6       7.3635   6.6971   5.6681   H         1 RES1   0.0000
    18 C9       8.5929   5.1242   6.1363   C.3       1 RES1   0.0000
    19 H7       9.1920   5.6342   6.7024   H         1 RES1   0.0000
    20 H8       7.9401   4.6846   6.7038   H         1 RES1   0.0000
    21 N2       9.3613   4.1117   5.3787   N.3       1 RES1   0.0000
    22 C10     10.4671   3.5612   6.2174   C.3       1 RES1   0.0000
    23 H9      10.1138   3.3098   7.0840   H         1 RES1   0.0000
    24 H10     11.1343   4.2520   6.3558   H         1 RES1   0.0000
    25 C11     11.1183   2.3676   5.5856   C.ar      1 RES1   0.0000
    26 C12     11.2423   1.1942   6.2971   C.ar      1 RES1   0.0000
    27 H11     10.9189   1.1574   7.1679   H         1 RES1   0.0000
    28 C13     11.8373   0.0698   5.7491   C.ar      1 RES1   0.0000
    29 C14     12.2882   0.1663   4.4450   C.ar      1 RES1   0.0000
    30 H12     12.6820  -0.5863   4.0662   H         1 RES1   0.0000
    31 C15     12.1914   1.3048   3.6622   C.ar      1 RES1   0.0000
    32 C16     11.5911   2.4560   4.2633   C.ar      1 RES1   0.0000
    33 O2      11.4589   3.5977   3.5841   O.3       1 RES1   0.0000
    34 C17     14.3637   7.0820   4.0368   C.3       1 RES1   0.0000
    35 C18     15.5889   7.7924   3.4637   C.3       1 RES1   0.0000
    36 H13     15.4481   7.9675   2.5300   H         1 RES1   0.0000
    37 H14     16.3614   7.2339   3.5728   H         1 RES1   0.0000
    38 H15     15.7241   8.6208   3.9292   H         1 RES1   0.0000
    39 C19     14.1572   5.8042   3.2205   C.3       1 RES1   0.0000
    40 H16     14.9628   5.2819   3.2345   H         1 RES1   0.0000
    41 H17     13.9404   6.0340   2.3147   H         1 RES1   0.0000
    42 H18     13.4390   5.2930   3.6021   H         1 RES1   0.0000
    43 C20     14.6687   6.6891   5.4849   C.3       1 RES1   0.0000
    44 H19     15.3801   6.0451   5.4989   H         1 RES1   0.0000
    45 H20     13.8837   6.3077   5.8847   H         1 RES1   0.0000
    46 H21     14.9327   7.4683   5.9784   H         1 RES1   0.0000
    47 C21     12.1883  11.5862   2.9899   C.3       1 RES1   0.0000
    48 C22     11.4670  11.5940   1.6732   C.3       1 RES1   0.0000
    49 H22     10.9892  10.7682   1.5669   H         1 RES1   0.0000
    50 H23     12.1032  11.6896   0.9617   H         1 RES1   0.0000
    51 H24     10.8484  12.3273   1.6522   H         1 RES1   0.0000
    52 C23     13.6056  12.0234   2.7439   C.3       1 RES1   0.0000
    53 H25     13.6199  12.9617   2.5398   H         1 RES1   0.0000
    54 H26     13.9679  11.5292   2.0044   H         1 RES1   0.0000
    55 H27     14.1327  11.8576   3.5280   H         1 RES1   0.0000
    56 C24     11.5480  12.5819   3.9026   C.3       1 RES1   0.0000
    57 H28     11.9849  12.5600   4.7567   H         1 RES1   0.0000
    58 H29     10.6201  12.3633   4.0131   H         1 RES1   0.0000
    59 H30     11.6270  13.4599   3.5238   H         1 RES1   0.0000
    60 C25      8.2132   7.3500   3.1576   C.3       1 RES1   0.0000
    61 H31      8.8560   7.8555   2.6544   H         1 RES1   0.0000
    62 H32      7.5063   7.9305   3.4498   H         1 RES1   0.0000
    63 H33      7.8504   6.6550   2.6055   H         1 RES1   0.0000
    64 C26      8.4434   3.0113   4.9789   C.3       1 RES1   0.0000
    65 H34      8.1849   2.5114   5.7575   H         1 RES1   0.0000
    66 H35      8.8914   2.4302   4.3611   H         1 RES1   0.0000
    67 H36      7.6617   3.3808   4.5624   H         1 RES1   0.0000
    68 C27     11.9443  -1.2432   6.5626   C.3       1 RES1   0.0000
    69 C28     12.2573  -0.9627   8.0247   C.3       1 RES1   0.0000
    70 H37     12.3494  -1.7934   8.4972   H         1 RES1   0.0000
    71 H38     11.5432  -0.4527   8.4119   H         1 RES1   0.0000
    72 H39     13.0768  -0.4672   8.0862   H         1 RES1   0.0000
    73 C29     10.6223  -1.9687   6.4578   C.3       1 RES1   0.0000
    74 H40     10.5638  -2.6291   7.1511   H         1 RES1   0.0000
    75 H41     10.5589  -2.3972   5.6010   H         1 RES1   0.0000
    76 H42      9.9036  -1.3391   6.5543   H         1 RES1   0.0000
    77 C30     13.0481  -2.1434   6.0259   C.3       1 RES1   0.0000
    78 H43     13.8869  -1.6792   6.0650   H         1 RES1   0.0000
    79 H44     12.8543  -2.3782   5.1145   H         1 RES1   0.0000
    80 H45     13.0975  -2.9403   6.5570   H         1 RES1   0.0000
    81 C31     12.7038   1.3410   2.2225   C.3       1 RES1   0.0000
    82 C32     13.7904   2.3875   2.0729   C.3       1 RES1   0.0000
    83 H46     14.5015   2.2014   2.6908   H         1 RES1   0.0000
    84 H47     13.4260   3.2566   2.2574   H         1 RES1   0.0000
    85 H48     14.1328   2.3671   1.1755   H         1 RES1   0.0000
    86 C33     13.2789  -0.0099   1.7822   C.3       1 RES1   0.0000
    87 H49     13.7681   0.1030   0.9631   H         1 RES1   0.0000
    88 H50     12.5625  -0.6336   1.6424   H         1 RES1   0.0000
    89 H51     13.8673  -0.3444   2.4629   H         1 RES1   0.0000
    90 C34     11.5372   1.6471   1.2804   C.3       1 RES1   0.0000
    91 H52     10.8561   0.9793   1.3866   H         1 RES1   0.0000
    92 H53     11.8490   1.6434   0.3718   H         1 RES1   0.0000
    93 H54     11.1731   2.5098   1.4900   H         1 RES1   0.0000
    94 O3      10.9843   6.1346   2.1301   O.2       1 RES1   0.0000
    95 O4       8.9423   4.4064   2.5110   O.2       1 RES1   0.0000
    96 C35     11.5572   6.7806  -0.0308   C.3       1 RES1   0.0000
    97 H55     11.0521   6.9669  -0.8261   H         1 RES1   0.0000
    98 H56     12.3543   6.2998  -0.2642   H         1 RES1   0.0000
    99 H57     11.7958   7.6066   0.3970   H         1 RES1   0.0000
   100 C36     10.7381   5.9621   0.8974   C.2       1 RES1   0.0000
   101 C37      9.7760   5.0916   0.4291   C.2       1 RES1   0.0000
   102 H58      9.6853   4.9966  -0.4920   H         1 RES1   0.0000
   103 C38      8.9351   4.3480   1.2426   C.2       1 RES1   0.0000
   104 C39      7.9371   3.4234   0.6262   C.3       1 RES1   0.0000
   105 H59      7.5063   2.9122   1.3153   H         1 RES1   0.0000
   106 H60      8.3839   2.8294   0.0182   H         1 RES1   0.0000
   107 H61      7.2806   3.9353   0.1482   H         1 RES1   0.0000
@<TRIPOS>BOND
     1     1     2    1
     2     2     3    1
     3     3     4   ar
     4     4     5   ar
     5     5     6    1
     6     7     5   ar
     7     8     7   ar
     8     9     8    1
     9    10     3   ar
    10    11    10    1
    11    12    11    1
    12    13    11    1
    13    14     1    1
    14    15    14    1
    15    16    15    1
    16    17    15    1
    17    18    15    1
    18    19    18    1
    19    20    18    1
    20    21     1    1
    21    22    21    1
    22    23    22    1
    23    24    22    1
    24    25    22    1
    25    26    25   ar
    26    27    26    1
    27    28    26   ar
    28    29    28   ar
    29    30    29    1
    30    31    29   ar
    31    32    25   ar
    32    33     1    1
    33    34     4    1
    34    35    34    1
    35    36    35    1
    36    37    35    1
    37    38    35    1
    38    39    34    1
    39    40    39    1
    40    41    39    1
    41    42    39    1
    42    43    34    1
    43    44    43    1
    44    45    43    1
    45    46    43    1
    46    47     7    1
    47    48    47    1
    48    49    48    1
    49    50    48    1
    50    51    48    1
    51    52    47    1
    52    53    52    1
    53    54    52    1
    54    55    52    1
    55    56    47    1
    56    57    56    1
    57    58    56    1
    58    59    56    1
    59    60    14    1
    60    61    60    1
    61    62    60    1
    62    63    60    1
    63    64    21    1
    64    65    64    1
    65    66    64    1
    66    67    64    1
    67    68    28    1
    68    69    68    1
    69    70    69    1
    70    71    69    1
    71    72    69    1
    72    73    68    1
    73    74    73    1
    74    75    73    1
    75    76    73    1
    76    77    68    1
    77    78    77    1
    78    79    77    1
    79    80    77    1
    80    81    31    1
    81    82    81    1
    82    83    82    1
    83    84    82    1
    84    85    82    1
    85    86    81    1
    86    87    86    1
    87    88    86    1
    88    89    86    1
    89    90    81    1
    90    91    90    1
    91    92    90    1
    92    93    90    1
    93    94     1    1
    94    95     1    1
    95    96    97    1
    96    98    96    1
    97    99    96    1
    98   100    94   un
    99   101   100   un
   100   102   101    1
   101   103    95   un
   102   104   103    1
   103   105   104    1
   104   106   104    1
   105   107   104    1
   106     8    10   ar
   107    11    14    1
   108    18    21    1
   109    31    32   ar
   110    32    33    1
   111    96   100    1
   112   101   103   un
@<TRIPOS>SUBSTRUCTURE
     1 RES1        1 GROUP             0 ****  ****    0  
@<TRIPOS>CRYSIN
   11.3161   13.6678   14.8013   78.2020   71.6210   68.0810     2     1
