@<TRIPOS>MOLECULE
CAPRIV
   177   183     4     0     0
SMALL
USER_CHARGES
****
Generated from the CSD

@<TRIPOS>ATOM
     1 Fe1      3.6770   5.8355   9.0966   Fe        1 RES1   2.0000
     2 O1       8.0731   9.1700   6.8093   O.3       1 RES1   0.0000
     3 O2      -0.6154   2.8815  12.0345   O.3       1 RES1   0.0000
     4 N1       4.9740   5.7549  10.5888   N.ar      1 RES1   0.0000
     5 N2       5.0885   6.8082   8.3104   N.ar      1 RES1   0.0000
     6 N3       2.8580   6.2048   7.3466   N.ar      1 RES1   0.0000
     7 N4       2.7525   7.4013   9.8854   N.ar      1 RES1   0.0000
     8 N5       2.2516   4.9400   9.9518   N.ar      1 RES1   0.0000
     9 N6       4.1217   3.9796   8.5781   N.ar      1 RES1   0.0000
    10 C1       4.8325   5.0899  11.7446   C.ar      1 RES1   0.0000
    11 C2       5.8033   5.1096  12.7380   C.ar      1 RES1   0.0000
    12 C3       6.9694   5.8352  12.5349   C.ar      1 RES1   0.0000
    13 C4       7.1405   6.5042  11.3274   C.ar      1 RES1   0.0000
    14 C5       6.1401   6.4496  10.3746   C.ar      1 RES1   0.0000
    15 C6       6.1937   7.0921   9.0490   C.ar      1 RES1   0.0000
    16 C7       7.1894   7.9015   8.5468   C.ar      1 RES1   0.0000
    17 C8       7.0527   8.4054   7.2469   C.ar      1 RES1   0.0000
    18 C9       5.9103   8.1303   6.4936   C.ar      1 RES1   0.0000
    19 C10      4.9410   7.3314   7.0808   C.ar      1 RES1   0.0000
    20 C11      3.6236   6.9858   6.5121   C.ar      1 RES1   0.0000
    21 C12      3.1587   7.4180   5.2916   C.ar      1 RES1   0.0000
    22 C13      1.8854   7.0579   4.8744   C.ar      1 RES1   0.0000
    23 C14      1.1196   6.2449   5.6997   C.ar      1 RES1   0.0000
    24 C15      1.6349   5.8427   6.9201   C.ar      1 RES1   0.0000
    25 C16      8.0876   9.6053   5.4338   C.3       1 RES1   0.0000
    26 C17      9.3658  10.3911   5.2455   C.3       1 RES1   0.0000
    27 C18      9.4422  11.1447   3.9198   C.3       1 RES1   0.0000
    28 C19     10.6752  12.0547   3.8644   C.3       1 RES1   0.0000
    29 C20     10.6663  13.0409   2.7012   C.3       1 RES1   0.0000
    30 C21     11.8410  13.9880   2.6864   C.3       1 RES1   0.0000
    31 C22     11.7325  15.0783   1.6322   C.3       1 RES1   0.0000
    32 C23     12.9080  16.0462   1.5879   C.3       1 RES1   0.0000
    33 C24     12.7437  17.1888   0.5964   C.3       1 RES1   0.0000
    34 C25     13.8929  18.1707   0.6038   C.3       1 RES1   0.0000
    35 C26     13.7908  19.2659  -0.4487   C.3       1 RES1   0.0000
    36 C27     14.9737  20.2279  -0.4357   C.3       1 RES1   0.0000
    37 C28     14.9719  21.2508  -1.5602   C.3       1 RES1   0.0000
    38 C29     16.2045  22.1372  -1.5639   C.3       1 RES1   0.0000
    39 C30     16.3018  23.0437  -2.7843   C.3       1 RES1   0.0000
    40 C31     17.5625  23.8523  -2.8508   C.3       1 RES1   0.0000
    41 C32      3.0694   8.7055   9.7561   C.ar      1 RES1   0.0000
    42 C33      2.3454   9.7175  10.3525   C.ar      1 RES1   0.0000
    43 C34      1.2317   9.3888  11.1113   C.ar      1 RES1   0.0000
    44 C35      0.8873   8.0528  11.2535   C.ar      1 RES1   0.0000
    45 C36      1.6514   7.0895  10.6387   C.ar      1 RES1   0.0000
    46 C37      1.3844   5.6362  10.7088   C.ar      1 RES1   0.0000
    47 C38      0.3945   5.0138  11.4492   C.ar      1 RES1   0.0000
    48 C39      0.3021   3.6241  11.3661   C.ar      1 RES1   0.0000
    49 C40      1.1939   2.9017  10.5704   C.ar      1 RES1   0.0000
    50 C41      2.1708   3.5909   9.8835   C.ar      1 RES1   0.0000
    51 C42      3.2576   3.0290   9.0730   C.ar      1 RES1   0.0000
    52 C43      3.4452   1.6853   8.8385   C.ar      1 RES1   0.0000
    53 C44      4.5435   1.2700   8.0962   C.ar      1 RES1   0.0000
    54 C45      5.4018   2.2162   7.5737   C.ar      1 RES1   0.0000
    55 C46      5.1592   3.5537   7.8359   C.ar      1 RES1   0.0000
    56 C47     -1.5548   3.5761  12.8764   C.3       1 RES1   0.0000
    57 C48     -2.6192   2.5768  13.2826   C.3       1 RES1   0.0000
    58 C49     -2.2435   1.4892  14.2649   C.3       1 RES1   0.0000
    59 C50     -3.4045   0.5186  14.4311   C.3       1 RES1   0.0000
    60 C51     -3.2490  -0.5487  15.4946   C.3       1 RES1   0.0000
    61 C52     -4.4638  -1.4816  15.5555   C.3       1 RES1   0.0000
    62 C53     -4.3088  -2.6751  16.4768   C.3       1 RES1   0.0000
    63 C54     -5.5058  -3.6074  16.4694   C.3       1 RES1   0.0000
    64 C55     -5.3550  -4.8179  17.3815   C.3       1 RES1   0.0000
    65 C56     -6.5715  -5.7343  17.3926   C.3       1 RES1   0.0000
    66 C57     -6.4377  -6.8933  18.3564   C.3       1 RES1   0.0000
    67 C58     -7.6405  -7.8267  18.3933   C.3       1 RES1   0.0000
    68 C59     -7.5225  -8.9515  19.4125   C.3       1 RES1   0.0000
    69 C60     -8.7259  -9.8737  19.4882   C.3       1 RES1   0.0000
    70 C61     -8.5858 -10.9906  20.5019   C.3       1 RES1   0.0000
    71 C62     -9.7850 -11.9193  20.5610   C.3       1 RES1   0.0000
    72 H1       4.0395   4.5875  11.8886   H         1 RES1   0.0000
    73 H2       5.6708   4.6312  13.5485   H         1 RES1   0.0000
    74 H3       7.6398   5.8743  13.2088   H         1 RES1   0.0000
    75 H4       7.9361   6.9941  11.1593   H         1 RES1   0.0000
    76 H5       7.9527   8.1135   9.0730   H         1 RES1   0.0000
    77 H6       5.8013   8.4742   5.6147   H         1 RES1   0.0000
    78 H7       3.7073   7.9608   4.7359   H         1 RES1   0.0000
    79 H8       1.5437   7.3605   4.0417   H         1 RES1   0.0000
    80 H9       0.2528   5.9671   5.4301   H         1 RES1   0.0000
    81 H10      1.1034   5.2868   7.4777   H         1 RES1   0.0000
    82 H11      7.3246  10.1546   5.2492   H         1 RES1   0.0000
    83 H12      8.0642   8.8516   4.8448   H         1 RES1   0.0000
    84 H13      9.4359  11.0216   5.9545   H         1 RES1   0.0000
    85 H14     10.0982   9.7864   5.2898   H         1 RES1   0.0000
    86 H15      8.6637  11.6775   3.8201   H         1 RES1   0.0000
    87 H16      9.4929  10.5183   3.2090   H         1 RES1   0.0000
    88 H17     10.7174  12.5491   4.6750   H         1 RES1   0.0000
    89 H18     11.4475  11.5068   3.7869   H         1 RES1   0.0000
    90 H19      9.8694  13.5543   2.7511   H         1 RES1   0.0000
    91 H20     10.6742  12.5450   1.8907   H         1 RES1   0.0000
    92 H21     11.9043  14.4028   3.5395   H         1 RES1   0.0000
    93 H22     12.6315  13.4874   2.5203   H         1 RES1   0.0000
    94 H23     10.9450  15.5755   1.8039   H         1 RES1   0.0000
    95 H24     11.6662  14.6583   0.7829   H         1 RES1   0.0000
    96 H25     13.0171  16.4176   2.4556   H         1 RES1   0.0000
    97 H26     13.6874  15.5578   1.3515   H         1 RES1   0.0000
    98 H27     11.9464  17.6609   0.8124   H         1 RES1   0.0000
    99 H28     12.6678  16.8212  -0.2751   H         1 RES1   0.0000
   100 H29     13.9277  18.5829   1.4586   H         1 RES1   0.0000
   101 H30     14.6979  17.6871   0.4542   H         1 RES1   0.0000
   102 H31     12.9964  19.7611  -0.2936   H         1 RES1   0.0000
   103 H32     13.7444  18.8548  -1.3054   H         1 RES1   0.0000
   104 H33     14.9666  20.6943   0.3914   H         1 RES1   0.0000
   105 H34     15.7722  19.7150  -0.5041   H         1 RES1   0.0000
   106 H35     14.2044  21.8025  -1.4642   H         1 RES1   0.0000
   107 H36     14.9295  20.7900  -2.3892   H         1 RES1   0.0000
   108 H37     16.1847  22.6831  -0.7865   H         1 RES1   0.0000
   109 H38     16.9747  21.5809  -1.5399   H         1 RES1   0.0000
   110 H39     15.5650  23.6424  -2.7714   H         1 RES1   0.0000
   111 H40     16.2530  22.5004  -3.5635   H         1 RES1   0.0000
   112 H41     17.6269  24.4064  -2.0845   H         1 RES1   0.0000
   113 H42     17.5525  24.3936  -3.6336   H         1 RES1   0.0000
   114 H43     18.3130  23.2673  -2.8840   H         1 RES1   0.0000
   115 H44      3.8252   8.9375   9.2281   H         1 RES1   0.0000
   116 H45      2.6035  10.6252  10.2435   H         1 RES1   0.0000
   117 H46      0.7181  10.0690  11.5305   H         1 RES1   0.0000
   118 H47      0.1276   7.8065  11.7705   H         1 RES1   0.0000
   119 H48     -0.2020   5.5135  11.9939   H         1 RES1   0.0000
   120 H49      1.1289   1.9550  10.5020   H         1 RES1   0.0000
   121 H50      2.8304   1.0495   9.1819   H         1 RES1   0.0000
   122 H51      4.6990   0.3440   7.9485   H         1 RES1   0.0000
   123 H52      6.1457   1.9527   7.0457   H         1 RES1   0.0000
   124 H53      5.7545   4.1995   7.4759   H         1 RES1   0.0000
   125 H54     -1.9521   4.2941  12.3964   H         1 RES1   0.0000
   126 H55     -1.1137   3.9114  13.6445   H         1 RES1   0.0000
   127 H56     -2.9225   2.1498  12.4924   H         1 RES1   0.0000
   128 H57     -3.3323   3.0702  13.6704   H         1 RES1   0.0000
   129 H58     -1.4856   1.0192  13.9381   H         1 RES1   0.0000
   130 H59     -2.0358   1.8788  15.1050   H         1 RES1   0.0000
   131 H60     -3.5340   0.0811  13.5984   H         1 RES1   0.0000
   132 H61     -4.1760   1.0293  14.6452   H         1 RES1   0.0000
   133 H62     -2.4759  -1.0630  15.2989   H         1 RES1   0.0000
   134 H63     -3.1436  -0.1254  16.3383   H         1 RES1   0.0000
   135 H64     -4.6324  -1.8054  14.6785   H         1 RES1   0.0000
   136 H65     -5.2107  -0.9743  15.8528   H         1 RES1   0.0000
   137 H66     -3.5432  -3.1679  16.2054   H         1 RES1   0.0000
   138 H67     -4.1820  -2.3568  17.3631   H         1 RES1   0.0000
   139 H68     -5.6364  -3.9181  15.5832   H         1 RES1   0.0000
   140 H69     -6.2684  -3.1171  16.7501   H         1 RES1   0.0000
   141 H70     -4.6042  -5.3206  17.0917   H         1 RES1   0.0000
   142 H71     -5.2070  -4.5086  18.2678   H         1 RES1   0.0000
   143 H72     -6.6950  -6.0817  16.5174   H         1 RES1   0.0000
   144 H73     -7.3329  -5.2210  17.6400   H         1 RES1   0.0000
   145 H74     -5.6744  -7.4013  18.1053   H         1 RES1   0.0000
   146 H75     -6.3076  -6.5402  19.2297   H         1 RES1   0.0000
   147 H76     -7.7445  -8.2130  17.5329   H         1 RES1   0.0000
   148 H77     -8.4103  -7.3119  18.6057   H         1 RES1   0.0000
   149 H78     -6.7628  -9.4746  19.1891   H         1 RES1   0.0000
   150 H79     -7.3969  -8.5610  20.2711   H         1 RES1   0.0000
   151 H80     -8.8562 -10.2637  18.6315   H         1 RES1   0.0000
   152 H81     -9.4862  -9.3534  19.7190   H         1 RES1   0.0000
   153 H82     -7.8180 -11.5048  20.2785   H         1 RES1   0.0000
   154 H83     -8.4662 -10.6013  21.3623   H         1 RES1   0.0000
   155 H84     -9.9142 -12.3191  19.7079   H         1 RES1   0.0000
   156 H85     -9.6294 -12.5962  21.2072   H         1 RES1   0.0000
   157 H86    -10.5576 -11.4231  20.7991   H         1 RES1   0.0000
   158 Cl1     -2.1136   5.4131   7.9330   Cl        2 RES2   0.0000
   159 O3      -1.1570   4.3391   7.8655   O.3       2 RES2  -1.0000
   160 O4      -1.9720   6.2749   6.8056   O.2       2 RES2   0.0000
   161 O5      -3.4357   4.8819   7.9688   O.2       2 RES2   0.0000
   162 O6      -1.8601   6.1928   9.1191   O.2       2 RES2   0.0000
   163 Cl2     -1.8569   7.9244  13.9649   Cl        3 RES3   0.0000
   164 O7      -2.0401   8.3320  12.5367   O.3       3 RES3  -1.0000
   165 O8      -1.6428   6.5823  13.9012   O.2       3 RES3   0.0000
   166 O9      -3.0529   8.3433  14.5252   O.2       3 RES3   0.0000
   167 O10     -0.7143   8.6324  14.4089   O.2       3 RES3   0.0000
   168 O11     -3.6536   1.4752   5.3932   O.2       4 RES4   0.0000
   169 C63     -3.2455   2.4997   4.9427   C.2       4 RES4   0.0000
   170 C64     -4.2226   3.6383   4.7119   C.3       4 RES4   0.0000
   171 C65     -1.8416   2.8042   4.7359   C.3       4 RES4   0.0000
   172 H87     -4.6116   3.8949   5.5409   H         4 RES4   0.0000
   173 H88     -3.7664   4.3778   4.3334   H         4 RES4   0.0000
   174 H89     -4.9094   3.3522   4.1192   H         4 RES4   0.0000
   175 H90     -1.7608   3.6762   4.3592   H         4 RES4   0.0000
   176 H91     -1.4646   2.1701   4.1377   H         4 RES4   0.0000
   177 H92     -1.3839   2.7741   5.5649   H         4 RES4   0.0000
@<TRIPOS>BOND
     1     1     4    1
     2     2    17    1
     3     3    48    1
     4     4    10   ar
     5     5     1    1
     6     6     1    1
     7     7     1    1
     8     8     1    1
     9     9     1    1
    10    10    11   ar
    11    11    12   ar
    12    12    13   ar
    13    13    14   ar
    14    14     4   ar
    15    15     5   ar
    16    16    15   ar
    17    17    16   ar
    18    18    17   ar
    19    19     5   ar
    20    20     6   ar
    21    21    20   ar
    22    22    21   ar
    23    23    22   ar
    24    24     6   ar
    25    25     2    1
    26    26    25    1
    27    27    26    1
    28    28    27    1
    29    29    28    1
    30    30    29    1
    31    31    30    1
    32    32    31    1
    33    33    32    1
    34    34    33    1
    35    35    34    1
    36    36    35    1
    37    37    36    1
    38    38    37    1
    39    39    38    1
    40    40    39    1
    41    41     7   ar
    42    42    41   ar
    43    43    42   ar
    44    44    43   ar
    45    45     7   ar
    46    46     8   ar
    47    47    46   ar
    48    48    47   ar
    49    49    48   ar
    50    50     8   ar
    51    51     9   ar
    52    52    51   ar
    53    53    52   ar
    54    54    53   ar
    55    55     9   ar
    56    56     3    1
    57    57    56    1
    58    58    57    1
    59    59    58    1
    60    60    59    1
    61    61    60    1
    62    62    61    1
    63    63    62    1
    64    64    63    1
    65    65    64    1
    66    66    65    1
    67    67    66    1
    68    68    67    1
    69    69    68    1
    70    70    69    1
    71    71    70    1
    72    72    10    1
    73    73    11    1
    74    74    12    1
    75    75    13    1
    76    76    16    1
    77    77    18    1
    78    78    21    1
    79    79    22    1
    80    80    23    1
    81    81    24    1
    82    82    25    1
    83    83    25    1
    84    84    26    1
    85    85    26    1
    86    86    27    1
    87    87    27    1
    88    88    28    1
    89    89    28    1
    90    90    29    1
    91    91    29    1
    92    92    30    1
    93    93    30    1
    94    94    31    1
    95    95    31    1
    96    96    32    1
    97    97    32    1
    98    98    33    1
    99    99    33    1
   100   100    34    1
   101   101    34    1
   102   102    35    1
   103   103    35    1
   104   104    36    1
   105   105    36    1
   106   106    37    1
   107   107    37    1
   108   108    38    1
   109   109    38    1
   110   110    39    1
   111   111    39    1
   112   112    40    1
   113   113    40    1
   114   114    40    1
   115   115    41    1
   116   116    42    1
   117   117    43    1
   118   118    44    1
   119   119    47    1
   120   120    49    1
   121   121    52    1
   122   122    53    1
   123   123    54    1
   124   124    55    1
   125   125    56    1
   126   126    56    1
   127   127    57    1
   128   128    57    1
   129   129    58    1
   130   130    58    1
   131   131    59    1
   132   132    59    1
   133   133    60    1
   134   134    60    1
   135   135    61    1
   136   136    61    1
   137   137    62    1
   138   138    62    1
   139   139    63    1
   140   140    63    1
   141   141    64    1
   142   142    64    1
   143   143    65    1
   144   144    65    1
   145   145    66    1
   146   146    66    1
   147   147    67    1
   148   148    67    1
   149   149    68    1
   150   150    68    1
   151   151    69    1
   152   152    69    1
   153   153    70    1
   154   154    70    1
   155   155    71    1
   156   156    71    1
   157   157    71    1
   158    14    15    1
   159    18    19   ar
   160    19    20    1
   161    23    24   ar
   162    44    45   ar
   163    45    46    1
   164    49    50   ar
   165    50    51    1
   166    54    55   ar
   167   158   159    1
   168   160   158    2
   169   161   158    2
   170   162   158    2
   171   163   164    1
   172   165   163    2
   173   166   163    2
   174   167   163    2
   175   168   169    2
   176   169   170    1
   177   170   172    1
   178   171   169    1
   179   173   170    1
   180   174   170    1
   181   175   171    1
   182   176   171    1
   183   177   171    1
@<TRIPOS>SUBSTRUCTURE
     1 RES1        1 GROUP             0 ****  ****    0  
     2 RES2      158 GROUP             0 ****  ****    0  
     3 RES3      163 GROUP             0 ****  ****    0  
     4 RES4      168 GROUP             0 ****  ****    0  
@<TRIPOS>CRYSIN
   11.6870   15.1210   18.8730   78.1050   89.7770   83.1140     2     1
