@<TRIPOS>MOLECULE
CAZZOV
   101   112     1     0     0
SMALL
USER_CHARGES
****
Generated from the CSD

@<TRIPOS>ATOM
     1 Fe1      5.4989   6.1664   0.0000   Fe        1 RES1   2.0000
     2 N1       3.7062   6.9508   0.8791   N.1       1 RES1   0.0000
     3 N2       2.4715   8.3553   2.4363   N.2       1 RES1  -1.0000
     4 N3       2.0728  10.7425   2.3705   N.1       1 RES1   0.0000
     5 N4       4.9809   4.0663   0.4056   N.ar      1 RES1   0.0000
     6 N5       6.2224   5.7937   1.9743   N.2       1 RES1   0.0000
     7 N6       6.6979   6.5868   2.9957   N.2       1 RES1   0.0000
     8 N7       6.3123   4.5549   3.7630   N.pl3     1 RES1   0.0000
     9 N8       6.1356   3.3877   4.5211   N.2       1 RES1   0.0000
    10 N9       6.3882   6.0063   6.4314   N.ar      1 RES1   0.0000
    11 C1       3.1323   7.6709   1.5572   C.1       1 RES1   0.0000
    12 C2       2.2852   9.6335   2.3406   C.1       1 RES1   0.0000
    13 C3       4.4952   3.2193  -0.5095   C.ar      1 RES1   0.0000
    14 H1       4.1513   3.5663  -1.3001   H         1 RES1   0.0000
    15 C4       4.4852   1.8642  -0.3277   C.ar      1 RES1   0.0000
    16 H2       4.1527   1.3018  -0.9903   H         1 RES1   0.0000
    17 C5       4.9720   1.3442   0.8432   C.ar      1 RES1   0.0000
    18 H3       4.9837   0.4239   0.9783   H         1 RES1   0.0000
    19 C6       5.4447   2.1985   1.8215   C.ar      1 RES1   0.0000
    20 H4       5.7561   1.8679   2.6324   H         1 RES1   0.0000
    21 C7       5.4422   3.5483   1.5644   C.ar      1 RES1   0.0000
    22 C8       5.9810   4.5989   2.4430   C.2       1 RES1   0.0000
    23 C9       6.7439   5.8323   4.0690   C.2       1 RES1   0.0000
    24 C10      7.1184   6.4059   5.3845   C.ar      1 RES1   0.0000
    25 C11      8.1037   7.3470   5.4526   C.ar      1 RES1   0.0000
    26 H5       8.5654   7.6137   4.6908   H         1 RES1   0.0000
    27 C12      8.3970   7.8947   6.6941   C.ar      1 RES1   0.0000
    28 H6       9.0669   8.5348   6.7814   H         1 RES1   0.0000
    29 C13      7.6909   7.4832   7.7777   C.ar      1 RES1   0.0000
    30 H7       7.8899   7.8182   8.6233   H         1 RES1   0.0000
    31 C14      6.6916   6.5788   7.6150   C.ar      1 RES1   0.0000
    32 H8       6.1880   6.3402   8.3601   H         1 RES1   0.0000
    33 C15      6.8736   3.2413   5.5268   C.2       1 RES1   0.0000
    34 H9       7.4896   3.9029   5.7480   H         1 RES1   0.0000
    35 C16      6.7722   2.0340   6.3544   C.ar      1 RES1   0.0000
    36 C17      6.3048   0.8674   5.8019   C.ar      1 RES1   0.0000
    37 H10      6.0134   0.8668   4.9180   H         1 RES1   0.0000
    38 C18      6.2566  -0.3171   6.5374   C.ar      1 RES1   0.0000
    39 H11      5.9443  -1.0999   6.1439   H         1 RES1   0.0000
    40 C19      6.6713  -0.3199   7.8387   C.ar      1 RES1   0.0000
    41 H12      6.6323  -1.1126   8.3243   H         1 RES1   0.0000
    42 C20      7.1532   0.8407   8.4594   C.ar      1 RES1   0.0000
    43 C21      7.5899   0.8317   9.8061   C.ar      1 RES1   0.0000
    44 H13      7.5595   0.0421  10.2965   H         1 RES1   0.0000
    45 C22      8.0479   1.9585  10.3802   C.ar      1 RES1   0.0000
    46 H14      8.3199   1.9400  11.2688   H         1 RES1   0.0000
    47 C23      8.1218   3.1556   9.6650   C.ar      1 RES1   0.0000
    48 H15      8.4552   3.9210  10.0740   H         1 RES1   0.0000
    49 C24      7.7060   3.2061   8.3625   C.ar      1 RES1   0.0000
    50 H16      7.7504   4.0103   7.8973   H         1 RES1   0.0000
    51 C25      7.2094   2.0477   7.7119   C.ar      1 RES1   0.0000
    52 N1A      7.2915   5.3820  -0.8791   N.1       1 RES1   0.0000
    53 N2A      8.5263   3.9775  -2.4363   N.2       1 RES1  -1.0000
    54 N3A      8.9249   1.5903  -2.3705   N.1       1 RES1   0.0000
    55 N4A      6.0169   8.2666  -0.4056   N.ar      1 RES1   0.0000
    56 N5A      4.7753   6.5391  -1.9743   N.2       1 RES1   0.0000
    57 N6A      4.2998   5.7460  -2.9957   N.2       1 RES1   0.0000
    58 N7A      4.6854   7.7779  -3.7630   N.pl3     1 RES1   0.0000
    59 N8A      4.8621   8.9452  -4.5211   N.2       1 RES1   0.0000
    60 N9A      4.6095   6.3266  -6.4314   N.ar      1 RES1   0.0000
    61 C1A      7.8654   4.6620  -1.5572   C.1       1 RES1   0.0000
    62 C2A      8.7126   2.6993  -2.3406   C.1       1 RES1   0.0000
    63 C3A      6.5026   9.1135   0.5095   C.ar      1 RES1   0.0000
    64 H1A      6.8464   8.7665   1.3001   H         1 RES1   0.0000
    65 C4A      6.5125  10.4686   0.3277   C.ar      1 RES1   0.0000
    66 H2A      6.8450  11.0310   0.9903   H         1 RES1   0.0000
    67 C5A      6.0257  10.9887  -0.8432   C.ar      1 RES1   0.0000
    68 H3A      6.0140  11.9089  -0.9783   H         1 RES1   0.0000
    69 C6A      5.5530  10.1343  -1.8215   C.ar      1 RES1   0.0000
    70 H4A      5.2416  10.4649  -2.6324   H         1 RES1   0.0000
    71 C7A      5.5555   8.7846  -1.5644   C.ar      1 RES1   0.0000
    72 C8A      5.0167   7.7340  -2.4430   C.2       1 RES1   0.0000
    73 C9A      4.2538   6.5005  -4.0690   C.2       1 RES1   0.0000
    74 C10A     3.8793   5.9270  -5.3845   C.ar      1 RES1   0.0000
    75 C11A     2.8940   4.9859  -5.4526   C.ar      1 RES1   0.0000
    76 H5A      2.4323   4.7192  -4.6908   H         1 RES1   0.0000
    77 C12A     2.6007   4.4381  -6.6941   C.ar      1 RES1   0.0000
    78 H6A      1.9308   3.7980  -6.7814   H         1 RES1   0.0000
    79 C13A     3.3068   4.8496  -7.7777   C.ar      1 RES1   0.0000
    80 H7A      3.1078   4.5146  -8.6233   H         1 RES1   0.0000
    81 C14A     4.3062   5.7540  -7.6150   C.ar      1 RES1   0.0000
    82 H8A      4.8098   5.9926  -8.3601   H         1 RES1   0.0000
    83 C15A     4.1241   9.0915  -5.5268   C.2       1 RES1   0.0000
    84 H9A      3.5082   8.4299  -5.7480   H         1 RES1   0.0000
    85 C16A     4.2256  10.2988  -6.3544   C.ar      1 RES1   0.0000
    86 C17A     4.6930  11.4655  -5.8019   C.ar      1 RES1   0.0000
    87 H10A     4.9843  11.4661  -4.9180   H         1 RES1   0.0000
    88 C18A     4.7412  12.6499  -6.5374   C.ar      1 RES1   0.0000
    89 H11A     5.0534  13.4327  -6.1439   H         1 RES1   0.0000
    90 C19A     4.3264  12.6528  -7.8387   C.ar      1 RES1   0.0000
    91 H12A     4.3654  13.4455  -8.3243   H         1 RES1   0.0000
    92 C20A     3.8445  11.4922  -8.4594   C.ar      1 RES1   0.0000
    93 C21A     3.4078  11.5011  -9.8061   C.ar      1 RES1   0.0000
    94 H13A     3.4382  12.2908 -10.2965   H         1 RES1   0.0000
    95 C22A     2.9498  10.3744 -10.3802   C.ar      1 RES1   0.0000
    96 H14A     2.6778  10.3929 -11.2688   H         1 RES1   0.0000
    97 C23A     2.8759   9.1772  -9.6650   C.ar      1 RES1   0.0000
    98 H15A     2.5425   8.4119 -10.0740   H         1 RES1   0.0000
    99 C24A     3.2917   9.1267  -8.3625   C.ar      1 RES1   0.0000
   100 H16A     3.2473   8.3226  -7.8973   H         1 RES1   0.0000
   101 C25A     3.7883  10.2852  -7.7119   C.ar      1 RES1   0.0000
@<TRIPOS>BOND
     1     1     2    1
     2     2    11    3
     3     3    11    1
     4     4    12    3
     5     5     1    1
     6     6     1    1
     7     7     6    1
     8     8     9    1
     9     9    33    2
    10    10    24   ar
    11    12     3    1
    12    13     5   ar
    13    14    13    1
    14    15    13   ar
    15    16    15    1
    16    17    15   ar
    17    18    17    1
    18    19    17   ar
    19    20    19    1
    20    21     5   ar
    21    22     6    2
    22    23     7    2
    23    24    23    1
    24    25    24   ar
    25    26    25    1
    26    27    25   ar
    27    28    27    1
    28    29    27   ar
    29    30    29    1
    30    31    10   ar
    31    32    31    1
    32    33    34    1
    33    35    33    1
    34    36    35   ar
    35    37    36    1
    36    38    36   ar
    37    39    38    1
    38    40    38   ar
    39    41    40    1
    40    42    40   ar
    41    43    42   ar
    42    44    43    1
    43    45    43   ar
    44    46    45    1
    45    47    45   ar
    46    48    47    1
    47    49    47   ar
    48    50    49    1
    49    51    35   ar
    50    52     1    1
    51    53    61    1
    52    54    62    3
    53    55     1    1
    54    56     1    1
    55    57    56    1
    56    58    59    1
    57    59    83    2
    58    60    74   ar
    59    61    52    3
    60    62    53    1
    61    63    55   ar
    62    64    63    1
    63    65    63   ar
    64    66    65    1
    65    67    65   ar
    66    68    67    1
    67    69    67   ar
    68    70    69    1
    69    71    55   ar
    70    72    56    2
    71    73    57    2
    72    74    73    1
    73    75    74   ar
    74    76    75    1
    75    77    75   ar
    76    78    77    1
    77    79    77   ar
    78    80    79    1
    79    81    60   ar
    80    82    81    1
    81    83    84    1
    82    85    83    1
    83    86    85   ar
    84    87    86    1
    85    88    86   ar
    86    89    88    1
    87    90    88   ar
    88    91    90    1
    89    92    90   ar
    90    93    92   ar
    91    94    93    1
    92    95    93   ar
    93    96    95    1
    94    97    95   ar
    95    98    97    1
    96    99    97   ar
    97   100    99    1
    98   101    85   ar
    99     8    22    1
   100     8    23    1
   101    19    21   ar
   102    21    22    1
   103    29    31   ar
   104    42    51   ar
   105    49    51   ar
   106    58    72    1
   107    58    73    1
   108    69    71   ar
   109    71    72    1
   110    79    81   ar
   111    92   101   ar
   112    99   101   ar
@<TRIPOS>SUBSTRUCTURE
     1 RES1        1 GROUP             0 ****  ****    0  
@<TRIPOS>CRYSIN
    7.4175   12.8420   12.9732   67.4750   80.6670   73.8120     2     1
