@<TRIPOS>MOLECULE
CEDNAE
   124   128     5     0     0
SMALL
USER_CHARGES
****
Generated from the CSD

@<TRIPOS>ATOM
     1 Fe1     10.6430   4.8555   5.9573   Fe        1 RES1   0.0000
     2 N1       8.5768   2.7453   6.8943   N.1       1 RES1   0.0000
     3 N2       8.8856   4.8157   3.4138   N.1       1 RES1   0.0000
     4 N3      12.4214   7.0135   4.6386   N.1       1 RES1   0.0000
     5 C1       9.3961   3.5058   6.6052   C.1       1 RES1   0.0000
     6 C2      11.7754   6.2142   5.1585   C.1       1 RES1   0.0000
     7 C3       9.5597   4.8492   4.3481   C.1       1 RES1  -1.0000
     8 N1A     12.7092   2.7453   5.0203   N.1       1 RES1   0.0000
     9 N2A     12.4004   4.8157   8.5008   N.1       1 RES1   0.0000
    10 N3A      8.8646   7.0135   7.2760   N.1       1 RES1   0.0000
    11 C1A     11.8900   3.5058   5.3094   C.1       1 RES1  -1.0000
    12 C2A      9.5106   6.2142   6.7561   C.1       1 RES1   0.0000
    13 C3A     11.7263   4.8492   7.5665   C.1       1 RES1  -1.0000
    14 P1      21.4789   3.7096   5.9573   P.3       2 RES2   1.0000
    15 C4      19.8896   5.9529   5.6914   C.ar      2 RES2   0.0000
    16 H1      20.5610   6.2743   5.1010   H         2 RES2   0.0000
    17 C5      20.0504   4.7224   6.3360   C.ar      2 RES2   0.0000
    18 C6      21.3985   2.9789   3.2575   C.ar      2 RES2   0.0000
    19 H2      21.9191   3.7522   3.0745   H         2 RES2   0.0000
    20 C7      19.0384   4.2270   7.1640   C.ar      2 RES2   0.0000
    21 H3      19.1300   3.3761   7.5764   H         2 RES2   0.0000
    22 C8      18.7478   6.6994   5.9182   C.ar      2 RES2   0.0000
    23 H4      18.6398   7.5406   5.4902   H         2 RES2   0.0000
    24 C9      20.9684   2.1572   2.2235   C.ar      2 RES2   0.0000
    25 H5      21.2038   2.3637   1.3266   H         2 RES2   0.0000
    26 C10     21.0541   2.6507   4.5700   C.ar      2 RES2   0.0000
    27 C11     17.7591   6.2252   6.7680   C.ar      2 RES2   0.0000
    28 H6      16.9840   6.7492   6.9320   H         2 RES2   0.0000
    29 C12     20.2729   1.5302   4.8364   C.ar      2 RES2   0.0000
    30 H7      20.0332   1.3188   5.7310   H         2 RES2   0.0000
    31 C13     17.9000   4.9894   7.3775   C.ar      2 RES2   0.0000
    32 H8      17.2123   4.6622   7.9456   H         2 RES2   0.0000
    33 C14     19.8455   0.7233   3.7934   C.ar      2 RES2   0.0000
    34 H9      19.3128  -0.0429   3.9705   H         2 RES2   0.0000
    35 C15     20.1986   1.0394   2.4930   C.ar      2 RES2   0.0000
    36 H10     19.9097   0.4836   1.7788   H         2 RES2   0.0000
    37 C4A     23.0681   5.9529   6.2232   C.ar      2 RES2   0.0000
    38 H1A     22.3967   6.2743   6.8136   H         2 RES2   0.0000
    39 C5A     22.9074   4.7224   5.5787   C.ar      2 RES2   0.0000
    40 C6A     21.5592   2.9789   8.6572   C.ar      2 RES2   0.0000
    41 H2A     21.0386   3.7522   8.8401   H         2 RES2   0.0000
    42 C7A     23.9194   4.2270   4.7506   C.ar      2 RES2   0.0000
    43 H3A     23.8277   3.3761   4.3382   H         2 RES2   0.0000
    44 C8A     24.2100   6.6994   5.9964   C.ar      2 RES2   0.0000
    45 H4A     24.3179   7.5406   6.4245   H         2 RES2   0.0000
    46 C9A     21.9893   2.1572   9.6911   C.ar      2 RES2   0.0000
    47 H5A     21.7540   2.3637  10.5880   H         2 RES2   0.0000
    48 C10A    21.9036   2.6507   7.3446   C.ar      2 RES2   0.0000
    49 C11A    25.1986   6.2252   5.1466   C.ar      2 RES2   0.0000
    50 H6A     25.9738   6.7492   4.9826   H         2 RES2   0.0000
    51 C12A    22.6848   1.5302   7.0782   C.ar      2 RES2   0.0000
    52 H7A     22.9245   1.3188   6.1836   H         2 RES2   0.0000
    53 C13A    25.0578   4.9894   4.5371   C.ar      2 RES2   0.0000
    54 H8A     25.7455   4.6622   3.9690   H         2 RES2   0.0000
    55 C14A    23.1122   0.7233   8.1212   C.ar      2 RES2   0.0000
    56 H9A     23.6450  -0.0429   7.9441   H         2 RES2   0.0000
    57 C15A    22.7591   1.0394   9.4216   C.ar      2 RES2   0.0000
    58 H10A    23.0480   0.4836  10.1358   H         2 RES2   0.0000
    59 P2      13.5248  13.6028  11.0031   P.3       3 RES3   1.0000
    60 C16     16.2794  12.2267   7.6427   C.ar      3 RES3   0.0000
    61 H11     16.8445  11.9450   6.9327   H         3 RES3   0.0000
    62 C17     14.4115  14.6338  12.1841   C.ar      3 RES3   0.0000
    63 C18     15.8755  13.6512   9.5365   C.ar      3 RES3   0.0000
    64 H12     16.1584  14.3455  10.1199   H         3 RES3   0.0000
    65 C19     14.6433  13.0364   9.7233   C.ar      3 RES3   0.0000
    66 C20     12.8893  12.2025  11.9303   C.ar      3 RES3   0.0000
    67 C21     15.0435  11.6161   7.8250   C.ar      3 RES3   0.0000
    68 H13     14.7684  10.9160   7.2447   H         3 RES3   0.0000
    69 C22     10.8767  14.0303  10.2189   C.ar      3 RES3   0.0000
    70 H14     10.6494  13.2910  10.7706   H         3 RES3   0.0000
    71 C23     11.5346  16.2017   8.6162   C.ar      3 RES3   0.0000
    72 H15     11.7518  16.9539   8.0780   H         3 RES3   0.0000
    73 C24      9.8968  14.6628   9.4681   C.ar      3 RES3   0.0000
    74 H16      9.0002  14.3502   9.4990   H         3 RES3   0.0000
    75 C25     12.1938  14.4789  10.1639   C.ar      3 RES3   0.0000
    76 C26     15.8783  14.7140  14.0974   C.ar      3 RES3   0.0000
    77 H17     16.3583  14.2711  14.7872   H         3 RES3   0.0000
    78 C27     15.1251  13.9804  13.1969   C.ar      3 RES3   0.0000
    79 H18     15.0925  13.0334  13.2655   H         3 RES3   0.0000
    80 C28     15.9313  16.0937  13.9925   C.ar      3 RES3   0.0000
    81 H19     16.4668  16.5934  14.5975   H         3 RES3   0.0000
    82 C29     10.2238  15.7507   8.6722   C.ar      3 RES3   0.0000
    83 H20      9.5497  16.1874   8.1648   H         3 RES3   0.0000
    84 C30     14.2173  12.0284   8.8492   C.ar      3 RES3   0.0000
    85 H21     13.3623  11.6301   8.9617   H         3 RES3   0.0000
    86 C31     16.6916  13.2398   8.4865   C.ar      3 RES3   0.0000
    87 H22     17.5342  13.6569   8.3499   H         3 RES3   0.0000
    88 C32     13.4465  10.9342  11.8267   C.ar      3 RES3   0.0000
    89 H23     14.1562  10.7712  11.2165   H         3 RES3   0.0000
    90 C33     14.4434  16.0253  12.1026   C.ar      3 RES3   0.0000
    91 H24     13.9457  16.4765  11.4309   H         3 RES3   0.0000
    92 C34     12.5284  15.5637   9.3384   C.ar      3 RES3   0.0000
    93 H25     13.4295  15.8579   9.2760   H         3 RES3   0.0000
    94 C35     15.2085  16.7483  13.0112   C.ar      3 RES3   0.0000
    95 H26     15.2350  17.6964  12.9577   H         3 RES3   0.0000
    96 C36     11.8696  12.4459  12.8606   C.ar      3 RES3   0.0000
    97 H27     11.5116  13.3206  12.9567   H         3 RES3   0.0000
    98 C37     11.3865  11.4095  13.6382   C.ar      3 RES3   0.0000
    99 H28     10.6844  11.5679  14.2581   H         3 RES3   0.0000
   100 C38     11.9259  10.1425  13.5128   C.ar      3 RES3   0.0000
   101 H29     11.5855   9.4304  14.0417   H         3 RES3   0.0000
   102 C39     12.9565   9.9052  12.6233   C.ar      3 RES3   0.0000
   103 H30     13.3320   9.0352  12.5558   H         3 RES3   0.0000
   104 O1      16.8504   9.2875   6.4470   O.3       4 RES4   0.0000
   105 H31     17.6153   9.6026   6.5934   H         4 RES4   0.0000
   106 O2      13.7947   8.5997   2.8590   O.3       4 RES4   0.0000
   107 H32     13.4013   8.1584   3.4558   H         4 RES4   0.0000
   108 O3      17.6407  11.1883   2.0913   O.3       4 RES4   0.0000
   109 H33     18.3033  11.5203   2.4870   H         4 RES4   0.0000
   110 C40     17.3092  10.2759   4.2983   C.ar      4 RES4   0.0000
   111 H34     18.1129  10.6705   4.6160   H         4 RES4   0.0000
   112 C41     14.9480   9.1319   3.3702   C.ar      4 RES4   0.0000
   113 C42     16.5089   9.5092   5.1457   C.ar      4 RES4   0.0000
   114 C43     15.3240   8.9355   4.6955   C.ar      4 RES4   0.0000
   115 H35     14.7822   8.4199   5.2814   H         4 RES4   0.0000
   116 C44     16.9045  10.4507   2.9758   C.ar      4 RES4   0.0000
   117 C45     15.7310   9.8818   2.4992   C.ar      4 RES4   0.0000
   118 H36     15.4678  10.0023   1.5943   H         4 RES4   0.0000
   119 N4       8.5070  11.9528  10.9991   N.1       5 RES5   0.0000
   120 C46      8.3780  10.9346  11.4893   C.1       5 RES5   0.0000
   121 C47      8.2366   9.6221  12.0888   C.3       5 RES5   0.0000
   122 H37      8.4238   8.9340  11.4167   H         5 RES5   0.0000
   123 H38      7.3217   9.5123  12.4226   H         5 RES5   0.0000
   124 H39      8.8685   9.5328  12.8326   H         5 RES5   0.0000
@<TRIPOS>BOND
     1     1     5    1
     2     2     5    3
     3     3     7    3
     4     4     6    3
     5     6     1    1
     6     7     1    1
     7     8    11    3
     8     9    13    3
     9    10    12    3
    10    11     1    1
    11    12     1    1
    12    13     1    1
    13    14    17    1
    14    15    16    1
    15    17    15   ar
    16    18    19    1
    17    20    17   ar
    18    21    20    1
    19    22    15   ar
    20    23    22    1
    21    24    18   ar
    22    25    24    1
    23    26    14    1
    24    27    22   ar
    25    28    27    1
    26    29    26   ar
    27    30    29    1
    28    31    20   ar
    29    32    31    1
    30    33    29   ar
    31    34    33    1
    32    35    24   ar
    33    36    35    1
    34    37    38    1
    35    39    14    1
    36    40    41    1
    37    42    39   ar
    38    43    42    1
    39    44    37   ar
    40    45    44    1
    41    46    40   ar
    42    47    46    1
    43    48    14    1
    44    49    44   ar
    45    50    49    1
    46    51    48   ar
    47    52    51    1
    48    53    42   ar
    49    54    53    1
    50    55    51   ar
    51    56    55    1
    52    57    46   ar
    53    58    57    1
    54    18    26   ar
    55    27    31   ar
    56    33    35   ar
    57    37    39   ar
    58    40    48   ar
    59    49    53   ar
    60    55    57   ar
    61    59    62    1
    62    60    61    1
    63    62    78   ar
    64    63    64    1
    65    65    59    1
    66    66    59    1
    67    67    60   ar
    68    68    67    1
    69    69    70    1
    70    71    72    1
    71    73    69   ar
    72    74    73    1
    73    75    59    1
    74    76    77    1
    75    78    76   ar
    76    79    78    1
    77    80    76   ar
    78    81    80    1
    79    82    71   ar
    80    83    82    1
    81    84    65   ar
    82    85    84    1
    83    86    60   ar
    84    87    86    1
    85    88    66   ar
    86    89    88    1
    87    90    62   ar
    88    91    90    1
    89    92    71   ar
    90    93    92    1
    91    94    80   ar
    92    95    94    1
    93    96    66   ar
    94    97    96    1
    95    98    96   ar
    96    99    98    1
    97   100    98   ar
    98   101   100    1
    99   102    88   ar
   100   103   102    1
   101    63    65   ar
   102    63    86   ar
   103    67    84   ar
   104    69    75   ar
   105    73    82   ar
   106    75    92   ar
   107    90    94   ar
   108   100   102   ar
   109   104   105    1
   110   106   107    1
   111   108   109    1
   112   110   111    1
   113   112   106    1
   114   113   104    1
   115   114   112   ar
   116   115   114    1
   117   116   108    1
   118   117   112   ar
   119   118   117    1
   120   110   113   ar
   121   110   116   ar
   122   113   114   ar
   123   116   117   ar
   124   119   120    3
   125   120   121    1
   126   121   122    1
   127   123   121    1
   128   124   121    1
@<TRIPOS>SUBSTRUCTURE
     1 RES1        1 GROUP             0 ****  ****    0  
     2 RES2       14 GROUP             0 ****  ****    0  
     3 RES3       59 GROUP             0 ****  ****    0  
     4 RES4      104 GROUP             0 ****  ****    0  
     5 RES5      119 GROUP             0 ****  ****    0  
@<TRIPOS>CRYSIN
   21.6717   15.2992   23.8417   90.0000   91.8540   90.0000    15     1
