@<TRIPOS>MOLECULE
CEHVIX
   183   200     3     0     0
SMALL
NO_CHARGES
****
Generated from the CSD

@<TRIPOS>ATOM
     1 Fe1      3.7591  12.6934   6.4972   Fe        1 RES1   0.0000
     2 N1       4.6063  10.9491   6.0393   N.2       1 RES1   0.0000
     3 N2       2.1484  11.7330   7.1464   N.2       1 RES1   0.0000
     4 N3       2.9025  14.4430   6.9444   N.2       1 RES1   0.0000
     5 N4       5.3818  13.6588   5.8788   N.2       1 RES1   0.0000
     6 C1       5.8522  10.7442   5.4857   C.2       1 RES1   0.0000
     7 C2       4.0576   9.6901   6.1593   C.2       1 RES1   0.0000
     8 C3       1.9379  10.3775   7.1856   C.2       1 RES1   0.0000
     9 C4       1.0199  12.2762   7.7111   C.2       1 RES1   0.0000
    10 C5       1.6609  14.6406   7.5029   C.2       1 RES1   0.0000
    11 C6       3.3953  15.7066   6.7104   C.2       1 RES1   0.0000
    12 C7       5.5757  15.0183   5.8004   C.2       1 RES1   0.0000
    13 C8       6.5445  13.1003   5.3999   C.2       1 RES1   0.0000
    14 C9       6.0715   9.3347   5.2518   C.2       1 RES1   0.0000
    15 C10      4.9776   8.6888   5.6706   C.2       1 RES1   0.0000
    16 C11      0.6635  10.0786   7.7833   C.2       1 RES1   0.0000
    17 H1       0.2946   9.2154   7.9242   H         1 RES1   0.0000
    18 C12      0.0993  11.2480   8.1042   C.2       1 RES1   0.0000
    19 C13      1.3790  16.0482   7.6192   C.2       1 RES1   0.0000
    20 C14      2.4473  16.7016   7.1232   C.2       1 RES1   0.0000
    21 C15      6.8816  15.3113   5.2848   C.2       1 RES1   0.0000
    22 C16      7.4951  14.1324   5.0631   C.2       1 RES1   0.0000
    23 C17      2.8177   9.4049   6.7227   C.2       1 RES1   0.0000
    24 C18      0.7754  13.6342   7.8862   C.2       1 RES1   0.0000
    25 C19      4.6464  15.9957   6.1666   C.2       1 RES1   0.0000
    26 C20      6.7788  11.7411   5.1917   C.2       1 RES1   0.0000
    27 C21      2.3923   7.9788   6.8464   C.ar      1 RES1   0.0000
    28 C22      2.3868   7.3440   8.0699   C.ar      1 RES1   0.0000
    29 C23      2.0689   5.9728   8.1630   C.ar      1 RES1   0.0000
    30 H2       2.1084   5.5263   8.9995   H         1 RES1   0.0000
    31 C24      1.6993   5.2921   7.0289   C.ar      1 RES1   0.0000
    32 C25      1.6181   5.9386   5.7808   C.ar      1 RES1   0.0000
    33 C26      1.9741   7.2635   5.6902   C.ar      1 RES1   0.0000
    34 C27      3.0587   7.7197  10.4790   C.2       1 RES1   0.0000
    35 C28      2.7078   8.6688  11.5396   C.2       1 RES1   0.0000
    36 C29      2.5408   9.5447  13.5335   C.2       1 RES1   0.0000
    37 H3       2.6750   9.6936  14.4619   H         1 RES1   0.0000
    38 C30      1.8344   9.7180  11.5543   C.2       1 RES1   0.0000
    39 H4       1.3628  10.0327  10.7913   H         1 RES1   0.0000
    40 C31      4.1016   7.6124  13.4466   C.3       1 RES1   0.0000
    41 H5       4.4426   7.0097  12.7546   H         1 RES1   0.0000
    42 H6       4.8517   8.0930  13.8606   H         1 RES1   0.0000
    43 H7       3.6298   7.0927  14.1300   H         1 RES1   0.0000
    44 C32     -0.5350  14.0372   8.5023   C.ar      1 RES1   0.0000
    45 C33     -0.6101  14.4271   9.8556   C.ar      1 RES1   0.0000
    46 C34     -1.8524  14.7421  10.4067   C.ar      1 RES1   0.0000
    47 C35     -2.9943  14.6440   9.6498   C.ar      1 RES1   0.0000
    48 C36     -2.9386  14.2415   8.3308   C.ar      1 RES1   0.0000
    49 C37     -1.7136  13.9487   7.7637   C.ar      1 RES1   0.0000
    50 C38      0.7930  14.8275  11.8863   C.2       1 RES1   0.0000
    51 C39      2.0677  14.3617  12.4521   C.2       1 RES1   0.0000
    52 C40      3.7068  14.1585  13.8704   C.2       1 RES1   0.0000
    53 C41      2.9046  13.3521  12.0908   C.2       1 RES1   0.0000
    54 C42      2.1183  15.9542  14.4484   C.3       1 RES1   0.0000
    55 C43      4.9941  17.4362   5.9131   C.ar      1 RES1   0.0000
    56 C44      5.9406  18.1435   6.6639   C.ar      1 RES1   0.0000
    57 C45      6.2823  19.4506   6.3222   C.ar      1 RES1   0.0000
    58 C46      5.6671  20.0688   5.2567   C.ar      1 RES1   0.0000
    59 C47      4.7018  19.4137   4.5377   C.ar      1 RES1   0.0000
    60 C48      4.3757  18.1011   4.8525   C.ar      1 RES1   0.0000
    61 C49      7.1116  18.0860   8.8587   C.2       1 RES1   0.0000
    62 C50      7.7669  17.1451   9.7797   C.2       1 RES1   0.0000
    63 C51      8.8307  16.4251  11.5470   C.2       1 RES1   0.0000
    64 C52      7.9108  15.7920   9.7405   C.2       1 RES1   0.0000
    65 C53      8.4852  18.8601  11.5862   C.3       1 RES1   0.0000
    66 C54      8.0677  11.3302   4.5242   C.ar      1 RES1   0.0000
    67 C55      9.1837  10.9394   5.2640   C.ar      1 RES1   0.0000
    68 C56     10.3589  10.5431   4.6186   C.ar      1 RES1   0.0000
    69 C57     10.4078  10.5500   3.2407   C.ar      1 RES1   0.0000
    70 C58      9.3200  10.9452   2.4961   C.ar      1 RES1   0.0000
    71 C59      8.1543  11.3300   3.1403   C.ar      1 RES1   0.0000
    72 C60      9.9168  10.4955   7.6094   C.2       1 RES1   0.0000
    73 C61      9.5191  10.8225   8.9738   C.2       1 RES1   0.0000
    74 C62      9.6105  10.9745  11.1514   C.2       1 RES1   0.0000
    75 C63      8.4417  11.4917   9.4539   C.2       1 RES1   0.0000
    76 C64     11.5856   9.8668  10.1544   C.3       1 RES1   0.0000
    77 N5       2.6401   8.1242   9.2543   N.am      1 RES1   0.0000
    78 N6       0.5833  14.4057  10.6027   N.am      1 RES1   0.0000
    79 N7       6.5670  17.4923   7.7564   N.am      1 RES1   0.0000
    80 N8       9.0825  11.0043   6.6688   N.am      1 RES1   0.0000
    81 O1       3.6571   6.6576  10.6786   O.2       1 RES1   0.0000
    82 O2      -0.0100  15.4914  12.5182   O.2       1 RES1   0.0000
    83 O3       7.0475  19.2820   9.0730   O.2       1 RES1   0.0000
    84 O4      10.9078   9.8304   7.3559   O.2       1 RES1   0.0000
    85 N9       3.1740   8.5834  12.8391   N.pl3     1 RES1   0.0000
    86 N10      1.7232  10.2499  12.7999   N.2       1 RES1   0.0000
    87 N11      2.6017  14.8651  13.6254   N.pl3     1 RES1   0.0000
    88 N12      3.9316  13.2184  12.9751   N.2       1 RES1   0.0000
    89 N13      8.3663  17.5382  10.9689   N.pl3     1 RES1   0.0000
    90 N14      8.5656  15.3362  10.8477   N.2       1 RES1   0.0000
    91 N15     10.2690  10.4985  10.0908   N.pl3     1 RES1   0.0000
    92 N16      8.4871  11.5906  10.8305   N.2       1 RES1   0.0000
    93 N17      4.5289  12.5675   8.3271   N.2       1 RES1   0.0000
    94 N18      5.2183  11.7301  10.2451   N.pl3     1 RES1   0.0000
    95 N19      2.9962  12.8012   4.6443   N.2       1 RES1   0.0000
    96 N20      1.6676  13.1879   2.9333   N.pl3     1 RES1   0.0000
    97 C65      4.5837  11.4886   9.0779   C.2       1 RES1   0.0000
    98 C66      5.5856  13.0462  10.2377   C.2       1 RES1   0.0000
    99 C67      5.1493  13.5581   9.0460   C.2       1 RES1   0.0000
   100 C68      5.4280  10.7647  11.3131   C.3       1 RES1   0.0000
   101 C69      1.8543  13.3346   4.2695   C.2       1 RES1   0.0000
   102 C70      2.7503  12.5155   2.4532   C.2       1 RES1   0.0000
   103 C71      3.5675  12.2866   3.5065   C.2       1 RES1   0.0000
   104 C72      0.4967  13.5778   2.1801   C.3       1 RES1   0.0000
   105 H8       4.7802   7.7588   5.6216   H         1 RES1   0.0000
   106 H9       8.3735  13.9145   4.8010   H         1 RES1   0.0000
   107 H10      7.1826  16.1690   5.1317   H         1 RES1   0.0000
   108 H11      2.6176  17.5914   7.0423   H         1 RES1   0.0000
   109 H12     -0.7728  11.3210   8.5365   H         1 RES1   0.0000
   110 H13      0.5111  16.3666   8.0099   H         1 RES1   0.0000
   111 H14      6.8583   9.0275   4.9480   H         1 RES1   0.0000
   112 H15      4.2670  10.5988   8.8427   H         1 RES1   0.0000
   113 H16      6.1664  13.4095  11.1085   H         1 RES1   0.0000
   114 H17      5.1893  14.5025   8.6468   H         1 RES1   0.0000
   115 H18      1.2481  13.7998   4.8623   H         1 RES1   0.0000
   116 H19      2.8424  12.2237   1.5064   H         1 RES1   0.0000
   117 H20      4.2971  11.8602   3.5763   H         1 RES1   0.0000
   118 H21      0.0323  14.2756   2.7679   H         1 RES1   0.0000
   119 H22     -0.1186  12.9557   1.8861   H         1 RES1   0.0000
   120 H23      0.7892  14.1024   1.3350   H         1 RES1   0.0000
   121 H24      6.4313  10.6622  11.5250   H         1 RES1   0.0000
   122 H25      5.1832   9.8082  11.0228   H         1 RES1   0.0000
   123 H26      4.9281  10.9794  12.0393   H         1 RES1   0.0000
   124 H27     11.0548  10.2962   5.1562   H         1 RES1   0.0000
   125 H28     11.2340  10.4182   2.8537   H         1 RES1   0.0000
   126 H29      9.3165  10.8818   1.4942   H         1 RES1   0.0000
   127 H30      7.3686  11.5405   2.5352   H         1 RES1   0.0000
   128 H31      9.9076  10.8086  11.9781   H         1 RES1   0.0000
   129 H32      8.5258  11.4185   6.9199   H         1 RES1   0.0000
   130 H33      7.7346  11.9797   8.7937   H         1 RES1   0.0000
   131 H34     11.7292   9.8082  11.0840   H         1 RES1   0.0000
   132 H35     11.5228   9.0275   9.8470   H         1 RES1   0.0000
   133 H36     12.2403  10.3938   9.6388   H         1 RES1   0.0000
   134 H37      1.4486   4.2942   6.9811   H         1 RES1   0.0000
   135 H38      1.2579   5.3921   4.8378   H         1 RES1   0.0000
   136 H39      1.9363   7.6856   4.7031   H         1 RES1   0.0000
   137 H40      2.3286   9.0031   9.1734   H         1 RES1   0.0000
   138 H41     -1.9289  14.9319  11.2555   H         1 RES1   0.0000
   139 H42     -3.8406  14.7124  10.1042   H         1 RES1   0.0000
   140 H43     -3.7677  14.2000   7.8507   H         1 RES1   0.0000
   141 H44     -1.6826  13.5656   6.8464   H         1 RES1   0.0000
   142 H45      1.2562  14.0292  10.1777   H         1 RES1   0.0000
   143 H46      4.2383  14.3659  14.6236   H         1 RES1   0.0000
   144 H47      2.7771  12.7361  11.3535   H         1 RES1   0.0000
   145 H48      1.3168  15.6883  14.8563   H         1 RES1   0.0000
   146 H49      1.9984  16.6886  13.8765   H         1 RES1   0.0000
   147 H50      2.7743  16.2495  15.0400   H         1 RES1   0.0000
   148 H51      6.8985  19.9532   6.8831   H         1 RES1   0.0000
   149 H52      3.6790  17.6573   4.4336   H         1 RES1   0.0000
   150 H53      5.9196  20.8925   5.0582   H         1 RES1   0.0000
   151 H54      4.2942  19.7873   4.0172   H         1 RES1   0.0000
   152 H55      7.5741  15.1515   8.9897   H         1 RES1   0.0000
   153 H56      8.7210  19.3969  10.9371   H         1 RES1   0.0000
   154 H57      9.2350  18.8113  12.3210   H         1 RES1   0.0000
   155 H58      7.4723  19.0797  11.9781   H         1 RES1   0.0000
   156 H59      6.4972  16.6398   7.7650   H         1 RES1   0.0000
   157 H60      9.3066  16.4935  12.4435   H         1 RES1   0.0000
   158 C73      8.7457   6.2778   9.1097   C.3       2 RES2   0.0000
   159 H61      8.3645   5.3653   9.0987   H         2 RES2   0.0000
   160 H62      9.7132   6.2241   8.9052   H         2 RES2   0.0000
   161 O5       8.5289   6.8950  10.3406   O.3       2 RES2   0.0000
   162 C74      7.3687   7.6685  10.2598   C.3       2 RES2   0.0000
   163 H63      7.5411   8.5566  10.6566   H         2 RES2   0.0000
   164 H64      6.6515   7.2342  10.7864   H         2 RES2   0.0000
   165 C75      6.9187   7.8344   8.8930   C.3       2 RES2   0.0000
   166 H65      6.8349   8.7908   8.6529   H         2 RES2   0.0000
   167 H66      6.0534   7.3806   8.7374   H         2 RES2   0.0000
   168 C76      8.0384   7.1683   8.1299   C.3       2 RES2   0.0000
   169 H67      7.6755   6.6364   7.3779   H         2 RES2   0.0000
   170 H68      8.6598   7.8490   7.7662   H         2 RES2   0.0000
   171 O6      -0.8042  16.5642   3.4305   O.3       3 RES3   0.0000
   172 C77     -0.9553  17.0449   4.8366   C.3       3 RES3   0.0000
   173 H69     -1.9230  17.1181   5.0301   H         3 RES3   0.0000
   174 H70     -0.5882  16.3495   5.4379   H         3 RES3   0.0000
   175 C78     -0.3221  18.3355   5.1966   C.3       3 RES3   0.0000
   176 H71     -0.9564  19.0968   5.2089   H         3 RES3   0.0000
   177 H72      0.1960  18.2990   6.0393   H         3 RES3   0.0000
   178 C79      0.5252  18.2965   3.9829   C.3       3 RES3   0.0000
   179 H73      0.2198  19.0333   3.3987   H         3 RES3   0.0000
   180 H74      1.4456  18.5259   4.2707   H         3 RES3   0.0000
   181 C80      0.6325  17.1229   3.1476   C.3       3 RES3   0.0000
   182 H75      1.3445  16.5081   3.4526   H         3 RES3   0.0000
   183 H76      0.7688  17.3498   2.1935   H         3 RES3   0.0000
@<TRIPOS>BOND
     1     1     2    1
     2     2     6    1
     3     3     1    1
     4     4     1    1
     5     5     1    1
     6     6    14    1
     7     7     2    1
     8     8     3    2
     9     9     3    1
    10    10     4    1
    11    11     4    1
    12    12     5    1
    13    13     5    2
    14    14    15    2
    15    15     7    1
    16    16     8    1
    17    17    16    1
    18    18     9    1
    19    19    10    2
    20    20    11    2
    21    21    12    1
    22    22    13    1
    23    23     7    2
    24    24     9    2
    25    25    11    1
    26    26     6    2
    27    27    23    1
    28    28    27   ar
    29    29    28   ar
    30    30    29    1
    31    31    29   ar
    32    32    31   ar
    33    33    27   ar
    34    34    35    1
    35    35    38    2
    36    36    37    1
    37    38    39    1
    38    40    41    1
    39    42    40    1
    40    43    40    1
    41    44    24    1
    42    45    44   ar
    43    46    45   ar
    44    47    46   ar
    45    48    47   ar
    46    49    44   ar
    47    50    51    1
    48    51    53    2
    49    52    87    1
    50    53    88    1
    51    54    87    1
    52    55    25    1
    53    56    55   ar
    54    57    56   ar
    55    58    57   ar
    56    59    58   ar
    57    60    55   ar
    58    61    62    1
    59    62    64    2
    60    63    89    1
    61    64    90    1
    62    65    89    1
    63    66    26    1
    64    67    66   ar
    65    68    67   ar
    66    69    68   ar
    67    70    69   ar
    68    71    66   ar
    69    72    73    1
    70    73    75    2
    71    74    91    1
    72    75    92    1
    73    76    91    1
    74    77    28    1
    75    78    45    1
    76    79    56    1
    77    80    67    1
    78    81    34    2
    79    82    50    2
    80    83    61    2
    81    84    72    2
    82    85    35    1
    83    86    36    2
    84    87    51    1
    85    88    52    2
    86    89    62    1
    87    90    63    2
    88    91    73    1
    89    92    74    2
    90    93     1    1
    91    94    97    1
    92    95     1    1
    93    96   101    1
    94    97    93    2
    95    98    94    1
    96    99    93    1
    97   100    94    1
    98   101    95    2
    99   102    96    1
   100   103    95    1
   101   104    96    1
   102   105    15    1
   103   106    22    1
   104   107    21    1
   105   108    20    1
   106   109    18    1
   107   110    19    1
   108   111    14    1
   109   112    97    1
   110   113    98    1
   111   114    99    1
   112   115   101    1
   113   116   102    1
   114   117   103    1
   115   118   104    1
   116   119   104    1
   117   120   104    1
   118   121   100    1
   119   122   100    1
   120   123   100    1
   121   124    68    1
   122   125    69    1
   123   126    70    1
   124   127    71    1
   125   128    74    1
   126   129    80    1
   127   130    75    1
   128   131    76    1
   129   132    76    1
   130   133    76    1
   131   134    31    1
   132   135    32    1
   133   136    33    1
   134   137    77    1
   135   138    46    1
   136   139    47    1
   137   140    48    1
   138   141    49    1
   139   142    78    1
   140   143    52    1
   141   144    53    1
   142   145    54    1
   143   146    54    1
   144   147    54    1
   145   148    57    1
   146   149    60    1
   147   150    58    1
   148   151    59    1
   149   152    64    1
   150   153    65    1
   151   154    65    1
   152   155    65    1
   153   156    79    1
   154   157    63    1
   155     8    23    1
   156    10    24    1
   157    12    25    2
   158    13    26    1
   159    16    18    2
   160    19    20    1
   161    21    22    2
   162    32    33   ar
   163    34    77   am
   164    36    85    1
   165    38    86    1
   166    40    85    1
   167    48    49   ar
   168    50    78   am
   169    59    60   ar
   170    61    79   am
   171    70    71   ar
   172    72    80   am
   173    98    99    2
   174   102   103    2
   175   158   159    1
   176   160   158    1
   177   161   158    1
   178   162   161    1
   179   163   162    1
   180   164   162    1
   181   165   162    1
   182   166   165    1
   183   167   165    1
   184   168   158    1
   185   169   168    1
   186   170   168    1
   187   165   168    1
   188   171   172    1
   189   172   173    1
   190   174   172    1
   191   175   172    1
   192   176   175    1
   193   177   175    1
   194   178   175    1
   195   179   178    1
   196   180   178    1
   197   181   171    1
   198   182   181    1
   199   183   181    1
   200   178   181    1
@<TRIPOS>SUBSTRUCTURE
     1 RES1        1 GROUP             0 ****  ****    0  
     2 RES2      158 GROUP             0 ****  ****    0  
     3 RES3      171 GROUP             0 ****  ****    0  
@<TRIPOS>CRYSIN
   24.1118   24.3986   12.4986   90.0000  101.5030   90.0000    14     1
