@<TRIPOS>MOLECULE
CELWIZ
   177   196     3     0     0
SMALL
USER_CHARGES
****
Generated from the CSD

@<TRIPOS>ATOM
     1 Fe1      8.2408   3.7160   4.0170   Fe        1 RES1  -1.0000
     2 N1       7.5529   2.5082   5.4979   N.2       1 RES1   0.0000
     3 N2       9.5276   2.3380   3.4319   N.2       1 RES1   0.0000
     4 N3       8.9229   4.9301   2.5739   N.2       1 RES1   0.0000
     5 N4       6.9526   5.1160   4.5764   N.2       1 RES1   0.0000
     6 N5       6.9316   3.0201   2.7833   N.ar      1 RES1   0.0000
     7 N6       4.9000   2.5297   1.7966   N.ar      1 RES1   0.0000
     8 N7       9.5848   4.4129   5.2577   N.ar      1 RES1   0.0000
     9 N8      10.5364   5.6983   6.8758   N.ar      1 RES1   0.0000
    10 C1       6.5186   2.7599   6.3696   C.2       1 RES1   0.0000
    11 C2       6.4462   1.7176   7.2997   C.2       1 RES1   0.0000
    12 C3       7.3901   0.8126   6.9496   C.2       1 RES1   0.0000
    13 C4       8.0585   1.2551   5.7793   C.2       1 RES1   0.0000
    14 C5       9.0288   0.5821   5.0878   C.2       1 RES1   0.0000
    15 C6       9.6256   1.0533   3.9759   C.2       1 RES1   0.0000
    16 C7      10.6015   0.2934   3.2020   C.2       1 RES1   0.0000
    17 C8      11.0670   1.0978   2.2462   C.2       1 RES1   0.0000
    18 C9      10.4339   2.3728   2.4212   C.2       1 RES1   0.0000
    19 C10     10.7039   3.5003   1.6576   C.2       1 RES1   0.0000
    20 C11      9.9941   4.6912   1.7211   C.2       1 RES1   0.0000
    21 C12     10.2746   5.8597   0.9678   C.2       1 RES1   0.0000
    22 C13      9.3791   6.8158   1.2921   C.2       1 RES1   0.0000
    23 C14      8.5497   6.2344   2.2908   C.2       1 RES1   0.0000
    24 C15      7.4872   6.8720   2.9463   C.2       1 RES1   0.0000
    25 C16      6.7602   6.3300   3.9827   C.2       1 RES1   0.0000
    26 C17      5.6435   7.0056   4.5988   C.2       1 RES1   0.0000
    27 C18      5.1707   6.2127   5.5442   C.2       1 RES1   0.0000
    28 C19      5.9694   5.0097   5.5271   C.2       1 RES1   0.0000
    29 C20      5.7485   3.9067   6.3765   C.2       1 RES1   0.0000
    30 C21      4.5661   3.9549   7.3082   C.ar      1 RES1   0.0000
    31 C22      4.4835   4.7736   8.3601   C.ar      1 RES1   0.0000
    32 C23      3.3158   4.8749   9.1220   C.ar      1 RES1   0.0000
    33 C24      2.1996   4.1028   8.7411   C.ar      1 RES1   0.0000
    34 C25      2.2826   3.2531   7.7269   C.ar      1 RES1   0.0000
    35 C26      3.4539   3.1914   6.9736   C.ar      1 RES1   0.0000
    36 C27      9.3492  -0.7990   5.5442   C.ar      1 RES1   0.0000
    37 C28     10.5632  -1.0768   6.1534   C.ar      1 RES1   0.0000
    38 C29     10.9253  -2.3901   6.5035   C.ar      1 RES1   0.0000
    39 C30     10.0477  -3.3927   6.2752   C.ar      1 RES1   0.0000
    40 C31      8.8795  -3.1814   5.6678   C.ar      1 RES1   0.0000
    41 C32      8.4920  -1.8600   5.2954   C.ar      1 RES1   0.0000
    42 C33     11.8146   3.3936   0.6555   C.ar      1 RES1   0.0000
    43 C34     11.6015   3.6130  -0.6898   C.ar      1 RES1   0.0000
    44 C35     12.6456   3.5309  -1.6078   C.ar      1 RES1   0.0000
    45 C36     13.9231   3.3913  -1.1566   C.ar      1 RES1   0.0000
    46 C37     14.1774   3.1882   0.1939   C.ar      1 RES1   0.0000
    47 C38     13.1286   3.2228   1.1222   C.ar      1 RES1   0.0000
    48 C39      7.2103   8.3062   2.5310   C.ar      1 RES1   0.0000
    49 C40      6.7044   8.5480   1.2595   C.ar      1 RES1   0.0000
    50 C41      6.4604   9.8890   0.8820   C.ar      1 RES1   0.0000
    51 C42      6.7355  10.8762   1.8052   C.ar      1 RES1   0.0000
    52 C43      7.1872  10.6692   3.0441   C.ar      1 RES1   0.0000
    53 C44      7.4192   9.3334   3.4285   C.ar      1 RES1   0.0000
    54 C45      5.5818   3.1903   2.7267   C.ar      1 RES1   0.0000
    55 C46      5.9429   1.8689   1.1360   C.ar      1 RES1   0.0000
    56 C47      7.1420   2.1325   1.7005   C.ar      1 RES1   0.0000
    57 C48      5.5972   1.0055  -0.0120   C.3       1 RES1   0.0000
    58 C49      9.4084   5.4902   6.0951   C.ar      1 RES1   0.0000
    59 C50     11.3989   4.7349   6.4777   C.ar      1 RES1   0.0000
    60 C51     10.8582   3.9640   5.5168   C.ar      1 RES1   0.0000
    61 C52     12.7699   4.5975   7.1778   C.3       1 RES1   0.0000
    62 H1       5.8025   1.6339   8.1113   H         1 RES1   0.0000
    63 H2       7.6265  -0.0691   7.4507   H         1 RES1   0.0000
    64 H3      10.8592  -0.6967   3.3684   H         1 RES1   0.0000
    65 H4      11.7617   0.8445   1.5118   H         1 RES1   0.0000
    66 H5      11.0621   5.9685   0.2866   H         1 RES1   0.0000
    67 H6       9.2928   7.7532   0.9163   H         1 RES1   0.0000
    68 H7       5.2379   7.9284   4.3431   H         1 RES1   0.0000
    69 H8       4.3989   6.4352   6.2083   H         1 RES1   0.0000
    70 H9       5.3066   5.3733   8.6021   H         1 RES1   0.0000
    71 H10      3.2686   5.4991   9.9285   H         1 RES1   0.0000
    72 H11      1.3343   4.1975   9.2833   H         1 RES1   0.0000
    73 H12      1.4233   2.7717   7.4953   H         1 RES1   0.0000
    74 H13      3.4933   2.5217   6.1929   H         1 RES1   0.0000
    75 H14     11.2053  -0.3199   6.3765   H         1 RES1   0.0000
    76 H15     11.8626  -2.6170   6.9050   H         1 RES1   0.0000
    77 H16     10.2348  -4.3488   6.6116   H         1 RES1   0.0000
    78 H17      8.2706  -3.9656   5.3864   H         1 RES1   0.0000
    79 H18      7.5625  -1.6806   4.8767   H         1 RES1   0.0000
    80 H19     10.6426   3.8146  -1.0313   H         1 RES1   0.0000
    81 H20     12.4754   3.5802  -2.6323   H         1 RES1   0.0000
    82 H21     14.6984   3.4453  -1.8206   H         1 RES1   0.0000
    83 H22     15.1687   2.9946   0.4873   H         1 RES1   0.0000
    84 H23     13.3510   3.1518   2.1123   H         1 RES1   0.0000
    85 H24      6.5303   7.7962   0.5954   H         1 RES1   0.0000
    86 H25      6.0886  10.1463  -0.0240   H         1 RES1   0.0000
    87 H26      6.6079  11.8558   1.4929   H         1 RES1   0.0000
    88 H27      7.2978  11.4629   3.7013   H         1 RES1   0.0000
    89 H28      7.7702   9.1266   4.3980   H         1 RES1   0.0000
    90 H29      5.1025   3.8351   3.4027   H         1 RES1   0.0000
    91 H30      8.0411   1.7445   1.4019   H         1 RES1   0.0000
    92 H31      5.3771   1.3376  -0.9215   H         1 RES1   0.0000
    93 H32      4.7772   0.4402   0.2265   H         1 RES1   0.0000
    94 H33      6.3566   0.3468  -0.1836   H         1 RES1   0.0000
    95 H34      8.5548   6.1061   6.1054   H         1 RES1   0.0000
    96 H35     11.3430   3.1404   5.0621   H         1 RES1   0.0000
    97 H36     12.6684   3.6533   7.5519   H         1 RES1   0.0000
    98 H37     12.7981   5.2753   7.9637   H         1 RES1   0.0000
    99 H38     13.5275   4.8000   6.5807   H         1 RES1   0.0000
   100 K1      -0.2664   9.4875   4.7944   K         2 RES2   1.0000
   101 N9       0.8232   6.9955   3.5194   N.3       2 RES2   0.0000
   102 N10     -1.3776  12.0320   5.9612   N.3       2 RES2   0.0000
   103 O1      -1.9660   7.4159   4.1526   O.3       2 RES2   0.0000
   104 O2      -3.1019   9.8353   5.0157   O.3       2 RES2   0.0000
   105 O3       1.2289   9.6085   2.3663   O.3       2 RES2   0.0000
   106 O4       0.4851  11.9605   3.6481   O.3       2 RES2   0.0000
   107 O5       1.6276   7.9462   6.2289   O.3       2 RES2   0.0000
   108 O6       0.2402  10.1011   7.4472   O.3       2 RES2   0.0000
   109 C53     -0.2114   5.9305   3.4800   C.3       2 RES2   0.0000
   110 C54     -1.5583   6.4541   3.1677   C.3       2 RES2   0.0000
   111 C55     -3.3378   7.6058   4.1406   C.3       2 RES2   0.0000
   112 C56     -3.7076   8.5280   5.2491   C.3       2 RES2   0.0000
   113 C57     -3.5626  10.8085   5.8617   C.3       2 RES2   0.0000
   114 C58     -2.8103  12.1104   5.6764   C.3       2 RES2   0.0000
   115 C59      1.2580   7.2275   2.1707   C.3       2 RES2   0.0000
   116 C60      2.0133   8.5194   2.0197   C.3       2 RES2   0.0000
   117 C61      1.9069  10.8326   2.1364   C.3       2 RES2   0.0000
   118 C62      1.0482  11.9438   2.3509   C.3       2 RES2   0.0000
   119 C63     -0.3243  12.9978   3.9004   C.3       2 RES2   0.0000
   120 C64     -0.6831  13.1896   5.3383   C.3       2 RES2   0.0000
   121 C65      1.8964   6.4985   4.3568   C.3       2 RES2   0.0000
   122 C66      1.5811   6.5603   5.8497   C.3       2 RES2   0.0000
   123 C67      1.3694   8.0182   7.6326   C.3       2 RES2   0.0000
   124 C68      1.3438   9.4729   8.0444   C.3       2 RES2   0.0000
   125 C69      0.1603  11.4200   7.8385   C.3       2 RES2   0.0000
   126 C70     -1.1430  11.9936   7.4146   C.3       2 RES2   0.0000
   127 H39      0.0236   5.2141   2.7730   H         2 RES2   0.0000
   128 H40     -0.2875   5.4187   4.3637   H         2 RES2   0.0000
   129 H41     -2.2665   5.7403   3.0733   H         2 RES2   0.0000
   130 H42     -1.5301   6.9466   2.2565   H         2 RES2   0.0000
   131 H43     -3.6094   8.0347   3.2586   H         2 RES2   0.0000
   132 H44     -3.8138   6.7081   4.3139   H         2 RES2   0.0000
   133 H45     -3.4202   8.1332   6.1414   H         2 RES2   0.0000
   134 H46     -4.7378   8.6230   5.3092   H         2 RES2   0.0000
   135 H47     -4.5704  10.9519   5.7622   H         2 RES2   0.0000
   136 H48     -3.4382  10.5256   6.8604   H         2 RES2   0.0000
   137 H49     -3.2484  12.8525   6.1826   H         2 RES2   0.0000
   138 H50     -2.9218  12.3400   4.6657   H         2 RES2   0.0000
   139 H51      1.8152   6.4747   1.8172   H         2 RES2   0.0000
   140 H52      0.4596   7.3444   1.5461   H         2 RES2   0.0000
   141 H53      2.4207   8.6084   1.0811   H         2 RES2   0.0000
   142 H54      2.8695   8.4538   2.6426   H         2 RES2   0.0000
   143 H55      2.7000  10.8991   2.7713   H         2 RES2   0.0000
   144 H56      2.2917  10.8210   1.1926   H         2 RES2   0.0000
   145 H57      0.2899  11.8688   1.6422   H         2 RES2   0.0000
   146 H58      1.5415  12.7907   2.1449   H         2 RES2   0.0000
   147 H59     -1.2419  12.8909   3.4319   H         2 RES2   0.0000
   148 H60      0.0432  13.8894   3.5795   H         2 RES2   0.0000
   149 H61     -1.2656  14.0110   5.3829   H         2 RES2   0.0000
   150 H62      0.1957  13.3898   5.7656   H         2 RES2   0.0000
   151 H63      2.1866   5.5764   4.0685   H         2 RES2   0.0000
   152 H64      2.7339   7.1098   4.1904   H         2 RES2   0.0000
   153 H65      2.2130   5.9831   6.3954   H         2 RES2   0.0000
   154 H66      0.6410   6.1686   5.9938   H         2 RES2   0.0000
   155 H67      0.4452   7.5877   7.8574   H         2 RES2   0.0000
   156 H68      2.0423   7.4698   8.1834   H         2 RES2   0.0000
   157 H69      2.2180   9.9145   7.7390   H         2 RES2   0.0000
   158 H70      1.3268   9.5827   9.0654   H         2 RES2   0.0000
   159 H71      0.3308  11.5840   8.8286   H         2 RES2   0.0000
   160 H72      0.9194  11.9990   7.3632   H         2 RES2   0.0000
   161 H73     -1.3413  12.9074   7.8076   H         2 RES2   0.0000
   162 H74     -1.8905  11.3702   7.7853   H         2 RES2   0.0000
   163 C71     15.8204   0.7370   2.4607   C.ar      3 RES3   0.0000
   164 C72     16.3120   1.8953   3.0956   C.ar      3 RES3   0.0000
   165 C73     15.6302   2.2058   4.2710   C.ar      3 RES3   0.0000
   166 C74     14.4981   1.5848   4.7309   C.ar      3 RES3   0.0000
   167 C75     14.1118   0.4356   4.0531   C.ar      3 RES3   0.0000
   168 C76     14.7202   0.0403   2.8862   C.ar      3 RES3   0.0000
   169 C77     16.4571   0.3208   1.1377   C.3       3 RES3   0.0000
   170 H75     17.1528   2.4274   2.7524   H         3 RES3   0.0000
   171 H76     15.9604   3.0104   4.7995   H         3 RES3   0.0000
   172 H77     13.9928   1.9080   5.5563   H         3 RES3   0.0000
   173 H78     13.3180  -0.1561   4.4272   H         3 RES3   0.0000
   174 H79     14.3685  -0.7736   2.3526   H         3 RES3   0.0000
   175 H80     16.4862  -0.8674   1.1548   H         3 RES3   0.0000
   176 H81     16.1629   0.8491   0.3089   H         3 RES3   0.0000
   177 H82     17.5015   0.4026   1.1325   H         3 RES3   0.0000
@<TRIPOS>BOND
     1     1     2    1
     2     2    10    1
     3     3     1    1
     4     4     1    1
     5     5     1    1
     6     6     1    1
     7     7    54   ar
     8     8     1    1
     9     9    58   ar
    10    10    11    1
    11    11    12    2
    12    12    13    1
    13    13     2    2
    14    14    13    1
    15    15     3    1
    16    16    15    1
    17    17    16    2
    18    18     3    1
    19    19    18    2
    20    20     4    2
    21    21    20    1
    22    22    21    2
    23    23     4    1
    24    24    23    2
    25    25     5    1
    26    26    25    2
    27    27    26    1
    28    28     5    1
    29    29    10    2
    30    30    29    1
    31    31    30   ar
    32    32    31   ar
    33    33    32   ar
    34    34    33   ar
    35    35    30   ar
    36    36    14    1
    37    37    36   ar
    38    38    37   ar
    39    39    38   ar
    40    40    39   ar
    41    41    36   ar
    42    42    19    1
    43    43    42   ar
    44    44    43   ar
    45    45    44   ar
    46    46    45   ar
    47    47    42   ar
    48    48    24    1
    49    49    48   ar
    50    50    49   ar
    51    51    50   ar
    52    52    51   ar
    53    53    48   ar
    54    54     6   ar
    55    55     7   ar
    56    56     6   ar
    57    57    55    1
    58    58     8   ar
    59    59     9   ar
    60    60     8   ar
    61    61    59    1
    62    62    11    1
    63    63    12    1
    64    64    16    1
    65    65    17    1
    66    66    21    1
    67    67    22    1
    68    68    26    1
    69    69    27    1
    70    70    31    1
    71    71    32    1
    72    72    33    1
    73    73    34    1
    74    74    35    1
    75    75    37    1
    76    76    38    1
    77    77    39    1
    78    78    40    1
    79    79    41    1
    80    80    43    1
    81    81    44    1
    82    82    45    1
    83    83    46    1
    84    84    47    1
    85    85    49    1
    86    86    50    1
    87    87    51    1
    88    88    52    1
    89    89    53    1
    90    90    54    1
    91    91    56    1
    92    92    57    1
    93    93    57    1
    94    94    57    1
    95    95    58    1
    96    96    60    1
    97    97    61    1
    98    98    61    1
    99    99    61    1
   100    14    15    2
   101    17    18    1
   102    19    20    1
   103    22    23    1
   104    24    25    1
   105    27    28    2
   106    28    29    1
   107    34    35   ar
   108    40    41   ar
   109    46    47   ar
   110    52    53   ar
   111    55    56   ar
   112    59    60   ar
   113   100   103    1
   114   101   109    1
   115   102   114    1
   116   103   110    1
   117   104   100    1
   118   105   100    1
   119   106   100    1
   120   107   100    1
   121   108   100    1
   122   109   110    1
   123   110   129    1
   124   111   103    1
   125   112   104    1
   126   113   104    1
   127   114   113    1
   128   115   101    1
   129   116   105    1
   130   117   105    1
   131   118   106    1
   132   119   106    1
   133   120   102    1
   134   121   101    1
   135   122   107    1
   136   123   107    1
   137   124   108    1
   138   125   108    1
   139   126   102    1
   140   127   109    1
   141   128   109    1
   142   130   110    1
   143   131   111    1
   144   132   111    1
   145   133   112    1
   146   134   112    1
   147   135   113    1
   148   136   113    1
   149   137   114    1
   150   138   114    1
   151   139   115    1
   152   140   115    1
   153   141   116    1
   154   142   116    1
   155   143   117    1
   156   144   117    1
   157   145   118    1
   158   146   118    1
   159   147   119    1
   160   148   119    1
   161   149   120    1
   162   150   120    1
   163   151   121    1
   164   152   121    1
   165   153   122    1
   166   154   122    1
   167   155   123    1
   168   156   123    1
   169   157   124    1
   170   158   124    1
   171   159   125    1
   172   160   125    1
   173   161   126    1
   174   162   126    1
   175   111   112    1
   176   115   116    1
   177   117   118    1
   178   119   120    1
   179   121   122    1
   180   123   124    1
   181   125   126    1
   182   163   164   ar
   183   164   165   ar
   184   165   166   ar
   185   166   167   ar
   186   167   168   ar
   187   168   163   ar
   188   169   163    1
   189   170   164    1
   190   171   165    1
   191   172   166    1
   192   173   167    1
   193   174   168    1
   194   175   169    1
   195   176   169    1
   196   177   169    1
@<TRIPOS>SUBSTRUCTURE
     1 RES1        1 GROUP             0 ****  ****    0  
     2 RES2      100 GROUP             0 ****  ****    0  
     3 RES3      163 GROUP             0 ****  ****    0  
@<TRIPOS>CRYSIN
   14.6300   14.6800   17.2000   93.6700   87.4400  109.6900     2     1
