@<TRIPOS>MOLECULE
CERZOO
   140   149     2     0     0
SMALL
USER_CHARGES
****
Generated from the CSD

@<TRIPOS>ATOM
     1 Fe1      0.2082  11.5029  -3.4699   Fe        1 RES1   1.0000
     2 N1      -0.5670  12.6948  -4.7126   N.2       1 RES1   0.0000
     3 N2       1.7154  12.6427  -3.5480   N.2       1 RES1   0.0000
     4 N3       0.9730  10.3465  -2.1679   N.2       1 RES1   0.0000
     5 N4      -1.3076  10.3249  -3.4657   N.2       1 RES1   0.0000
     6 N5       0.9945  10.4188  -4.9971   N.ar      1 RES1   0.0000
     7 N6       2.2782   7.3428  -7.5483   N.pl3     1 RES1   0.0000
     8 N7      -0.5360  12.5533  -1.9130   N.ar      1 RES1   0.0000
     9 N8      -2.1220  14.2288   1.6218   N.pl3     1 RES1   0.0000
    10 O1       5.2915  12.2709  -1.7107   O.2       1 RES1   0.0000
    11 O2       4.8913  10.1781  -1.0790   O.3       1 RES1   0.0000
    12 O3      -5.0999  11.2172  -5.0020   O.2       1 RES1   0.0000
    13 O4      -4.1891  12.8614  -6.2193   O.3       1 RES1   0.0000
    14 C1       0.3152  13.7469  -5.0826   C.ar      1 RES1   0.0000
    15 C2       0.0446  14.7509  -6.0104   C.ar      1 RES1   0.0000
    16 H1      -0.7951  14.7586  -6.4759   H         1 RES1   0.0000
    17 C3       0.9891  15.7408  -6.2719   C.ar      1 RES1   0.0000
    18 H2       0.7978  16.4276  -6.9150   H         1 RES1   0.0000
    19 C4       2.1893  15.7520  -5.6090   C.ar      1 RES1   0.0000
    20 H3       2.8310  16.4448  -5.7817   H         1 RES1   0.0000
    21 C5       2.4832  14.7542  -4.6813   C.ar      1 RES1   0.0000
    22 H4       3.3208  14.7628  -4.2125   H         1 RES1   0.0000
    23 C6       1.5563  13.7418  -4.4477   C.ar      1 RES1   0.0000
    24 C7       2.8679  12.4133  -2.9460   C.2       1 RES1   0.0000
    25 H5       3.5949  13.0055  -3.1499   H         1 RES1   0.0000
    26 C8       3.1129  11.4042  -2.0199   C.2       1 RES1   0.0000
    27 C9       2.1180  10.4512  -1.5445   C.2       1 RES1   0.0000
    28 C10     -0.0389   9.3821  -1.6646   C.3       1 RES1   0.0000
    29 H6      -0.5223   9.7693  -0.9310   H         1 RES1   0.0000
    30 H7       0.3925   8.5810  -1.3587   H         1 RES1   0.0000
    31 C11     -0.9798   9.0798  -2.7716   C.3       1 RES1   0.0000
    32 H8      -0.5623   8.4702  -3.3835   H         1 RES1   0.0000
    33 H9      -1.7814   8.6720  -2.4361   H         1 RES1   0.0000
    34 C12     -2.4346  10.4208  -4.1138   C.2       1 RES1   0.0000
    35 C13     -2.7485  11.6413  -4.8441   C.2       1 RES1   0.0000
    36 C14     -1.8179  12.6665  -5.0942   C.2       1 RES1   0.0000
    37 H10     -2.1327  13.4186  -5.6008   H         1 RES1   0.0000
    38 C15      4.5005  11.3509  -1.6005   C.2       1 RES1   0.0000
    39 C16      6.1491  10.1470  -0.3882   C.3       1 RES1   0.0000
    40 H11      6.3538  11.0235  -0.0526   H         1 RES1   0.0000
    41 H12      6.8411   9.8946  -1.0034   H         1 RES1   0.0000
    42 C17      6.1202   9.2374   0.6876   C.3       1 RES1   0.0000
    43 H13      6.9694   9.2267   1.1350   H         1 RES1   0.0000
    44 H14      5.4348   9.4987   1.3077   H         1 RES1   0.0000
    45 H15      5.9269   8.3612   0.3471   H         1 RES1   0.0000
    46 C18      2.3345   9.6685  -0.2780   C.3       1 RES1   0.0000
    47 H16      1.5714   9.1055  -0.1234   H         1 RES1   0.0000
    48 H17      3.1202   9.1232  -0.3652   H         1 RES1   0.0000
    49 H18      2.4416  10.2715   0.4606   H         1 RES1   0.0000
    50 C19     -4.1202  11.8485  -5.3327   C.2       1 RES1   0.0000
    51 C20     -5.4965  13.1005  -6.7950   C.3       1 RES1   0.0000
    52 H19     -6.1727  13.1411  -6.1140   H         1 RES1   0.0000
    53 H20     -5.7104  12.3914  -7.4036   H         1 RES1   0.0000
    54 C21     -5.4093  14.3894  -7.5483   C.3       1 RES1   0.0000
    55 H21     -6.2502  14.5896  -7.9661   H         1 RES1   0.0000
    56 H22     -5.1895  15.0837  -6.9249   H         1 RES1   0.0000
    57 H23     -4.7250  14.3313  -8.2194   H         1 RES1   0.0000
    58 C22     -3.3932   9.2655  -4.1780   C.3       1 RES1   0.0000
    59 H24     -3.0520   8.5352  -3.6582   H         1 RES1   0.0000
    60 H25     -4.2402   9.5449  -3.8227   H         1 RES1   0.0000
    61 H26     -3.5075   8.9832  -5.0892   H         1 RES1   0.0000
    62 C23      2.2389   9.8727  -4.8918   C.ar      1 RES1   0.0000
    63 H27      2.8207  10.1806  -4.1911   H         1 RES1   0.0000
    64 C24      2.7059   8.9043  -5.7570   C.ar      1 RES1   0.0000
    65 H28      3.5962   8.5643  -5.6485   H         1 RES1   0.0000
    66 C25      1.9156   8.4047  -6.7834   C.ar      1 RES1   0.0000
    67 C26      0.6832   9.0849  -6.9693   C.ar      1 RES1   0.0000
    68 H29      0.1458   8.8862  -7.7391   H         1 RES1   0.0000
    69 C27      0.2714  10.0308  -6.0646   C.ar      1 RES1   0.0000
    70 H30     -0.5881  10.4367  -6.1995   H         1 RES1   0.0000
    71 C28      1.4396   6.8585  -8.5813   C.3       1 RES1   0.0000
    72 H31      1.1868   7.6179  -9.2672   H         1 RES1   0.0000
    73 H32      0.6318   6.5507  -8.2474   H         1 RES1   0.0000
    74 H33      1.8851   6.2135  -9.1011   H         1 RES1   0.0000
    75 C29      3.4270   6.5334  -7.1651   C.3       1 RES1   0.0000
    76 H34      3.9094   6.9706  -6.4594   H         1 RES1   0.0000
    77 H35      3.1202   5.6762  -6.8607   H         1 RES1   0.0000
    78 H36      4.0047   6.4163  -7.9233   H         1 RES1   0.0000
    79 C30     -1.8710  12.7475  -1.7123   C.ar      1 RES1   0.0000
    80 H37     -2.4771  12.4477  -2.3933   H         1 RES1   0.0000
    81 C31     -2.4095  13.3465  -0.5856   C.ar      1 RES1   0.0000
    82 H38     -3.3567  13.4998  -0.5346   H         1 RES1   0.0000
    83 C32     -1.6020  13.7327   0.4688   C.ar      1 RES1   0.0000
    84 C33     -0.2121  13.6149   0.2402   C.ar      1 RES1   0.0000
    85 H39      0.4091  13.9463   0.8932   H         1 RES1   0.0000
    86 C34      0.2481  13.0224  -0.9096   C.ar      1 RES1   0.0000
    87 H40      1.1988  12.9365  -1.0116   H         1 RES1   0.0000
    88 C35     -1.3135  14.7047   2.7075   C.3       1 RES1   0.0000
    89 H41     -0.3870  14.5583   2.5002   H         1 RES1   0.0000
    90 H42     -1.4651  15.6419   2.8489   H         1 RES1   0.0000
    91 H43     -1.5427  14.2186   3.5036   H         1 RES1   0.0000
    92 C36     -3.5769  14.3654   1.7781   C.3       1 RES1   0.0000
    93 H44     -3.8716  13.8722   2.5463   H         1 RES1   0.0000
    94 H45     -3.7944  15.2940   1.8916   H         1 RES1   0.0000
    95 H46     -4.0142  14.0287   0.9935   H         1 RES1   0.0000
    96 B1       2.4775  11.6248   4.2421   B         2 RES2  -1.0000
    97 C37      1.8259  12.0660   5.7225   C.ar      2 RES2   0.0000
    98 C38      0.4500  12.2923   5.8853   C.ar      2 RES2   0.0000
    99 H47     -0.1493  12.1028   5.1583   H         2 RES2   0.0000
   100 C39     -0.0834  12.8249   7.0548   C.ar      2 RES2   0.0000
   101 H48     -1.0239  13.0084   7.1091   H         2 RES2   0.0000
   102 C40      0.7237  13.1047   8.1339   C.ar      2 RES2   0.0000
   103 H49      0.3674  13.4759   8.9448   H         2 RES2   0.0000
   104 C41      2.0901  12.8291   8.0204   C.ar      2 RES2   0.0000
   105 H50      2.6846  13.0006   8.7556   H         2 RES2   0.0000
   106 C42      2.6039  12.3276   6.8213   C.ar      2 RES2   0.0000
   107 H51      3.5449  12.1454   6.7719   H         2 RES2   0.0000
   108 C43      1.4592  10.5756   3.4542   C.ar      2 RES2   0.0000
   109 C44      0.3285  11.0939   2.7979   C.ar      2 RES2   0.0000
   110 H52      0.1695  12.0407   2.8061   H         2 RES2   0.0000
   111 C45     -0.6085  10.3002   2.2091   C.ar      2 RES2   0.0000
   112 H53     -1.3747  10.6992   1.7896   H         2 RES2   0.0000
   113 C46     -0.4682   8.9251   2.2222   C.ar      2 RES2   0.0000
   114 H54     -1.1418   8.3682   1.8258   H         2 RES2   0.0000
   115 C47      0.6505   8.3809   2.8127   C.ar      2 RES2   0.0000
   116 H55      0.7787   7.4294   2.7979   H         2 RES2   0.0000
   117 C48      1.5942   9.1962   3.4016   C.ar      2 RES2   0.0000
   118 H56      2.3652   8.7935   3.8062   H         2 RES2   0.0000
   119 C49      2.6008  13.0006   3.3440   C.ar      2 RES2   0.0000
   120 C50      2.3375  14.2864   3.8029   C.ar      2 RES2   0.0000
   121 H57      2.1405  14.4204   4.7323   H         2 RES2   0.0000
   122 C51      2.4893  15.4059   2.9904   C.ar      2 RES2   0.0000
   123 H58      2.2925  16.2772   3.3424   H         2 RES2   0.0000
   124 C52      2.9277  15.2855   1.6745   C.ar      2 RES2   0.0000
   125 H59      3.0425  16.0596   1.1202   H         2 RES2   0.0000
   126 C53      3.1899  14.0246   1.1794   C.ar      2 RES2   0.0000
   127 H60      3.4883  13.9165   0.2730   H         2 RES2   0.0000
   128 C54      3.0137  12.9138   1.9837   C.ar      2 RES2   0.0000
   129 H61      3.1835  12.0411   1.6202   H         2 RES2   0.0000
   130 C55      3.9798  10.9868   4.4362   C.ar      2 RES2   0.0000
   131 C56      4.1936   9.8336   5.1764   C.ar      2 RES2   0.0000
   132 H62      3.4436   9.4633   5.6485   H         2 RES2   0.0000
   133 C57      5.4316   9.1976   5.2800   C.ar      2 RES2   0.0000
   134 H63      5.5156   8.3661   5.7538   H         2 RES2   0.0000
   135 C58      6.5556   9.7996   4.6862   C.ar      2 RES2   0.0000
   136 H64      7.4220   9.3908   4.7487   H         2 RES2   0.0000
   137 C59      6.4025  10.9938   4.0168   C.ar      2 RES2   0.0000
   138 H65      7.1640  11.4371   3.6385   H         2 RES2   0.0000
   139 C60      5.1407  11.5561   3.8901   C.ar      2 RES2   0.0000
   140 H66      5.0504  12.3716   3.3901   H         2 RES2   0.0000
@<TRIPOS>BOND
     1     1     2    1
     2     2    14    1
     3     3     1    1
     4     4     1    1
     5     5     1    1
     6     6     1    1
     7     7    66    1
     8     8     1    1
     9     9    83    1
    10    10    38    2
    11    11    38    1
    12    12    50    2
    13    13    50    1
    14    14    15   ar
    15    15    16    1
    16    17    15   ar
    17    18    17    1
    18    19    17   ar
    19    20    19    1
    20    21    19   ar
    21    22    21    1
    22    23     3    1
    23    24     3   un
    24    25    24    1
    25    26    24   un
    26    27     4   un
    27    28     4    1
    28    29    28    1
    29    30    28    1
    30    31     5    1
    31    32    31    1
    32    33    31    1
    33    34     5   un
    34    35    34   un
    35    36     2   un
    36    37    36    1
    37    38    26    1
    38    39    11    1
    39    40    39    1
    40    41    39    1
    41    42    39    1
    42    43    42    1
    43    44    42    1
    44    45    42    1
    45    46    27    1
    46    47    46    1
    47    48    46    1
    48    49    46    1
    49    50    35    1
    50    51    13    1
    51    52    51    1
    52    53    51    1
    53    54    51    1
    54    55    54    1
    55    56    54    1
    56    57    54    1
    57    58    34    1
    58    59    58    1
    59    60    58    1
    60    61    58    1
    61    62     6   ar
    62    63    62    1
    63    64    62   ar
    64    65    64    1
    65    66    64   ar
    66    67    66   ar
    67    68    67    1
    68    69     6   ar
    69    70    69    1
    70    71     7    1
    71    72    71    1
    72    73    71    1
    73    74    71    1
    74    75     7    1
    75    76    75    1
    76    77    75    1
    77    78    75    1
    78    79     8   ar
    79    80    79    1
    80    81    79   ar
    81    82    81    1
    82    83    81   ar
    83    84    83   ar
    84    85    84    1
    85    86     8   ar
    86    87    86    1
    87    88     9    1
    88    89    88    1
    89    90    88    1
    90    91    88    1
    91    92     9    1
    92    93    92    1
    93    94    92    1
    94    95    92    1
    95    14    23   ar
    96    21    23   ar
    97    26    27   un
    98    28    31    1
    99    35    36   un
   100    67    69   ar
   101    84    86   ar
   102    96    97    1
   103    97    98   ar
   104    98    99    1
   105   100    98   ar
   106   101   100    1
   107   102   100   ar
   108   103   102    1
   109   104   102   ar
   110   105   104    1
   111   106    97   ar
   112   107   106    1
   113   108    96    1
   114   109   108   ar
   115   110   109    1
   116   111   109   ar
   117   112   111    1
   118   113   111   ar
   119   114   113    1
   120   115   113   ar
   121   116   115    1
   122   117   108   ar
   123   118   117    1
   124   119    96    1
   125   120   119   ar
   126   121   120    1
   127   122   120   ar
   128   123   122    1
   129   124   122   ar
   130   125   124    1
   131   126   124   ar
   132   127   126    1
   133   128   119   ar
   134   129   128    1
   135   130    96    1
   136   131   130   ar
   137   132   131    1
   138   133   131   ar
   139   134   133    1
   140   135   133   ar
   141   136   135    1
   142   137   135   ar
   143   138   137    1
   144   139   130   ar
   145   140   139    1
   146   104   106   ar
   147   115   117   ar
   148   126   128   ar
   149   137   139   ar
@<TRIPOS>SUBSTRUCTURE
     1 RES1        1 GROUP             0 ****  ****    0  
     2 RES2       96 GROUP             0 ****  ****    0  
@<TRIPOS>CRYSIN
   10.3590   15.9620   17.6830   72.6200   73.6000   75.2500     2     1
