@<TRIPOS>MOLECULE
CETWIH
   118   121     3     0     0
SMALL
NO_CHARGES
****
Generated from the CSD

@<TRIPOS>ATOM
     1 Fe1      0.0000   0.0000   0.0000   Fe        1 RES1   0.0000
     2 O1      -0.0504   1.6803   1.0141   O.3       1 RES1   0.0000
     3 O2      -1.1738   1.1724  -1.2201   O.2       1 RES1   0.0000
     4 O3      -4.0680   2.3493  -1.1747   O.3       1 RES1   0.0000
     5 O4      -5.5430   2.7783   0.4713   O.2       1 RES1   0.0000
     6 O5      -7.5563   1.3140  -1.8881   O.2       1 RES1   0.0000
     7 N1      -0.6984   2.6807   0.3431   N.am      1 RES1   0.0000
     8 N2      -6.7117   0.2463  -0.1078   N.am      1 RES1   0.0000
     9 C1      -1.2613   2.3706  -0.8054   C.2       1 RES1   0.0000
    10 C2      -2.0157   3.4111  -1.5766   C.3       1 RES1   0.0000
    11 C3      -3.4125   3.6443  -1.0311   C.3       1 RES1   0.0000
    12 C4      -5.0509   2.0327  -0.3265   C.2       1 RES1   0.0000
    13 C5      -5.3521   0.5536  -0.4635   C.3       1 RES1   0.0000
    14 C6      -4.3651  -0.2017   0.4125   C.3       1 RES1   0.0000
    15 C7      -4.4204  -1.7020   0.2105   C.3       1 RES1   0.0000
    16 C8      -0.4689   4.0221   0.8645   C.3       1 RES1   0.0000
    17 C9      -4.1500   4.6980  -1.8113   C.3       1 RES1   0.0000
    18 C10     -7.7342   0.6655  -0.8589   C.2       1 RES1   0.0000
    19 C11     -9.0983   0.2886  -0.3549   C.3       1 RES1   0.0000
    20 H1      -2.0733   3.1355  -2.5548   H         1 RES1   0.0000
    21 H2      -1.5750   4.2452  -1.5658   H         1 RES1   0.0000
    22 H3      -3.3665   3.8068  -0.0757   H         1 RES1   0.0000
    23 H4      -5.1838   0.2757  -1.3988   H         1 RES1   0.0000
    24 H5      -3.5227   0.1147   0.1538   H         1 RES1   0.0000
    25 H6      -4.5599   0.0034   1.3471   H         1 RES1   0.0000
    26 H7      -4.3780  -1.9043  -0.7883   H         1 RES1   0.0000
    27 H8      -5.2460  -2.0618   0.5432   H         1 RES1   0.0000
    28 H9      -0.3174   3.9336   1.8218   H         1 RES1   0.0000
    29 H10     -1.2695   4.5518   0.7463   H         1 RES1   0.0000
    30 H11     -4.1871   4.4713  -2.7759   H         1 RES1   0.0000
    31 H12     -5.0216   4.8172  -1.4324   H         1 RES1   0.0000
    32 H13     -3.6592   5.5159  -1.6692   H         1 RES1   0.0000
    33 H14     -6.8972  -0.1884   0.5372   H         1 RES1   0.0000
    34 H15     -9.7219   0.4846  -1.0178   H         1 RES1   0.0000
    35 H16     -9.1860  -0.7141  -0.0565   H         1 RES1   0.0000
    36 H17     -9.2305   0.8083   0.4062   H         1 RES1   0.0000
    37 O1C     -1.4300  -0.8838   1.0141   O.3       1 RES1   0.0000
    38 O1D      1.4804  -0.7965   1.0141   O.3       1 RES1   0.0000
    39 O2C     -0.4284  -1.6027  -1.2201   O.2       1 RES1   0.0000
    40 O2D      1.6022   0.4303  -1.2201   O.2       1 RES1   0.0000
    41 C8C     -3.2488  -2.4172   0.8645   C.3       1 RES1   0.0000
    42 C7D      0.7362   4.6792   0.2105   C.3       1 RES1   0.0000
    43 N1C     -1.9724  -1.9452   0.3431   N.am      1 RES1   0.0000
    44 N1D      2.6708  -0.7355   0.3431   N.am      1 RES1   0.0000
    45 C1C     -1.4223  -2.2776  -0.8054   C.2       1 RES1   0.0000
    46 C1D      2.6836  -0.0930  -0.8054   C.2       1 RES1   0.0000
    47 H9C     -3.2479  -2.2416   1.8218   H         1 RES1   0.0000
    48 H10C    -3.3072  -3.3753   0.7463   H         1 RES1   0.0000
    49 C6D      2.0079   3.8812   0.4125   C.3       1 RES1   0.0000
    50 H7D      0.5398   4.7436  -0.7883   H         1 RES1   0.0000
    51 H8D      0.8374   5.5741   0.5432   H         1 RES1   0.0000
    52 C8D      3.7177  -1.6049   0.8645   C.3       1 RES1   0.0000
    53 C2C     -1.9463  -3.4512  -1.5766   C.3       1 RES1   0.0000
    54 C2D      3.9619   0.0401  -1.5766   C.3       1 RES1   0.0000
    55 C5D      3.1555   4.3583  -0.4635   C.3       1 RES1   0.0000
    56 H5D      1.8607   2.9934   0.1538   H         1 RES1   0.0000
    57 H6D      2.2829   3.9473   1.3471   H         1 RES1   0.0000
    58 C7C      3.6842  -2.9771   0.2105   C.3       1 RES1   0.0000
    59 H9D      3.5653  -1.6919   1.8218   H         1 RES1   0.0000
    60 H10D     4.5767  -1.1765   0.7463   H         1 RES1   0.0000
    61 C3C     -1.4498  -4.7775  -1.0311   C.3       1 RES1   0.0000
    62 H1C     -1.6788  -3.3633  -2.5548   H         1 RES1   0.0000
    63 H2C     -2.8890  -3.4866  -1.5658   H         1 RES1   0.0000
    64 C3D      4.8623   1.1331  -1.0311   C.3       1 RES1   0.0000
    65 H1D      3.7521   0.2278  -2.5548   H         1 RES1   0.0000
    66 H2D      4.4640  -0.7586  -1.5658   H         1 RES1   0.0000
    67 N2D      3.5691   5.6894  -0.1078   N.am      1 RES1   0.0000
    68 C4D      4.2858   3.3578  -0.3265   C.2       1 RES1   0.0000
    69 H4D      2.8306   4.3514  -1.3988   H         1 RES1   0.0000
    70 C6C      2.3573  -3.6794   0.4125   C.3       1 RES1   0.0000
    71 H7C      3.8381  -2.8393  -0.7883   H         1 RES1   0.0000
    72 H8C      4.4086  -3.5123   0.5432   H         1 RES1   0.0000
    73 O3C     -0.0006  -4.6977  -1.1747   O.3       1 RES1   0.0000
    74 C9C     -1.9936  -5.9430  -1.8113   C.3       1 RES1   0.0000
    75 H3C     -1.6136  -4.8189  -0.0757   H         1 RES1   0.0000
    76 O3D      4.0686   2.3483  -1.1747   O.3       1 RES1   0.0000
    77 C9D      6.1436   1.2450  -1.8113   C.3       1 RES1   0.0000
    78 H3D      4.9801   1.0121  -0.0757   H         1 RES1   0.0000
    79 C10D     4.4434   6.3653  -0.8589   C.2       1 RES1   0.0000
    80 H14D     3.2855   6.0673   0.5372   H         1 RES1   0.0000
    81 O4D      5.1776   3.4113   0.4713   O.2       1 RES1   0.0000
    82 C5C      2.1966  -4.9119  -0.4635   C.3       1 RES1   0.0000
    83 H5C      1.6620  -3.1081   0.1538   H         1 RES1   0.0000
    84 H6C      2.2770  -3.9507   1.3471   H         1 RES1   0.0000
    85 C4C      0.7651  -5.3905  -0.3265   C.2       1 RES1   0.0000
    86 H11C    -1.7787  -5.8618  -2.7759   H         1 RES1   0.0000
    87 H12C    -1.6610  -6.7574  -1.4324   H         1 RES1   0.0000
    88 H13C    -2.9473  -5.9269  -1.6692   H         1 RES1   0.0000
    89 H11D     5.9658   1.3905  -2.7759   H         1 RES1   0.0000
    90 H12D     6.6826   1.9402  -1.4324   H         1 RES1   0.0000
    91 H13D     6.6065   0.4110  -1.6692   H         1 RES1   0.0000
    92 O5D      4.9161   5.8870  -1.8881   O.2       1 RES1   0.0000
    93 C11D     4.7991   7.7351  -0.3549   C.3       1 RES1   0.0000
    94 N2C      3.1426  -5.9356  -0.1078   N.am      1 RES1   0.0000
    95 H4C      2.3531  -4.6271  -1.3988   H         1 RES1   0.0000
    96 O4C      0.3654  -6.1896   0.4713   O.2       1 RES1   0.0000
    97 H15D     5.2806   8.1771  -1.0178   H         1 RES1   0.0000
    98 H16D     3.9746   8.3124  -0.0565   H         1 RES1   0.0000
    99 H17D     5.3153   7.5897   0.4062   H         1 RES1   0.0000
   100 C10C     3.2908  -7.0308  -0.8589   C.2       1 RES1   0.0000
   101 H14C     3.6117  -5.8789   0.5372   H         1 RES1   0.0000
   102 O5C      2.6402  -7.2010  -1.8881   O.2       1 RES1   0.0000
   103 C11C     4.2993  -8.0236  -0.3549   C.3       1 RES1   0.0000
   104 H15C     4.4412  -8.6617  -1.0178   H         1 RES1   0.0000
   105 H16C     5.2114  -7.5983  -0.0565   H         1 RES1   0.0000
   106 H17C     3.9153  -8.3980   0.4062   H         1 RES1   0.0000
   107 N3       4.5247   0.9155   2.9777   N.1       2 RES2   0.0000
   108 C12      2.1079   1.5251   3.6291   C.3       2 RES2   0.0000
   109 C13      3.4608   1.1720   3.2641   C.1       2 RES2   0.0000
   110 H18      1.8093   0.7877   4.2324   H         2 RES2   0.0000
   111 H19      2.0516   2.4026   4.0557   H         2 RES2   0.0000
   112 H20      1.5740   1.5789   2.8528   H         2 RES2   0.0000
   113 N4       2.2655  -0.5884  -5.8577   N.1       3 RES3   0.0000
   114 C14      1.3311  -1.8791  -3.8817   C.3       3 RES3   0.0000
   115 C15      1.8573  -1.1496  -4.9919   C.1       3 RES3   0.0000
   116 H21      2.0249  -2.4899  -3.4357   H         3 RES3   0.0000
   117 H22      0.9798  -1.2484  -3.2422   H         3 RES3   0.0000
   118 H23      0.3994  -2.4523  -4.2564   H         3 RES3   0.0000
@<TRIPOS>BOND
     1     1     2    1
     2     2     7    1
     3     3     1    1
     4     4    11    1
     5     5    12    2
     6     6    18    2
     7     7     9   am
     8     8    13    1
     9     9     3    2
    10    10     9    1
    11    11    10    1
    12    12     4    1
    13    13    12    1
    14    14    13    1
    15    15    14    1
    16    16     7    1
    17    17    11    1
    18    18     8   am
    19    19    18    1
    20    20    10    1
    21    21    10    1
    22    22    11    1
    23    23    13    1
    24    24    14    1
    25    25    14    1
    26    26    15    1
    27    27    15    1
    28    28    16    1
    29    29    16    1
    30    30    17    1
    31    31    17    1
    32    32    17    1
    33    33     8    1
    34    34    19    1
    35    35    19    1
    36    36    19    1
    37    37     1    1
    38    38     1    1
    39    39     1    1
    40    40     1    1
    41    41    15    1
    42    42    16    1
    43    43    37    1
    44    44    38    1
    45    45    39    2
    46    46    40    2
    47    47    41    1
    48    48    41    1
    49    49    42    1
    50    50    42    1
    51    51    42    1
    52    52    44    1
    53    53    45    1
    54    54    46    1
    55    55    49    1
    56    56    49    1
    57    57    49    1
    58    58    52    1
    59    59    52    1
    60    60    52    1
    61    61    53    1
    62    62    53    1
    63    63    53    1
    64    64    54    1
    65    65    54    1
    66    66    54    1
    67    67    55    1
    68    68    55    1
    69    69    55    1
    70    70    58    1
    71    71    58    1
    72    72    58    1
    73    73    61    1
    74    74    61    1
    75    75    61    1
    76    76    64    1
    77    77    64    1
    78    78    64    1
    79    79    67   am
    80    80    67    1
    81    81    68    2
    82    82    70    1
    83    83    70    1
    84    84    70    1
    85    85    73    1
    86    86    74    1
    87    87    74    1
    88    88    74    1
    89    89    77    1
    90    90    77    1
    91    91    77    1
    92    92    79    2
    93    93    79    1
    94    94    82    1
    95    95    82    1
    96    96    85    2
    97    97    93    1
    98    98    93    1
    99    99    93    1
   100   100    94   am
   101   101    94    1
   102   102   100    2
   103   103   100    1
   104   104   103    1
   105   105   103    1
   106   106   103    1
   107    41    43    1
   108    43    45   am
   109    44    46   am
   110    68    76    1
   111    82    85    1
   112   107   109    3
   113   108   109    1
   114   110   108    1
   115   111   108    1
   116   112   108    1
   117   113   115    3
   118   114   115    1
   119   116   114    1
   120   117   114    1
   121   118   114    1
@<TRIPOS>SUBSTRUCTURE
     1 RES1        1 GROUP             0 ****  ****    0  
     2 RES2      107 GROUP             0 ****  ****    0  
     3 RES3      113 GROUP             0 ****  ****    0  
@<TRIPOS>CRYSIN
   19.7740   19.7740   12.0170   90.0000   90.0000  120.0000   232     1
