@<TRIPOS>MOLECULE
CEVQOK
   243   268     2     0     0
SMALL
USER_CHARGES
****
Generated from the CSD

@<TRIPOS>ATOM
     1 Fe1      5.9867   7.8251   2.0335   Fe        1 RES1   0.0000
     2 Fe2      7.6882   5.6723   3.4722   Fe        1 RES1   0.0000
     3 Fe3      8.5498   8.5498   3.6511   Fe        1 RES1   0.0000
     4 Fe4      9.1414   6.6020   0.8350   Fe        1 RES1   0.0000
     5 Cl1      3.7363   8.4318   2.2625   Cl        1 RES1   0.0000
     6 Cl2      7.6042   3.8474   4.7689   Cl        1 RES1   0.0000
     7 O1       5.7985   6.0738   3.1646   O.3       1 RES1   0.0000
     8 O2       8.7635   4.9691   2.0102   O.3       1 RES1   0.0000
     9 O3       8.2830   6.9441   4.8299   O.3       1 RES1   0.0000
    10 O4       6.5440   8.9670   3.5409   O.3       1 RES1   0.0000
    11 O5       5.5881   6.8108   0.4142   O.3       1 RES1   0.0000
    12 O6       6.7407   9.0166   0.6813   O.3       1 RES1  -1.0000
    13 O7       7.9855   7.2434   2.2835   O.3       1 RES1   0.0000
    14 C1       4.6083   5.1829   3.3517   C.3       1 RES1   0.0000
    15 H1       3.9432   5.3282   2.6326   H         1 RES1   0.0000
    16 H2       4.8768   4.2304   3.3517   H         1 RES1   0.0000
    17 C2       4.0834   5.5591   4.6112   C.3       1 RES1   0.0000
    18 H3       4.7195   5.3180   5.3156   H         1 RES1   0.0000
    19 H4       3.2335   5.0940   4.7626   H         1 RES1   0.0000
    20 H5       3.9312   6.5286   4.6259   H         1 RES1   0.0000
    21 C3       9.0491   3.5978   1.7284   C.3       1 RES1   0.0000
    22 H6       9.4321   3.1720   2.5359   H         1 RES1   0.0000
    23 H7       9.7245   3.5482   1.0072   H         1 RES1   0.0000
    24 C4       7.7957   2.8214   1.2995   C.3       1 RES1   0.0000
    25 H8       7.2280   2.6607   2.0796   H         1 RES1   0.0000
    26 H9       8.0608   1.9647   0.9042   H         1 RES1   0.0000
    27 H10      7.2981   3.3464   0.6350   H         1 RES1   0.0000
    28 C5       8.4455   6.7492   6.2240   C.3       1 RES1   0.0000
    29 H11      8.9294   7.5170   6.6214   H         1 RES1   0.0000
    30 H12      8.9687   5.9267   6.3943   H         1 RES1   0.0000
    31 C6       7.0502   6.6261   6.8422   C.3       1 RES1   0.0000
    32 H13      6.3953   7.0656   6.2597   H         1 RES1   0.0000
    33 H14      7.0450   7.0553   7.7232   H         1 RES1   0.0000
    34 H15      6.8176   5.6805   6.9389   H         1 RES1   0.0000
    35 C7       5.7044   9.4356   4.5734   C.3       1 RES1   0.0000
    36 H16      6.1627   9.3518   5.4481   H         1 RES1   0.0000
    37 H17      4.8734   8.8969   4.6049   H         1 RES1   0.0000
    38 C8       5.3693  10.8873   4.3021   C.3       1 RES1   0.0000
    39 H18      6.1935  11.4157   4.2916   H         1 RES1   0.0000
    40 H19      4.7759  11.2225   5.0065   H         1 RES1   0.0000
    41 H20      4.9196  10.9626   3.4358   H         1 RES1   0.0000
    42 C9       5.1299   5.5505   0.1871   C.3       1 RES1   0.0000
    43 H21      4.2475   5.5146   0.6371   H         1 RES1   0.0000
    44 H22      5.7267   4.9623   0.7149   H         1 RES1   0.0000
    45 C10      4.9401   4.8597  -1.0766   C.3       1 RES1   0.0000
    46 H23      3.9910   4.6408  -1.1880   H         1 RES1   0.0000
    47 H24      5.4685   4.0338  -1.0787   H         1 RES1   0.0000
    48 H25      5.2308   5.4377  -1.8125   H         1 RES1   0.0000
    49 Fe1C     9.2745   5.9867  -2.0335   Fe        1 RES1   0.0000
    50 Fe1A    11.1129   9.2745   2.0335   Fe        1 RES1   0.0000
    51 Fe1B     7.8251  11.1129  -2.0335   Fe        1 RES1   0.0000
    52 Fe2C    11.4273   7.6882  -3.4722   Fe        1 RES1   0.0000
    53 Fe2A     9.4114  11.4273   3.4722   Fe        1 RES1   0.0000
    54 Fe2B     5.6723   9.4114  -3.4722   Fe        1 RES1   0.0000
    55 Fe3B     8.5498   8.5498  -3.6511   Fe        1 RES1   0.0000
    56 Fe4C    10.4976   9.1414  -0.8350   Fe        1 RES1   0.0000
    57 Fe4A     7.9582  10.4976   0.8350   Fe        1 RES1   0.0000
    58 Fe4B     6.6020   7.9582  -0.8350   Fe        1 RES1   0.0000
    59 Cl1C     8.6678   3.7363  -2.2625   Cl        1 RES1   0.0000
    60 Cl1A    13.3633   8.6678   2.2625   Cl        1 RES1   0.0000
    61 Cl1B     8.4318  13.3633  -2.2625   Cl        1 RES1   0.0000
    62 Cl2C    13.2522   7.6042  -4.7689   Cl        1 RES1   0.0000
    63 Cl2A     9.4954  13.2522   4.7689   Cl        1 RES1   0.0000
    64 Cl2B     3.8474   9.4954  -4.7689   Cl        1 RES1   0.0000
    65 O1C     11.0258   5.7985  -3.1646   O.3       1 RES1   0.0000
    66 O1A     11.3011  11.0258   3.1646   O.3       1 RES1   0.0000
    67 O1B      6.0738  11.3011  -3.1646   O.3       1 RES1   0.0000
    68 O2C     12.1305   8.7635  -2.0102   O.3       1 RES1   0.0000
    69 O2A      8.3361  12.1305   2.0102   O.3       1 RES1   0.0000
    70 O2B      4.9691   8.3361  -2.0102   O.3       1 RES1   0.0000
    71 O3B      6.9441   8.8166  -4.8299   O.3       1 RES1   0.0000
    72 O3C     10.1555   8.2830  -4.8299   O.3       1 RES1   0.0000
    73 O3A      8.8166  10.1555   4.8299   O.3       1 RES1   0.0000
    74 O4B      8.9670  10.5556  -3.5409   O.3       1 RES1   0.0000
    75 O4C      8.1326   6.5440  -3.5409   O.3       1 RES1   0.0000
    76 O4A     10.5556   8.1326   3.5409   O.3       1 RES1   0.0000
    77 O5C     10.2888   5.5881  -0.4142   O.3       1 RES1   0.0000
    78 O5A     11.5115  10.2888   0.4142   O.3       1 RES1   0.0000
    79 O5B      6.8108  11.5115  -0.4142   O.3       1 RES1   0.0000
    80 O6B      9.0166  10.3589  -0.6813   O.3       1 RES1   0.0000
    81 O6A     10.3589   8.0830   0.6813   O.3       1 RES1   0.0000
    82 O6C      8.0830   6.7407  -0.6813   O.3       1 RES1  -1.0000
    83 O7B      7.2434   9.1141  -2.2835   O.3       1 RES1   0.0000
    84 O7C      9.8562   7.9855  -2.2835   O.3       1 RES1   0.0000
    85 O7A      9.1141   9.8562   2.2835   O.3       1 RES1   0.0000
    86 C1B      5.1829  12.4913  -3.3517   C.3       1 RES1   0.0000
    87 C1A     12.4913  11.9167   3.3517   C.3       1 RES1   0.0000
    88 C1C     11.9167   4.6083  -3.3517   C.3       1 RES1   0.0000
    89 H1B      5.3282  13.1564  -2.6326   H         1 RES1   0.0000
    90 H1A     13.1564  11.7714   2.6326   H         1 RES1   0.0000
    91 H1C     11.7714   3.9432  -2.6326   H         1 RES1   0.0000
    92 H2B      4.2304  12.2228  -3.3517   H         1 RES1   0.0000
    93 H2A     12.2228  12.8692   3.3517   H         1 RES1   0.0000
    94 H2C     12.8692   4.8768  -3.3517   H         1 RES1   0.0000
    95 C2B      5.5591  13.0162  -4.6112   C.3       1 RES1   0.0000
    96 C2A     13.0162  11.5405   4.6112   C.3       1 RES1   0.0000
    97 C2C     11.5405   4.0834  -4.6112   C.3       1 RES1   0.0000
    98 H3B      5.3180  12.3801  -5.3156   H         1 RES1   0.0000
    99 H3A     12.3801  11.7816   5.3156   H         1 RES1   0.0000
   100 H3C     11.7816   4.7195  -5.3156   H         1 RES1   0.0000
   101 H4B      5.0940  13.8661  -4.7626   H         1 RES1   0.0000
   102 H4A     13.8661  12.0056   4.7626   H         1 RES1   0.0000
   103 H4C     12.0056   3.2335  -4.7626   H         1 RES1   0.0000
   104 H5B      6.5286  13.1684  -4.6259   H         1 RES1   0.0000
   105 H5A     13.1684  10.5710   4.6259   H         1 RES1   0.0000
   106 H5C     10.5710   3.9312  -4.6259   H         1 RES1   0.0000
   107 C3B      3.5978   8.0505  -1.7284   C.3       1 RES1   0.0000
   108 C3A      8.0505  13.5018   1.7284   C.3       1 RES1   0.0000
   109 C3C     13.5018   9.0491  -1.7284   C.3       1 RES1   0.0000
   110 H6B      3.1720   7.6675  -2.5359   H         1 RES1   0.0000
   111 H6A      7.6675  13.9276   2.5359   H         1 RES1   0.0000
   112 H6C     13.9276   9.4321  -2.5359   H         1 RES1   0.0000
   113 H7B      3.5482   7.3751  -1.0072   H         1 RES1   0.0000
   114 H7A      7.3751  13.5514   1.0072   H         1 RES1   0.0000
   115 H7C     13.5514   9.7245  -1.0072   H         1 RES1   0.0000
   116 C4B      2.8214   9.3039  -1.2995   C.3       1 RES1   0.0000
   117 C4A      9.3039  14.2782   1.2995   C.3       1 RES1   0.0000
   118 C4C     14.2782   7.7957  -1.2995   C.3       1 RES1   0.0000
   119 H8B      2.6607   9.8716  -2.0796   H         1 RES1   0.0000
   120 H8A      9.8716  14.4389   2.0796   H         1 RES1   0.0000
   121 H8C     14.4389   7.2280  -2.0796   H         1 RES1   0.0000
   122 H9B      1.9647   9.0388  -0.9042   H         1 RES1   0.0000
   123 H9A      9.0388  15.1349   0.9042   H         1 RES1   0.0000
   124 H9C     15.1349   8.0608  -0.9042   H         1 RES1   0.0000
   125 H10B     3.3464   9.8015  -0.6350   H         1 RES1   0.0000
   126 H10A     9.8015  13.7532   0.6350   H         1 RES1   0.0000
   127 H10C    13.7532   7.2981  -0.6350   H         1 RES1   0.0000
   128 C5A      8.6541  10.3504   6.2240   C.3       1 RES1   0.0000
   129 C5C     10.3504   8.4455  -6.2240   C.3       1 RES1   0.0000
   130 C5B      6.7492   8.6541  -6.2240   C.3       1 RES1   0.0000
   131 H11A     8.1702   9.5826   6.6214   H         1 RES1   0.0000
   132 H11C     9.5826   8.9294  -6.6214   H         1 RES1   0.0000
   133 H11B     7.5170   8.1702  -6.6214   H         1 RES1   0.0000
   134 H12A     8.1309  11.1729   6.3943   H         1 RES1   0.0000
   135 H12C    11.1729   8.9687  -6.3943   H         1 RES1   0.0000
   136 H12B     5.9267   8.1309  -6.3943   H         1 RES1   0.0000
   137 C6A     10.0494  10.4735   6.8422   C.3       1 RES1   0.0000
   138 C6C     10.4735   7.0502  -6.8422   C.3       1 RES1   0.0000
   139 C6B      6.6261  10.0494  -6.8422   C.3       1 RES1   0.0000
   140 H13A    10.7043  10.0340   6.2597   H         1 RES1   0.0000
   141 H13C    10.0340   6.3953  -6.2597   H         1 RES1   0.0000
   142 H13B     7.0656  10.7043  -6.2597   H         1 RES1   0.0000
   143 H14A    10.0546  10.0443   7.7232   H         1 RES1   0.0000
   144 H14C    10.0443   7.0450  -7.7232   H         1 RES1   0.0000
   145 H14B     7.0553  10.0546  -7.7232   H         1 RES1   0.0000
   146 H15A    10.2820  11.4191   6.9389   H         1 RES1   0.0000
   147 H15C    11.4191   6.8176  -6.9389   H         1 RES1   0.0000
   148 H15B     5.6805  10.2820  -6.9389   H         1 RES1   0.0000
   149 C7A     11.3952   7.6640   4.5734   C.3       1 RES1   0.0000
   150 C7C      7.6640   5.7044  -4.5734   C.3       1 RES1   0.0000
   151 C7B      9.4356  11.3952  -4.5734   C.3       1 RES1   0.0000
   152 H16A    10.9369   7.7478   5.4481   H         1 RES1   0.0000
   153 H16C     7.7478   6.1627  -5.4481   H         1 RES1   0.0000
   154 H16B     9.3518  10.9369  -5.4481   H         1 RES1   0.0000
   155 H17A    12.2262   8.2027   4.6049   H         1 RES1   0.0000
   156 H17C     8.2027   4.8734  -4.6049   H         1 RES1   0.0000
   157 H17B     8.8969  12.2262  -4.6049   H         1 RES1   0.0000
   158 C8A     11.7303   6.2123   4.3021   C.3       1 RES1   0.0000
   159 C8C      6.2123   5.3693  -4.3021   C.3       1 RES1   0.0000
   160 C8B     10.8873  11.7303  -4.3021   C.3       1 RES1   0.0000
   161 H18A    10.9061   5.6839   4.2916   H         1 RES1   0.0000
   162 H18C     5.6839   6.1935  -4.2916   H         1 RES1   0.0000
   163 H18B    11.4157  10.9061  -4.2916   H         1 RES1   0.0000
   164 H19A    12.3237   5.8771   5.0065   H         1 RES1   0.0000
   165 H19C     5.8771   4.7759  -5.0065   H         1 RES1   0.0000
   166 H19B    11.2225  12.3237  -5.0065   H         1 RES1   0.0000
   167 H20A    12.1800   6.1370   3.4358   H         1 RES1   0.0000
   168 H20C     6.1370   4.9196  -3.4358   H         1 RES1   0.0000
   169 H20B    10.9626  12.1800  -3.4358   H         1 RES1   0.0000
   170 C9B      5.5505  11.9697  -0.1871   C.3       1 RES1   0.0000
   171 C9A     11.9697  11.5491   0.1871   C.3       1 RES1   0.0000
   172 C9C     11.5491   5.1299  -0.1871   C.3       1 RES1   0.0000
   173 H21B     5.5146  12.8521  -0.6371   H         1 RES1   0.0000
   174 H21A    12.8521  11.5850   0.6371   H         1 RES1   0.0000
   175 H21C    11.5850   4.2475  -0.6371   H         1 RES1   0.0000
   176 H22B     4.9623  11.3729  -0.7149   H         1 RES1   0.0000
   177 H22A    11.3729  12.1373   0.7149   H         1 RES1   0.0000
   178 H22C    12.1373   5.7267  -0.7149   H         1 RES1   0.0000
   179 C10B     4.8597  12.1595   1.0766   C.3       1 RES1   0.0000
   180 C10A    12.1595  12.2399  -1.0766   C.3       1 RES1   0.0000
   181 C10C    12.2399   4.9401   1.0766   C.3       1 RES1   0.0000
   182 H23B     4.6408  13.1086   1.1880   H         1 RES1   0.0000
   183 H23A    13.1086  12.4588  -1.1880   H         1 RES1   0.0000
   184 H23C    12.4588   3.9910   1.1880   H         1 RES1   0.0000
   185 H24B     4.0338  11.6311   1.0787   H         1 RES1   0.0000
   186 H24A    11.6311  13.0658  -1.0787   H         1 RES1   0.0000
   187 H24C    13.0658   5.4685   1.0787   H         1 RES1   0.0000
   188 H25B     5.4377  11.8688   1.8125   H         1 RES1   0.0000
   189 H25A    11.8688  11.6619  -1.8125   H         1 RES1   0.0000
   190 H25C    11.6619   5.2308   1.8125   H         1 RES1   0.0000
   191 N1       8.5498  17.0996   6.0369   N.4       2 RES2   1.0000
   192 C11      7.3528  17.4912   5.1516   C.3       2 RES2   0.0000
   193 H26      6.5833  17.6690   5.7509   H         2 RES2   0.0000
   194 H27      7.5768  18.3462   4.7058   H         2 RES2   0.0000
   195 C12      6.9031  16.5558   4.1171   C.3       2 RES2   0.0000
   196 H28      6.7167  15.6838   4.5460   H         2 RES2   0.0000
   197 H29      7.6469  16.4173   3.4800   H         2 RES2   0.0000
   198 C13      5.7027  16.9628   3.3496   C.3       2 RES2   0.0000
   199 H30      5.9182  17.7767   2.8302   H         2 RES2   0.0000
   200 H31      4.9811  17.1954   3.9867   H         2 RES2   0.0000
   201 C14      5.1914  15.8907   2.3971   C.3       2 RES2   0.0000
   202 H32      5.9216  15.5965   1.8125   H         2 RES2   0.0000
   203 H33      4.4647  16.2600   1.8525   H         2 RES2   0.0000
   204 H34      4.8563  15.1280   2.9122   H         2 RES2   0.0000
   205 C15      8.1582  15.9420   6.8212   C.3       2 RES2   0.0000
   206 H35      7.3203  16.1660   7.2985   H         2 RES2   0.0000
   207 H36      7.9530  15.2050   6.1967   H         2 RES2   0.0000
   208 C16      9.1449  15.4307   7.8347   C.3       2 RES2   0.0000
   209 H37      9.3637  16.1506   8.4802   H         2 RES2   0.0000
   210 H38      9.9827  15.1639   7.3784   H         2 RES2   0.0000
   211 C17      8.5720  14.2542   8.5643   C.3       2 RES2   0.0000
   212 H39      7.7718  14.5518   9.0668   H         2 RES2   0.0000
   213 H40      8.2762  13.5822   7.9019   H         2 RES2   0.0000
   214 C18      9.4886  13.6250   9.4853   C.3       2 RES2   0.0000
   215 H41      9.9349  12.8743   9.0416   H         2 RES2   0.0000
   216 H42      8.9944  13.2949  10.2654   H         2 RES2   0.0000
   217 H43     10.1606  14.2765   9.7776   H         2 RES2   0.0000
   218 C11A     9.7468  16.7080   5.1516   C.3       2 RES2   0.0000
   219 H26A    10.5163  16.5302   5.7509   H         2 RES2   0.0000
   220 H27A     9.5228  15.8530   4.7058   H         2 RES2   0.0000
   221 C12A    10.1965  17.6434   4.1171   C.3       2 RES2   0.0000
   222 H28A    10.3829  18.5154   4.5460   H         2 RES2   0.0000
   223 H29A     9.4527  17.7819   3.4800   H         2 RES2   0.0000
   224 C13A    11.3969  17.2364   3.3496   C.3       2 RES2   0.0000
   225 H30A    11.1814  16.4225   2.8302   H         2 RES2   0.0000
   226 H31A    12.1185  17.0038   3.9867   H         2 RES2   0.0000
   227 C14A    11.9082  18.3085   2.3971   C.3       2 RES2   0.0000
   228 H32A    11.1780  18.6027   1.8125   H         2 RES2   0.0000
   229 H33A    12.6349  17.9392   1.8525   H         2 RES2   0.0000
   230 H34A    12.2433  19.0712   2.9122   H         2 RES2   0.0000
   231 C15A     8.9414  18.2572   6.8212   C.3       2 RES2   0.0000
   232 H35A     9.7793  18.0332   7.2985   H         2 RES2   0.0000
   233 H36A     9.1466  18.9942   6.1967   H         2 RES2   0.0000
   234 C16A     7.9547  18.7685   7.8347   C.3       2 RES2   0.0000
   235 H37A     7.7359  18.0486   8.4802   H         2 RES2   0.0000
   236 H38A     7.1169  19.0353   7.3784   H         2 RES2   0.0000
   237 C17A     8.5276  19.9450   8.5643   C.3       2 RES2   0.0000
   238 H39A     9.3278  19.6474   9.0668   H         2 RES2   0.0000
   239 H40A     8.8234  20.6170   7.9019   H         2 RES2   0.0000
   240 C18A     7.6110  20.5742   9.4853   C.3       2 RES2   0.0000
   241 H41A     7.1647  21.3249   9.0416   H         2 RES2   0.0000
   242 H42A     8.1052  20.9043  10.2654   H         2 RES2   0.0000
   243 H43A     6.9390  19.9227   9.7776   H         2 RES2   0.0000
@<TRIPOS>BOND
     1     1     5    1
     2     2     6    1
     3     3     9    1
     4     4     8    1
     5     7     1    1
     6     8     2    1
     7     9     2    1
     8    10     1    1
     9    11     1    1
    10    12     1    1
    11    13     1    1
    12    14     7    1
    13    15    14    1
    14    16    14    1
    15    17    14    1
    16    18    17    1
    17    19    17    1
    18    20    17    1
    19    21     8    1
    20    22    21    1
    21    23    21    1
    22    24    21    1
    23    25    24    1
    24    26    24    1
    25    27    24    1
    26    28     9    1
    27    29    28    1
    28    30    28    1
    29    31    28    1
    30    32    31    1
    31    33    31    1
    32    34    31    1
    33    35    10    1
    34    36    35    1
    35    37    35    1
    36    38    35    1
    37    39    38    1
    38    40    38    1
    39    41    38    1
    40    42    11    1
    41    43    42    1
    42    44    42    1
    43    45    42    1
    44    46    45    1
    45    47    45    1
    46    48    45    1
    47    49    59    1
    48    50    60    1
    49    51    61    1
    50    52    62    1
    51    53    63    1
    52    54    64    1
    53    55    71    1
    54    56    68    1
    55    57    12    1
    56    58    11    1
    57    65    49    1
    58    66    50    1
    59    67    51    1
    60    68    52    1
    61    69    53    1
    62    70    54    1
    63    71    54    1
    64    72    52    1
    65    73     3    1
    66    74    51    1
    67    75    49    1
    68    76     3    1
    69    77     4    1
    70    78    50    1
    71    79    51    1
    72    80    51    1
    73    81     4    1
    74    82     4    1
    75    83    51    1
    76    84    49    1
    77    85     3    1
    78    86    67    1
    79    87    66    1
    80    88    65    1
    81    89    86    1
    82    90    87    1
    83    91    88    1
    84    92    86    1
    85    93    87    1
    86    94    88    1
    87    95    86    1
    88    96    87    1
    89    97    88    1
    90    98    95    1
    91    99    96    1
    92   100    97    1
    93   101    95    1
    94   102    96    1
    95   103    97    1
    96   104    95    1
    97   105    96    1
    98   106    97    1
    99   107    70    1
   100   108    69    1
   101   109    68    1
   102   110   107    1
   103   111   108    1
   104   112   109    1
   105   113   107    1
   106   114   108    1
   107   115   109    1
   108   116   107    1
   109   117   108    1
   110   118   109    1
   111   119   116    1
   112   120   117    1
   113   121   118    1
   114   122   116    1
   115   123   117    1
   116   124   118    1
   117   125   116    1
   118   126   117    1
   119   127   118    1
   120   128    73    1
   121   129    72    1
   122   130    71    1
   123   131   128    1
   124   132   129    1
   125   133   130    1
   126   134   128    1
   127   135   129    1
   128   136   130    1
   129   137   128    1
   130   138   129    1
   131   139   130    1
   132   140   137    1
   133   141   138    1
   134   142   139    1
   135   143   137    1
   136   144   138    1
   137   145   139    1
   138   146   137    1
   139   147   138    1
   140   148   139    1
   141   149    76    1
   142   150    75    1
   143   151    74    1
   144   152   149    1
   145   153   150    1
   146   154   151    1
   147   155   149    1
   148   156   150    1
   149   157   151    1
   150   158   149    1
   151   159   150    1
   152   160   151    1
   153   161   158    1
   154   162   159    1
   155   163   160    1
   156   164   158    1
   157   165   159    1
   158   166   160    1
   159   167   158    1
   160   168   159    1
   161   169   160    1
   162   170    79    1
   163   171    78    1
   164   172    77    1
   165   173   170    1
   166   174   171    1
   167   175   172    1
   168   176   170    1
   169   177   171    1
   170   178   172    1
   171   179   170    1
   172   180   171    1
   173   181   172    1
   174   182   179    1
   175   183   180    1
   176   184   181    1
   177   185   179    1
   178   186   180    1
   179   187   181    1
   180   188   179    1
   181   189   180    1
   182   190   181    1
   183     2     7    1
   184     2    13    1
   185     3    10    1
   186     3    13    1
   187     4    13    1
   188    12    58    1
   189    49    77    1
   190    49    82    1
   191    50    76    1
   192    50    81    1
   193    50    85    1
   194    52    65    1
   195    52    84    1
   196    53    66    1
   197    53    73    1
   198    53    85    1
   199    54    67    1
   200    54    83    1
   201    55    72    1
   202    55    74    1
   203    55    75    1
   204    55    83    1
   205    55    84    1
   206    56    78    1
   207    56    80    1
   208    56    81    1
   209    56    84    1
   210    57    69    1
   211    57    79    1
   212    57    80    1
   213    57    85    1
   214    58    70    1
   215    58    82    1
   216    58    83    1
   217   191   192    1
   218   192   193    1
   219   194   192    1
   220   195   192    1
   221   196   195    1
   222   197   195    1
   223   198   195    1
   224   199   198    1
   225   200   198    1
   226   201   198    1
   227   202   201    1
   228   203   201    1
   229   204   201    1
   230   205   191    1
   231   206   205    1
   232   207   205    1
   233   208   205    1
   234   209   208    1
   235   210   208    1
   236   211   208    1
   237   212   211    1
   238   213   211    1
   239   214   211    1
   240   215   214    1
   241   216   214    1
   242   217   214    1
   243   218   191    1
   244   219   218    1
   245   220   218    1
   246   221   218    1
   247   222   221    1
   248   223   221    1
   249   224   221    1
   250   225   224    1
   251   226   224    1
   252   227   224    1
   253   228   227    1
   254   229   227    1
   255   230   227    1
   256   231   191    1
   257   232   231    1
   258   233   231    1
   259   234   231    1
   260   235   234    1
   261   236   234    1
   262   237   234    1
   263   238   237    1
   264   239   237    1
   265   240   237    1
   266   241   240    1
   267   242   240    1
   268   243   240    1
@<TRIPOS>SUBSTRUCTURE
     1 RES1        1 GROUP             0 ****  ****    0  
     2 RES2      191 GROUP             0 ****  ****    0  
@<TRIPOS>CRYSIN
   17.0996   17.0996   21.0270   90.0000   90.0000   90.0000   114     1
