@<TRIPOS>MOLECULE
CEVXOT01
   113   128     1     0     0
SMALL
NO_CHARGES
****
Generated from the CSD

@<TRIPOS>ATOM
     1 Fe1      4.6553   4.3562   0.0000   Fe        1 RES1   0.0000
     2 S1       1.9822   0.9939   1.9302   S.2       1 RES1   0.0000
     3 N1       3.7236   2.8731   0.8138   N.2       1 RES1   0.0000
     4 N2       5.9319   4.4582   1.5538   N.ar      1 RES1   0.0000
     5 N3       3.6442   5.5530   1.1817   N.2       1 RES1   0.0000
     6 N4       2.3973   6.1178   1.1877   N.2       1 RES1   0.0000
     7 N5       3.3984   6.5558   3.1013   N.pl3     1 RES1   0.0000
     8 N6       3.8120   7.2051   4.2861   N.2       1 RES1   0.0000
     9 N7       0.8239   7.9123   3.9058   N.ar      1 RES1   0.0000
    10 C1       3.0017   2.1014   1.2721   C.1       1 RES1   0.0000
    11 C2       7.1111   3.8248   1.6747   C.ar      1 RES1   0.0000
    12 H1       7.3988   3.2547   0.9721   H         1 RES1   0.0000
    13 C3       7.9220   3.9719   2.7862   C.ar      1 RES1   0.0000
    14 H2       8.7465   3.5038   2.8413   H         1 RES1   0.0000
    15 C4       7.5262   4.8037   3.8146   C.ar      1 RES1   0.0000
    16 H3       8.0753   4.9165   4.5825   H         1 RES1   0.0000
    17 C5       6.3157   5.4726   3.7100   C.ar      1 RES1   0.0000
    18 H4       6.0206   6.0550   4.4000   H         1 RES1   0.0000
    19 C6       5.5521   5.2695   2.5798   C.ar      1 RES1   0.0000
    20 C7       4.2407   5.8331   2.3199   C.2       1 RES1   0.0000
    21 C8       2.2608   6.7386   2.3385   C.2       1 RES1   0.0000
    22 C9       1.0677   7.5516   2.6378   C.ar      1 RES1   0.0000
    23 C10      0.2505   7.9021   1.5705   C.ar      1 RES1   0.0000
    24 H5       0.4683   7.6365   0.6839   H         1 RES1   0.0000
    25 C11     -0.8851   8.6445   1.8262   C.ar      1 RES1   0.0000
    26 H6      -1.4714   8.8880   1.1188   H         1 RES1   0.0000
    27 C12     -1.1558   9.0263   3.1254   C.ar      1 RES1   0.0000
    28 H7      -1.9292   9.5373   3.3307   H         1 RES1   0.0000
    29 C13     -0.2772   8.6496   4.1186   C.ar      1 RES1   0.0000
    30 H8      -0.4627   8.9278   5.0072   H         1 RES1   0.0000
    31 C14      3.0389   6.9785   5.2824   C.2       1 RES1   0.0000
    32 H9       2.3142   6.3705   5.1965   H         1 RES1   0.0000
    33 C15      3.2811   7.6625   6.5506   C.ar      1 RES1   0.0000
    34 C16      4.5174   8.2795   6.7762   C.ar      1 RES1   0.0000
    35 H10      5.1937   8.2230   6.1106   H         1 RES1   0.0000
    36 C17      4.7746   8.9627   7.9368   C.ar      1 RES1   0.0000
    37 H11      5.6237   9.3684   8.0650   H         1 RES1   0.0000
    38 C18      3.7970   9.0709   8.9374   C.ar      1 RES1   0.0000
    39 C19      4.0235   9.8016  10.1518   C.ar      1 RES1   0.0000
    40 H12      4.8667  10.2181  10.2906   H         1 RES1   0.0000
    41 C20      3.0776   9.9121  11.0944   C.ar      1 RES1   0.0000
    42 H13      3.2606  10.4073  11.8835   H         1 RES1   0.0000
    43 C21      1.7949   9.2959  10.9331   C.ar      1 RES1   0.0000
    44 C22      0.7891   9.4068  11.9033   C.ar      1 RES1   0.0000
    45 H14      0.9604   9.8845  12.7056   H         1 RES1   0.0000
    46 C23     -0.4487   8.8258  11.7009   C.ar      1 RES1   0.0000
    47 H15     -1.1245   8.9138  12.3628   H         1 RES1   0.0000
    48 C24     -0.7124   8.1196  10.5432   C.ar      1 RES1   0.0000
    49 H16     -1.5673   7.7218  10.4237   H         1 RES1   0.0000
    50 C25      0.2520   7.9806   9.5455   C.ar      1 RES1   0.0000
    51 C26      0.0100   7.2828   8.3168   C.ar      1 RES1   0.0000
    52 H17     -0.8405   6.8834   8.1725   H         1 RES1   0.0000
    53 C27      0.9546   7.1768   7.3621   C.ar      1 RES1   0.0000
    54 H18      0.7489   6.7142   6.5574   H         1 RES1   0.0000
    55 C28      2.2648   7.7431   7.5266   C.ar      1 RES1   0.0000
    56 C29      2.5348   8.4573   8.7327   C.ar      1 RES1   0.0000
    57 C30      1.5327   8.5728   9.7391   C.ar      1 RES1   0.0000
    58 S1A      7.3284   7.7185  -1.9302   S.2       1 RES1   0.0000
    59 N1A      5.5870   5.8393  -0.8138   N.2       1 RES1   0.0000
    60 N2A      3.3786   4.2542  -1.5538   N.ar      1 RES1   0.0000
    61 N3A      5.6664   3.1594  -1.1817   N.2       1 RES1   0.0000
    62 N4A      6.9133   2.5946  -1.1877   N.2       1 RES1   0.0000
    63 N5A      5.9122   2.1566  -3.1013   N.pl3     1 RES1   0.0000
    64 N6A      5.4986   1.5074  -4.2861   N.2       1 RES1   0.0000
    65 N7A      8.4867   0.8001  -3.9058   N.ar      1 RES1   0.0000
    66 C1A      6.3089   6.6110  -1.2721   C.1       1 RES1   0.0000
    67 C2A      2.1995   4.8876  -1.6747   C.ar      1 RES1   0.0000
    68 H1A      1.9118   5.4578  -0.9721   H         1 RES1   0.0000
    69 C3A      1.3886   4.7405  -2.7862   C.ar      1 RES1   0.0000
    70 H2A      0.5641   5.2086  -2.8413   H         1 RES1   0.0000
    71 C4A      1.7844   3.9088  -3.8146   C.ar      1 RES1   0.0000
    72 H3A      1.2353   3.7960  -4.5825   H         1 RES1   0.0000
    73 C5A      2.9949   3.2398  -3.7100   C.ar      1 RES1   0.0000
    74 H4A      3.2899   2.6574  -4.4000   H         1 RES1   0.0000
    75 C6A      3.7585   3.4430  -2.5798   C.ar      1 RES1   0.0000
    76 C7A      5.0699   2.8793  -2.3199   C.2       1 RES1   0.0000
    77 C8A      7.0498   1.9738  -2.3385   C.2       1 RES1   0.0000
    78 C9A      8.2428   1.1608  -2.6378   C.ar      1 RES1   0.0000
    79 C10A     9.0601   0.8103  -1.5705   C.ar      1 RES1   0.0000
    80 H5A      8.8422   1.0759  -0.6839   H         1 RES1   0.0000
    81 C11A    10.1957   0.0679  -1.8262   C.ar      1 RES1   0.0000
    82 H6A     10.7820  -0.1756  -1.1188   H         1 RES1   0.0000
    83 C12A    10.4664  -0.3139  -3.1254   C.ar      1 RES1   0.0000
    84 H7A     11.2398  -0.8249  -3.3307   H         1 RES1   0.0000
    85 C13A     9.5877   0.0629  -4.1186   C.ar      1 RES1   0.0000
    86 H8A      9.7733  -0.2154  -5.0072   H         1 RES1   0.0000
    87 C14A     6.2717   1.7339  -5.2824   C.2       1 RES1   0.0000
    88 H9A      6.9964   2.3420  -5.1965   H         1 RES1   0.0000
    89 C15A     6.0295   1.0499  -6.5506   C.ar      1 RES1   0.0000
    90 C16A     4.7932   0.4330  -6.7762   C.ar      1 RES1   0.0000
    91 H10A     4.1168   0.4895  -6.1106   H         1 RES1   0.0000
    92 C17A     4.5359  -0.2503  -7.9368   C.ar      1 RES1   0.0000
    93 H11A     3.6869  -0.6559  -8.0650   H         1 RES1   0.0000
    94 C18A     5.5136  -0.3585  -8.9374   C.ar      1 RES1   0.0000
    95 C19A     5.2870  -1.0892 -10.1518   C.ar      1 RES1   0.0000
    96 H12A     4.4439  -1.5057 -10.2906   H         1 RES1   0.0000
    97 C20A     6.2330  -1.1997 -11.0944   C.ar      1 RES1   0.0000
    98 H13A     6.0499  -1.6949 -11.8835   H         1 RES1   0.0000
    99 C21A     7.5157  -0.5835 -10.9331   C.ar      1 RES1   0.0000
   100 C22A     8.5215  -0.6943 -11.9033   C.ar      1 RES1   0.0000
   101 H14A     8.3502  -1.1721 -12.7056   H         1 RES1   0.0000
   102 C23A     9.7593  -0.1134 -11.7009   C.ar      1 RES1   0.0000
   103 H15A    10.4350  -0.2014 -12.3628   H         1 RES1   0.0000
   104 C24A    10.0230   0.5928 -10.5432   C.ar      1 RES1   0.0000
   105 H16A    10.8779   0.9906 -10.4237   H         1 RES1   0.0000
   106 C25A     9.0586   0.7318  -9.5455   C.ar      1 RES1   0.0000
   107 C26A     9.3006   1.4297  -8.3168   C.ar      1 RES1   0.0000
   108 H17A    10.1511   1.8290  -8.1725   H         1 RES1   0.0000
   109 C27A     8.3560   1.5356  -7.3621   C.ar      1 RES1   0.0000
   110 H18A     8.5617   1.9982  -6.5574   H         1 RES1   0.0000
   111 C28A     7.0457   0.9693  -7.5266   C.ar      1 RES1   0.0000
   112 C29A     6.7758   0.2551  -8.7327   C.ar      1 RES1   0.0000
   113 C30A     7.7779   0.1396  -9.7391   C.ar      1 RES1   0.0000
@<TRIPOS>BOND
     1     1     3    1
     2     2    10    2
     3     3    10    2
     4     4     1    1
     5     5     1    1
     6     6     5    1
     7     7     8    1
     8     8    31    2
     9     9    22   ar
    10    11     4   ar
    11    12    11    1
    12    13    11   ar
    13    14    13    1
    14    15    13   ar
    15    16    15    1
    16    17    15   ar
    17    18    17    1
    18    19     4   ar
    19    20     5    2
    20    21     6    2
    21    22    21    1
    22    23    22   ar
    23    24    23    1
    24    25    23   ar
    25    26    25    1
    26    27    25   ar
    27    28    27    1
    28    29     9   ar
    29    30    29    1
    30    31    32    1
    31    33    31    1
    32    34    33   ar
    33    35    34    1
    34    36    34   ar
    35    37    36    1
    36    38    36   ar
    37    39    38   ar
    38    40    39    1
    39    41    39   ar
    40    42    41    1
    41    43    41   ar
    42    44    43   ar
    43    45    44    1
    44    46    44   ar
    45    47    46    1
    46    48    46   ar
    47    49    48    1
    48    50    48   ar
    49    51    50   ar
    50    52    51    1
    51    53    51   ar
    52    54    53    1
    53    55    33   ar
    54    56    38   ar
    55    57    43   ar
    56    58    66    2
    57    59     1    1
    58    60     1    1
    59    61     1    1
    60    62    61    1
    61    63    64    1
    62    64    87    2
    63    65    78   ar
    64    66    59    2
    65    67    60   ar
    66    68    67    1
    67    69    67   ar
    68    70    69    1
    69    71    69   ar
    70    72    71    1
    71    73    71   ar
    72    74    73    1
    73    75    60   ar
    74    76    61    2
    75    77    62    2
    76    78    77    1
    77    79    78   ar
    78    80    79    1
    79    81    79   ar
    80    82    81    1
    81    83    81   ar
    82    84    83    1
    83    85    65   ar
    84    86    85    1
    85    87    88    1
    86    89    87    1
    87    90    89   ar
    88    91    90    1
    89    92    90   ar
    90    93    92    1
    91    94    92   ar
    92    95    94   ar
    93    96    95    1
    94    97    95   ar
    95    98    97    1
    96    99    97   ar
    97   100    99   ar
    98   101   100    1
    99   102   100   ar
   100   103   102    1
   101   104   102   ar
   102   105   104    1
   103   106   104   ar
   104   107   106   ar
   105   108   107    1
   106   109   107   ar
   107   110   109    1
   108   111    89   ar
   109   112    94   ar
   110   113    99   ar
   111     7    20    1
   112     7    21    1
   113    17    19   ar
   114    19    20    1
   115    27    29   ar
   116    50    57   ar
   117    53    55   ar
   118    55    56   ar
   119    56    57   ar
   120    63    76    1
   121    63    77    1
   122    73    75   ar
   123    75    76    1
   124    83    85   ar
   125   106   113   ar
   126   109   111   ar
   127   111   112   ar
   128   112   113   ar
@<TRIPOS>SUBSTRUCTURE
     1 RES1        1 GROUP             0 ****  ****    0  
@<TRIPOS>CRYSIN
    7.9450    8.8188   17.5482   77.6650   82.4660   81.0920     2     1
