@<TRIPOS>MOLECULE
CEVXOT
   113   128     1     0     0
SMALL
NO_CHARGES
****
Generated from the CSD

@<TRIPOS>ATOM
     1 Fe1      4.0010   0.0000   0.0000   Fe        1 RES1   0.0000
     2 S1       1.1043  -3.2609   1.9976   S.2       1 RES1   0.0000
     3 N1       2.9797  -1.5274   0.9680   N.2       1 RES1   0.0000
     4 N2       5.3384   0.2546   1.7248   N.ar      1 RES1   0.0000
     5 N3       2.9833   1.3681   1.2674   N.2       1 RES1   0.0000
     6 N4       1.7591   1.9613   1.2648   N.2       1 RES1   0.0000
     7 N5       2.7719   2.4130   3.1588   N.pl3     1 RES1   0.0000
     8 N6       3.1880   3.0568   4.3453   N.2       1 RES1   0.0000
     9 N7       0.2207   3.8351   3.9356   N.ar      1 RES1   0.0000
    10 C1       2.1980  -2.2446   1.3824   C.1       1 RES1   0.0000
    11 C2       6.5239  -0.3354   1.8839   C.ar      1 RES1   0.0000
    12 H1       6.8318  -0.9075   1.2181   H         1 RES1   0.0000
    13 C3       7.3096  -0.1327   2.9925   C.ar      1 RES1   0.0000
    14 H2       8.1283  -0.5651   3.0753   H         1 RES1   0.0000
    15 C4       6.8735   0.7059   3.9630   C.ar      1 RES1   0.0000
    16 H3       7.3895   0.8498   4.7229   H         1 RES1   0.0000
    17 C5       5.6577   1.3476   3.8184   C.ar      1 RES1   0.0000
    18 H4       5.3522   1.9378   4.4687   H         1 RES1   0.0000
    19 C6       4.9116   1.0965   2.6939   C.ar      1 RES1   0.0000
    20 C7       3.5888   1.6504   2.3957   C.2       1 RES1   0.0000
    21 C8       1.6329   2.6073   2.4030   C.2       1 RES1   0.0000
    22 C9       0.4527   3.4418   2.6877   C.ar      1 RES1   0.0000
    23 C10     -0.3663   3.7696   1.6311   C.ar      1 RES1   0.0000
    24 H5      -0.1692   3.4792   0.7697   H         1 RES1   0.0000
    25 C11     -1.4782   4.5295   1.8735   C.ar      1 RES1   0.0000
    26 H6      -2.0533   4.7567   1.1786   H         1 RES1   0.0000
    27 C12     -1.7329   4.9499   3.1432   C.ar      1 RES1   0.0000
    28 H7      -2.4809   5.4694   3.3313   H         1 RES1   0.0000
    29 C13     -0.8707   4.5917   4.1251   C.ar      1 RES1   0.0000
    30 H8      -1.0470   4.8912   4.9875   H         1 RES1   0.0000
    31 C14      2.4157   2.8499   5.3306   C.2       1 RES1   0.0000
    32 H9       1.6967   2.2666   5.2418   H         1 RES1   0.0000
    33 C15      2.6520   3.5263   6.6058   C.ar      1 RES1   0.0000
    34 C16      3.8825   4.1525   6.8274   C.ar      1 RES1   0.0000
    35 H10      4.5425   4.1104   6.1730   H         1 RES1   0.0000
    36 C17      4.1305   4.8250   7.9885   C.ar      1 RES1   0.0000
    37 H11      4.9594   5.2279   8.1144   H         1 RES1   0.0000
    38 C18      3.1641   4.9177   8.9903   C.ar      1 RES1   0.0000
    39 C19      3.3935   5.6485  10.2058   C.ar      1 RES1   0.0000
    40 H12      4.2154   6.0620  10.3393   H         1 RES1   0.0000
    41 C20      2.4508   5.7458  11.1497   C.ar      1 RES1   0.0000
    42 H13      2.6299   6.2313  11.9216   H         1 RES1   0.0000
    43 C21      1.1760   5.1216  11.0002   C.ar      1 RES1   0.0000
    44 C22      0.1742   5.2144  11.9606   C.ar      1 RES1   0.0000
    45 H14      0.3383   5.6826  12.7480   H         1 RES1   0.0000
    46 C23     -1.0421   4.6325  11.7703   C.ar      1 RES1   0.0000
    47 H15     -1.6993   4.7148  12.4233   H         1 RES1   0.0000
    48 C24     -1.3096   3.9249  10.6205   C.ar      1 RES1   0.0000
    49 H16     -2.1435   3.5305  10.5094   H         1 RES1   0.0000
    50 C25     -0.3472   3.7928   9.6234   C.ar      1 RES1   0.0000
    51 C26     -0.5881   3.0989   8.3958   C.ar      1 RES1   0.0000
    52 H17     -1.4168   2.7003   8.2570   H         1 RES1   0.0000
    53 C27      0.3493   3.0061   7.4397   C.ar      1 RES1   0.0000
    54 H18      0.1480   2.5526   6.6540   H         1 RES1   0.0000
    55 C28      1.6477   3.5845   7.5930   C.ar      1 RES1   0.0000
    56 C29      1.9190   4.2928   8.7958   C.ar      1 RES1   0.0000
    57 C30      0.9164   4.3928   9.8062   C.ar      1 RES1   0.0000
    58 S1A      6.8977   3.2609  -1.9976   S.2       1 RES1   0.0000
    59 N1A      5.0223   1.5274  -0.9680   N.2       1 RES1   0.0000
    60 N2A      2.6636  -0.2546  -1.7248   N.ar      1 RES1   0.0000
    61 N3A      5.0187  -1.3681  -1.2674   N.2       1 RES1   0.0000
    62 N4A      6.2429  -1.9613  -1.2648   N.2       1 RES1   0.0000
    63 N5A      5.2301  -2.4130  -3.1588   N.pl3     1 RES1   0.0000
    64 N6A      4.8140  -3.0568  -4.3453   N.2       1 RES1   0.0000
    65 N7A      7.7813  -3.8351  -3.9356   N.ar      1 RES1   0.0000
    66 C1A      5.8040   2.2446  -1.3824   C.1       1 RES1   0.0000
    67 C2A      1.4781   0.3354  -1.8839   C.ar      1 RES1   0.0000
    68 H1A      1.1702   0.9075  -1.2181   H         1 RES1   0.0000
    69 C3A      0.6924   0.1327  -2.9925   C.ar      1 RES1   0.0000
    70 H2A     -0.1263   0.5651  -3.0753   H         1 RES1   0.0000
    71 C4A      1.1285  -0.7059  -3.9630   C.ar      1 RES1   0.0000
    72 H3A      0.6125  -0.8498  -4.7229   H         1 RES1   0.0000
    73 C5A      2.3443  -1.3476  -3.8184   C.ar      1 RES1   0.0000
    74 H4A      2.6498  -1.9378  -4.4687   H         1 RES1   0.0000
    75 C6A      3.0904  -1.0965  -2.6939   C.ar      1 RES1   0.0000
    76 C7A      4.4132  -1.6504  -2.3957   C.2       1 RES1   0.0000
    77 C8A      6.3691  -2.6073  -2.4030   C.2       1 RES1   0.0000
    78 C9A      7.5493  -3.4418  -2.6877   C.ar      1 RES1   0.0000
    79 C10A     8.3683  -3.7696  -1.6311   C.ar      1 RES1   0.0000
    80 H5A      8.1712  -3.4792  -0.7697   H         1 RES1   0.0000
    81 C11A     9.4802  -4.5295  -1.8735   C.ar      1 RES1   0.0000
    82 H6A     10.0553  -4.7567  -1.1786   H         1 RES1   0.0000
    83 C12A     9.7349  -4.9499  -3.1432   C.ar      1 RES1   0.0000
    84 H7A     10.4829  -5.4694  -3.3313   H         1 RES1   0.0000
    85 C13A     8.8727  -4.5917  -4.1251   C.ar      1 RES1   0.0000
    86 H8A      9.0490  -4.8912  -4.9875   H         1 RES1   0.0000
    87 C14A     5.5863  -2.8499  -5.3306   C.2       1 RES1   0.0000
    88 H9A      6.3053  -2.2666  -5.2418   H         1 RES1   0.0000
    89 C15A     5.3500  -3.5263  -6.6058   C.ar      1 RES1   0.0000
    90 C16A     4.1195  -4.1525  -6.8274   C.ar      1 RES1   0.0000
    91 H10A     3.4595  -4.1104  -6.1730   H         1 RES1   0.0000
    92 C17A     3.8715  -4.8250  -7.9885   C.ar      1 RES1   0.0000
    93 H11A     3.0426  -5.2279  -8.1144   H         1 RES1   0.0000
    94 C18A     4.8379  -4.9177  -8.9903   C.ar      1 RES1   0.0000
    95 C19A     4.6085  -5.6485 -10.2058   C.ar      1 RES1   0.0000
    96 H12A     3.7866  -6.0620 -10.3393   H         1 RES1   0.0000
    97 C20A     5.5512  -5.7458 -11.1497   C.ar      1 RES1   0.0000
    98 H13A     5.3721  -6.2313 -11.9216   H         1 RES1   0.0000
    99 C21A     6.8260  -5.1216 -11.0002   C.ar      1 RES1   0.0000
   100 C22A     7.8278  -5.2144 -11.9606   C.ar      1 RES1   0.0000
   101 H14A     7.6637  -5.6826 -12.7480   H         1 RES1   0.0000
   102 C23A     9.0441  -4.6325 -11.7703   C.ar      1 RES1   0.0000
   103 H15A     9.7013  -4.7148 -12.4233   H         1 RES1   0.0000
   104 C24A     9.3116  -3.9249 -10.6205   C.ar      1 RES1   0.0000
   105 H16A    10.1455  -3.5305 -10.5094   H         1 RES1   0.0000
   106 C25A     8.3492  -3.7928  -9.6234   C.ar      1 RES1   0.0000
   107 C26A     8.5901  -3.0989  -8.3958   C.ar      1 RES1   0.0000
   108 H17A     9.4188  -2.7003  -8.2570   H         1 RES1   0.0000
   109 C27A     7.6527  -3.0061  -7.4397   C.ar      1 RES1   0.0000
   110 H18A     7.8540  -2.5526  -6.6540   H         1 RES1   0.0000
   111 C28A     6.3543  -3.5845  -7.5930   C.ar      1 RES1   0.0000
   112 C29A     6.0830  -4.2928  -8.7958   C.ar      1 RES1   0.0000
   113 C30A     7.0856  -4.3928  -9.8062   C.ar      1 RES1   0.0000
@<TRIPOS>BOND
     1     1     3    1
     2     2    10    2
     3     3    10    2
     4     4     1    1
     5     5     1    1
     6     6     5    1
     7     7     8    1
     8     8    31    2
     9     9    22   ar
    10    11     4   ar
    11    12    11    1
    12    13    11   ar
    13    14    13    1
    14    15    13   ar
    15    16    15    1
    16    17    15   ar
    17    18    17    1
    18    19     4   ar
    19    20     5    2
    20    21     6    2
    21    22    21    1
    22    23    22   ar
    23    24    23    1
    24    25    23   ar
    25    26    25    1
    26    27    25   ar
    27    28    27    1
    28    29     9   ar
    29    30    29    1
    30    31    32    1
    31    33    31    1
    32    34    33   ar
    33    35    34    1
    34    36    34   ar
    35    37    36    1
    36    38    36   ar
    37    39    38   ar
    38    40    39    1
    39    41    39   ar
    40    42    41    1
    41    43    41   ar
    42    44    43   ar
    43    45    44    1
    44    46    44   ar
    45    47    46    1
    46    48    46   ar
    47    49    48    1
    48    50    48   ar
    49    51    50   ar
    50    52    51    1
    51    53    51   ar
    52    54    53    1
    53    55    33   ar
    54    56    38   ar
    55    57    43   ar
    56    58    66    2
    57    59     1    1
    58    60     1    1
    59    61     1    1
    60    62    61    1
    61    63    64    1
    62    64    87    2
    63    65    78   ar
    64    66    59    2
    65    67    60   ar
    66    68    67    1
    67    69    67   ar
    68    70    69    1
    69    71    69   ar
    70    72    71    1
    71    73    71   ar
    72    74    73    1
    73    75    60   ar
    74    76    61    2
    75    77    62    2
    76    78    77    1
    77    79    78   ar
    78    80    79    1
    79    81    79   ar
    80    82    81    1
    81    83    81   ar
    82    84    83    1
    83    85    65   ar
    84    86    85    1
    85    87    88    1
    86    89    87    1
    87    90    89   ar
    88    91    90    1
    89    92    90   ar
    90    93    92    1
    91    94    92   ar
    92    95    94   ar
    93    96    95    1
    94    97    95   ar
    95    98    97    1
    96    99    97   ar
    97   100    99   ar
    98   101   100    1
    99   102   100   ar
   100   103   102    1
   101   104   102   ar
   102   105   104    1
   103   106   104   ar
   104   107   106   ar
   105   108   107    1
   106   109   107   ar
   107   110   109    1
   108   111    89   ar
   109   112    94   ar
   110   113    99   ar
   111     7    20    1
   112     7    21    1
   113    17    19   ar
   114    19    20    1
   115    27    29   ar
   116    50    57   ar
   117    53    55   ar
   118    55    56   ar
   119    56    57   ar
   120    63    76    1
   121    63    77    1
   122    73    75   ar
   123    75    76    1
   124    83    85   ar
   125   106   113   ar
   126   109   111   ar
   127   111   112   ar
   128   112   113   ar
@<TRIPOS>SUBSTRUCTURE
     1 RES1        1 GROUP             0 ****  ****    0  
@<TRIPOS>CRYSIN
    8.0020    9.1057   17.7358   76.7870   82.2570   80.0990     2     1
