@<TRIPOS>MOLECULE
CEWKIY10
    55    60     2     0     0
SMALL
USER_CHARGES
****
Generated from the CSD

@<TRIPOS>ATOM
     1 Fe1     -0.2884   2.0084   9.9365   Fe        1 RES1   0.0000
     2 P1      -1.1537   2.9147   8.0650   P.3       1 RES1   0.0000
     3 P2       0.7064   1.0680  11.7343   P.3       1 RES1   0.0000
     4 O1      -2.9022   0.8618  10.6013   O.2       1 RES1   0.0000
     5 O2       0.7110  -0.2091   8.3275   O.2       1 RES1   0.0000
     6 N1       0.8488   4.2289  10.4278   N.pl3     1 RES1   0.0000
     7 N2      -1.1565   4.5003  11.5977   N.2       1 RES1   1.0000
     8 C1      -2.0330   1.7800   6.9795   C.3       1 RES1   0.0000
     9 C2       0.0229   3.7157   6.8336   C.3       1 RES1   0.0000
    10 C3      -2.3783   4.2452   8.2830   C.3       1 RES1   0.0000
    11 C4       1.2040   2.1849  13.1514   C.3       1 RES1   0.0000
    12 C5      -0.2435  -0.2566  12.5266   C.3       1 RES1   0.0000
    13 C6       2.2838   0.2002  11.3782   C.3       1 RES1   0.0000
    14 C7      -1.8920   1.2964  10.3587   C.1       1 RES1   0.0000
    15 C8       0.3207   0.6452   8.9785   C.1       1 RES1   0.0000
    16 C9       1.3428   3.1060   9.7016   C.2       1 RES1   0.0000
    17 C10      2.5877   3.0319   9.1458   C.2       1 RES1   0.0000
    18 C11      1.4467   5.5520  10.6965   C.3       1 RES1   0.0000
    19 C12      2.6588   5.4941  11.5639   C.3       1 RES1   0.0000
    20 C13      3.2944   6.8514  11.8679   C.3       1 RES1   0.0000
    21 C14      3.5738   7.5693  10.5491   C.3       1 RES1   0.0000
    22 C15      2.3179   7.6909   9.7062   C.3       1 RES1   0.0000
    23 C16      1.7384   6.2966   9.3838   C.3       1 RES1   0.0000
    24 C17     -0.3608   3.7720  10.8086   C.2       1 RES1   0.0000
    25 C18     -2.4923   4.0687  12.0414   C.3       1 RES1   0.0000
    26 C19     -2.4367   3.2188  13.2743   C.3       1 RES1   0.0000
    27 C20     -3.8395   2.8717  13.7656   C.3       1 RES1   0.0000
    28 C21     -4.6841   4.1043  13.9283   C.3       1 RES1   0.0000
    29 C22     -4.7469   4.9572  12.6862   C.3       1 RES1   0.0000
    30 C23     -3.3348   5.3428  12.2502   C.3       1 RES1   0.0000
    31 C24     -2.3535   5.7656   3.9242   C.ar      2 RES2   0.0000
    32 C25     -0.9600   5.8131   3.8797   C.ar      2 RES2   0.0000
    33 C26     -0.2548   6.5206   4.8546   C.ar      2 RES2   0.0000
    34 C27     -0.9427   7.1807   5.8725   C.ar      2 RES2   0.0000
    35 C28     -2.3362   7.1332   5.9171   C.ar      2 RES2   0.0000
    36 C29     -3.0419   6.4257   4.9437   C.ar      2 RES2   0.0000
    37 C30     -2.4967   3.6207   2.0727   C.ar      2 RES2   0.0000
    38 C31     -1.5780   2.8999   2.8372   C.ar      2 RES2   0.0000
    39 C32     -1.0468   1.7058   2.3459   C.ar      2 RES2   0.0000
    40 C33     -1.4347   1.2341   1.0916   C.ar      2 RES2   0.0000
    41 C34     -2.3518   1.9550   0.3286   C.ar      2 RES2   0.0000
    42 C35     -2.8826   3.1476   0.8183   C.ar      2 RES2   0.0000
    43 C36     -3.1982   6.2655   1.5353   C.ar      2 RES2   0.0000
    44 C37     -2.0998   6.4019   0.6863   C.ar      2 RES2   0.0000
    45 C38     -2.0119   7.5010  -0.1704   C.ar      2 RES2   0.0000
    46 C39     -3.0233   8.4622  -0.1750   C.ar      2 RES2   0.0000
    47 C40     -4.1216   8.3258   0.6740   C.ar      2 RES2   0.0000
    48 C41     -4.2076   7.2266   1.5307   C.ar      2 RES2   0.0000
    49 C42     -4.7418   4.5359   3.1228   C.ar      2 RES2   0.0000
    50 C43     -5.8270   4.6205   2.2492   C.ar      2 RES2   0.0000
    51 C44     -7.0762   4.1429   2.6407   C.ar      2 RES2   0.0000
    52 C45     -7.2428   3.5807   3.9074   C.ar      2 RES2   0.0000
    53 C46     -6.1597   3.4961   4.7809   C.ar      2 RES2   0.0000
    54 C47     -4.9084   3.9738   4.3894   C.ar      2 RES2   0.0000
    55 B1      -3.2114   5.0506   2.6760   B         2 RES2  -1.0000
@<TRIPOS>BOND
     1     1     2    1
     2     2     8    1
     3     3     1    1
     4     4    14    3
     5     5    15    3
     6     6    16    1
     7     7    24    2
     8     9     2    1
     9    10     2    1
    10    11     3    1
    11    12     3    1
    12    13     3    1
    13    14     1    1
    14    15     1    1
    15    16     1    1
    16    17    16    2
    17    18     6    1
    18    19    18    1
    19    20    19    1
    20    21    20    1
    21    22    21    1
    22    23    18    1
    23    24     1    1
    24    25     7    1
    25    26    25    1
    26    27    26    1
    27    28    27    1
    28    29    28    1
    29    30    25    1
    30     6    24    1
    31    22    23    1
    32    29    30    1
    33    31    32   ar
    34    32    33   ar
    35    33    34   ar
    36    34    35   ar
    37    35    36   ar
    38    36    31   ar
    39    37    38   ar
    40    38    39   ar
    41    39    40   ar
    42    40    41   ar
    43    41    42   ar
    44    42    37   ar
    45    43    44   ar
    46    44    45   ar
    47    45    46   ar
    48    46    47   ar
    49    47    48   ar
    50    48    43   ar
    51    49    50   ar
    52    50    51   ar
    53    51    52   ar
    54    52    53   ar
    55    53    54   ar
    56    54    49   ar
    57    55    31    1
    58    37    55    1
    59    43    55    1
    60    49    55    1
@<TRIPOS>SUBSTRUCTURE
     1 RES1        1 GROUP             0 ****  ****    0  
     2 RES2       31 GROUP             0 ****  ****    0  
@<TRIPOS>CRYSIN
   20.1750   14.8330   16.0520   90.0000  106.9700   90.0000    14     2
