@<TRIPOS>MOLECULE
CICNEH
   109   120     1     0     0
SMALL
NO_CHARGES
****
Generated from the CSD

@<TRIPOS>ATOM
     1 Fe1      0.0000   0.0000   0.0000   Fe        1 RES1   0.0000
     2 N1       0.7263   1.3346   1.2824   N.2       1 RES1   0.0000
     3 N2       1.5453   0.3132  -1.2132   N.2       1 RES1   0.0000
     4 N3       1.0368  -1.5171   0.8842   N.3       1 RES1   0.0000
     5 H1       0.5061  -2.1852   0.9185   H         1 RES1   0.0000
     6 H2       1.6624  -1.7299   0.3443   H         1 RES1   0.0000
     7 C1       0.2008   1.7034   2.5027   C.2       1 RES1   0.0000
     8 C2       1.9138   2.0298   1.1732   C.2       1 RES1   0.0000
     9 C3       2.6403   1.1240  -0.9863   C.2       1 RES1   0.0000
    10 C4       1.7890  -0.2745  -2.4383   C.2       1 RES1   0.0000
    11 C5       1.0648   2.6456   3.1458   C.2       1 RES1   0.0000
    12 H3       0.9276   3.0428   3.9705   H         1 RES1   0.0000
    13 C6       2.1021   2.8494   2.3411   C.2       1 RES1   0.0000
    14 H4       2.8206   3.4178   2.5016   H         1 RES1   0.0000
    15 C7       3.5693   1.0197  -2.0613   C.2       1 RES1   0.0000
    16 H5       4.3816   1.4532  -2.1268   H         1 RES1   0.0000
    17 C8       3.0430   0.1715  -2.9631   C.2       1 RES1   0.0000
    18 H6       3.4020  -0.0649  -3.7276   H         1 RES1   0.0000
    19 C9       2.8123   1.9391   0.1257   C.2       1 RES1   0.0000
    20 C10     -0.9655   1.2060   3.0645   C.2       1 RES1   0.0000
    21 C11      4.0751   2.7447   0.2281   C.ar      1 RES1   0.0000
    22 C12      5.1082   2.2867   1.0222   C.ar      1 RES1   0.0000
    23 H7       5.0382   1.4263   1.4594   H         1 RES1   0.0000
    24 C13      6.2424   3.0481   1.1901   C.ar      1 RES1   0.0000
    25 H8       6.9496   2.7263   1.7318   H         1 RES1   0.0000
    26 C14      6.3565   4.2585   0.5829   C.ar      1 RES1   0.0000
    27 H9       7.1430   4.7935   0.7286   H         1 RES1   0.0000
    28 C15      5.3622   4.7109  -0.2323   C.ar      1 RES1   0.0000
    29 H10      5.4478   5.4994  -0.6505   H         1 RES1   0.0000
    30 C16      4.2126   3.9509  -0.4118   C.ar      1 RES1   0.0000
    31 H11      3.5017   4.2746  -0.9916   H         1 RES1   0.0000
    32 C17     -1.3332   1.6512   4.4415   C.ar      1 RES1   0.0000
    33 C18     -1.8737   2.8958   4.6833   C.ar      1 RES1   0.0000
    34 H12     -2.0293   3.4961   3.9599   H         1 RES1   0.0000
    35 C19     -2.1936   3.2793   5.9821   C.ar      1 RES1   0.0000
    36 H13     -2.5757   4.1408   6.1416   H         1 RES1   0.0000
    37 C20     -1.9675   2.4398   7.0233   C.ar      1 RES1   0.0000
    38 H14     -2.1799   2.7097   7.8988   H         1 RES1   0.0000
    39 C21     -1.4367   1.2230   6.7984   C.ar      1 RES1   0.0000
    40 H15     -1.2779   0.5961   7.5714   H         1 RES1   0.0000
    41 C22     -1.1106   0.8308   5.5122   C.ar      1 RES1   0.0000
    42 H16     -0.7381   0.0041   5.3750   H         1 RES1   0.0000
    43 C23      1.6364  -1.4039   2.1817   C.3       1 RES1   0.0000
    44 H17      0.8656  -1.1945   2.8818   H         1 RES1   0.0000
    45 H18      2.2914  -0.5652   2.1700   H         1 RES1   0.0000
    46 C24      2.4079  -2.5802   2.6843   C.3       1 RES1   0.0000
    47 H19      1.8142  -3.3505   2.7318   H         1 RES1   0.0000
    48 H20      3.1121  -2.7917   2.0423   H         1 RES1   0.0000
    49 C25      3.0229  -2.3720   4.0117   C.3       1 RES1   0.0000
    50 H21      3.6080  -1.4955   3.9747   H         1 RES1   0.0000
    51 H22      2.2540  -2.2107   4.7097   H         1 RES1   0.0000
    52 C26      3.8747  -3.4772   4.4995   C.3       1 RES1   0.0000
    53 H23      4.2457  -3.2381   5.3961   H         1 RES1   0.0000
    54 H24      4.6288  -3.6273   3.8543   H         1 RES1   0.0000
    55 H25      3.3207  -4.3080   4.5745   H         1 RES1   0.0000
    56 N1A     -0.7263  -1.3346  -1.2824   N.2       1 RES1   0.0000
    57 C1A     -0.2008  -1.7034  -2.5027   C.2       1 RES1   0.0000
    58 C5A     -1.0648  -2.6456  -3.1458   C.2       1 RES1   0.0000
    59 H3A     -0.9276  -3.0428  -3.9705   H         1 RES1   0.0000
    60 C6A     -2.1021  -2.8494  -2.3411   C.2       1 RES1   0.0000
    61 C2A     -1.9138  -2.0298  -1.1732   C.2       1 RES1   0.0000
    62 C9A     -2.8123  -1.9391  -0.1257   C.2       1 RES1   0.0000
    63 C3A     -2.6403  -1.1240   0.9863   C.2       1 RES1   0.0000
    64 N2A     -1.5453  -0.3132   1.2132   N.2       1 RES1   0.0000
    65 N3A     -1.0368   1.5171  -0.8842   N.3       1 RES1   0.0000
    66 H1A     -0.5061   2.1852  -0.9185   H         1 RES1   0.0000
    67 H2A     -1.6624   1.7299  -0.3443   H         1 RES1   0.0000
    68 C23A    -1.6364   1.4039  -2.1817   C.3       1 RES1   0.0000
    69 H17A    -0.8656   1.1945  -2.8818   H         1 RES1   0.0000
    70 H18A    -2.2914   0.5652  -2.1700   H         1 RES1   0.0000
    71 C24A    -2.4079   2.5802  -2.6843   C.3       1 RES1   0.0000
    72 H19A    -1.8142   3.3505  -2.7318   H         1 RES1   0.0000
    73 H20A    -3.1121   2.7917  -2.0423   H         1 RES1   0.0000
    74 C25A    -3.0229   2.3720  -4.0117   C.3       1 RES1   0.0000
    75 H21A    -3.6080   1.4955  -3.9747   H         1 RES1   0.0000
    76 H22A    -2.2540   2.2107  -4.7097   H         1 RES1   0.0000
    77 C26A    -3.8747   3.4772  -4.4995   C.3       1 RES1   0.0000
    78 H23A    -4.2457   3.2381  -5.3961   H         1 RES1   0.0000
    79 H24A    -4.6288   3.6273  -3.8543   H         1 RES1   0.0000
    80 H25A    -3.3207   4.3080  -4.5745   H         1 RES1   0.0000
    81 C4A     -1.7890   0.2745   2.4383   C.2       1 RES1   0.0000
    82 C8A     -3.0430  -0.1715   2.9631   C.2       1 RES1   0.0000
    83 C7A     -3.5693  -1.0197   2.0613   C.2       1 RES1   0.0000
    84 H5A     -4.3816  -1.4532   2.1268   H         1 RES1   0.0000
    85 H6A     -3.4020   0.0649   3.7276   H         1 RES1   0.0000
    86 C11A    -4.0751  -2.7447  -0.2281   C.ar      1 RES1   0.0000
    87 C12A    -5.1082  -2.2867  -1.0222   C.ar      1 RES1   0.0000
    88 H7A     -5.0382  -1.4263  -1.4594   H         1 RES1   0.0000
    89 C13A    -6.2424  -3.0481  -1.1901   C.ar      1 RES1   0.0000
    90 H8A     -6.9496  -2.7263  -1.7318   H         1 RES1   0.0000
    91 C14A    -6.3565  -4.2585  -0.5829   C.ar      1 RES1   0.0000
    92 H9A     -7.1430  -4.7935  -0.7286   H         1 RES1   0.0000
    93 C15A    -5.3622  -4.7109   0.2323   C.ar      1 RES1   0.0000
    94 H10A    -5.4478  -5.4994   0.6505   H         1 RES1   0.0000
    95 C16A    -4.2126  -3.9509   0.4118   C.ar      1 RES1   0.0000
    96 H11A    -3.5017  -4.2746   0.9916   H         1 RES1   0.0000
    97 H4A     -2.8206  -3.4178  -2.5016   H         1 RES1   0.0000
    98 C10A     0.9655  -1.2060  -3.0645   C.2       1 RES1   0.0000
    99 C17A     1.3332  -1.6512  -4.4415   C.ar      1 RES1   0.0000
   100 C18A     1.8737  -2.8958  -4.6833   C.ar      1 RES1   0.0000
   101 H12A     2.0293  -3.4961  -3.9599   H         1 RES1   0.0000
   102 C19A     2.1936  -3.2793  -5.9821   C.ar      1 RES1   0.0000
   103 H13A     2.5757  -4.1408  -6.1416   H         1 RES1   0.0000
   104 C20A     1.9675  -2.4398  -7.0233   C.ar      1 RES1   0.0000
   105 H14A     2.1799  -2.7097  -7.8988   H         1 RES1   0.0000
   106 C21A     1.4367  -1.2230  -6.7984   C.ar      1 RES1   0.0000
   107 H15A     1.2779  -0.5961  -7.5714   H         1 RES1   0.0000
   108 C22A     1.1106  -0.8308  -5.5122   C.ar      1 RES1   0.0000
   109 H16A     0.7381  -0.0041  -5.3750   H         1 RES1   0.0000
@<TRIPOS>BOND
     1     1     2    1
     2     2     7    1
     3     3     1    1
     4     4     1    1
     5     5     4    1
     6     6     4    1
     7     7    11    1
     8     8     2    1
     9     9     3    2
    10    10     3    1
    11    11    12    1
    12    13     8    1
    13    14    13    1
    14    15     9    1
    15    16    15    1
    16    17    10    1
    17    18    17    1
    18    19     8    2
    19    20     7    2
    20    21    19    1
    21    22    21   ar
    22    23    22    1
    23    24    22   ar
    24    25    24    1
    25    26    24   ar
    26    27    26    1
    27    28    26   ar
    28    29    28    1
    29    30    21   ar
    30    31    30    1
    31    32    20    1
    32    33    32   ar
    33    34    33    1
    34    35    33   ar
    35    36    35    1
    36    37    35   ar
    37    38    37    1
    38    39    37   ar
    39    40    39    1
    40    41    32   ar
    41    42    41    1
    42    43     4    1
    43    44    43    1
    44    45    43    1
    45    46    43    1
    46    47    46    1
    47    48    46    1
    48    49    46    1
    49    50    49    1
    50    51    49    1
    51    52    49    1
    52    53    52    1
    53    54    52    1
    54    55    52    1
    55    56     1    1
    56    57    56    1
    57    58    57    2
    58    59    58    1
    59    60    58    1
    60    61    56    1
    61    62    61    1
    62    63    62    2
    63    64     1    1
    64    65     1    1
    65    66    65    1
    66    67    65    1
    67    68    65    1
    68    69    68    1
    69    70    68    1
    70    71    68    1
    71    72    71    1
    72    73    71    1
    73    74    71    1
    74    75    74    1
    75    76    74    1
    76    77    74    1
    77    78    77    1
    78    79    77    1
    79    80    77    1
    80    81    20    1
    81    82    81    1
    82    83    63    1
    83    84    83    1
    84    85    82    1
    85    86    62    1
    86    87    86   ar
    87    88    87    1
    88    89    87   ar
    89    90    89    1
    90    91    89   ar
    91    92    91    1
    92    93    91   ar
    93    94    93    1
    94    95    86   ar
    95    96    95    1
    96    97    60    1
    97    98    10    2
    98    99    98    1
    99   100    99   ar
   100   101   100    1
   101   102   100   ar
   102   103   102    1
   103   104   102   ar
   104   105   104    1
   105   106   104   ar
   106   107   106    1
   107   108    99   ar
   108   109   108    1
   109     9    19    1
   110    11    13    2
   111    15    17    2
   112    28    30   ar
   113    39    41   ar
   114    57    98    1
   115    60    61    2
   116    63    64    1
   117    64    81    2
   118    82    83    2
   119    93    95   ar
   120   106   108   ar
@<TRIPOS>SUBSTRUCTURE
     1 RES1        1 GROUP             0 ****  ****    0  
@<TRIPOS>CRYSIN
   10.1180   11.0860   11.2050   94.1500  105.6200  113.8800     2     1
