@<TRIPOS>MOLECULE
CICQEK
   117   130     1     0     0
SMALL
NO_CHARGES
****
Generated from the CSD

@<TRIPOS>ATOM
     1 Fe1      0.0000   0.0000   0.0000   Fe        1 RES1   0.0000
     2 N1      -0.7367  -1.3331   1.2838   N.2       1 RES1   0.0000
     3 N2      -0.5710   1.4715   1.2050   N.2       1 RES1   0.0000
     4 N3       1.8387   0.0058   0.8550   N.3       1 RES1   0.0000
     5 H1       2.3809  -0.1915   0.2513   H         1 RES1   0.0000
     6 H2       1.9983   0.7982   1.0679   H         1 RES1   0.0000
     7 C1      -0.7147  -2.7063   1.1697   C.2       1 RES1   0.0000
     8 C2      -1.3770  -1.0842   2.4796   C.2       1 RES1   0.0000
     9 C3      -1.1884   1.3570   2.4292   C.2       1 RES1   0.0000
    10 C4      -0.4505   2.8311   0.9845   C.2       1 RES1   0.0000
    11 C5      -1.3729  -3.3035   2.2929   C.2       1 RES1   0.0000
    12 H3      -1.4876  -4.2058   2.4402   H         1 RES1   0.0000
    13 C6      -1.7844  -2.3148   3.0868   C.2       1 RES1   0.0000
    14 H4      -2.2534  -2.4102   3.8883   H         1 RES1   0.0000
    15 C7      -1.4358   2.6531   2.9818   C.2       1 RES1   0.0000
    16 H5      -1.8226   2.8369   3.8017   H         1 RES1   0.0000
    17 C8      -0.9975   3.5512   2.0915   C.2       1 RES1   0.0000
    18 H6      -1.0401   4.4350   2.1738   H         1 RES1   0.0000
    19 C9      -1.5708   0.1690   3.0452   C.2       1 RES1   0.0000
    20 C10     -0.1393  -3.4141   0.1239   C.2       1 RES1   0.0000
    21 C11     -2.1876   0.2366   4.4028   C.ar      1 RES1   0.0000
    22 C12     -1.3939   0.2786   5.5227   C.ar      1 RES1   0.0000
    23 H7      -0.4421   0.2916   5.4252   H         1 RES1   0.0000
    24 C13     -1.9483   0.3016   6.7856   C.ar      1 RES1   0.0000
    25 H8      -1.4158   0.3322   7.5058   H         1 RES1   0.0000
    26 C14     -3.2873   0.2790   6.9491   C.ar      1 RES1   0.0000
    27 H9      -3.6573   0.2848   7.8091   H         1 RES1   0.0000
    28 C15     -4.0864   0.2483   5.8639   C.ar      1 RES1   0.0000
    29 H10     -4.9718   0.2408   5.9700   H         1 RES1   0.0000
    30 C16     -3.5483   0.2283   4.5815   C.ar      1 RES1   0.0000
    31 H11     -4.0792   0.2116   3.8883   H         1 RES1   0.0000
    32 C17     -0.1438  -4.9120   0.2210   C.ar      1 RES1   0.0000
    33 C18     -1.1365  -5.6643  -0.3542   C.ar      1 RES1   0.0000
    34 H12     -1.8162  -5.2403  -0.8394   H         1 RES1   0.0000
    35 C19     -1.1477  -7.0437  -0.2253   C.ar      1 RES1   0.0000
    36 H13     -1.8284  -7.5416  -0.6130   H         1 RES1   0.0000
    37 C20     -0.1595  -7.6648   0.4722   C.ar      1 RES1   0.0000
    38 H14     -0.1699  -8.5712   0.5665   H         1 RES1   0.0000
    39 C21      0.8399  -6.9414   1.0257   C.ar      1 RES1   0.0000
    40 H15      1.4805  -7.3506   1.4622   H         1 RES1   0.0000
    41 C22      0.8583  -5.5621   0.9065   C.ar      1 RES1   0.0000
    42 H16      1.5770  -5.0541   1.3051   H         1 RES1   0.0000
    43 C23      2.1941  -0.8166   2.0189   C.3       1 RES1   0.0000
    44 H17      2.0644  -1.7567   1.7925   H         1 RES1   0.0000
    45 H18      1.5898  -0.6026   2.7532   H         1 RES1   0.0000
    46 C24      3.6155  -0.6163   2.4803   C.3       1 RES1   0.0000
    47 H19      4.2106  -0.8444   1.7611   H         1 RES1   0.0000
    48 H20      3.7470   0.3135   2.6850   H         1 RES1   0.0000
    49 C25      3.9786  -1.4333   3.6868   C.ar      1 RES1   0.0000
    50 C26      4.8184  -2.5157   3.5818   C.ar      1 RES1   0.0000
    51 H21      5.1616  -2.7532   2.7619   H         1 RES1   0.0000
    52 C27      5.1480  -3.2545   4.7169   C.ar      1 RES1   0.0000
    53 H22      5.6935  -3.9191   4.6540   H         1 RES1   0.0000
    54 C28      4.6120  -2.9196   5.9278   C.ar      1 RES1   0.0000
    55 H23      4.8101  -3.4243   6.6827   H         1 RES1   0.0000
    56 C29      3.7913  -1.8508   6.0361   C.ar      1 RES1   0.0000
    57 H24      3.4198  -1.6073   6.8993   H         1 RES1   0.0000
    58 C30      3.4824  -1.1101   4.9237   C.ar      1 RES1   0.0000
    59 H25      2.8831  -0.3336   5.0158   H         1 RES1   0.0000
    60 N1A      0.7367   1.3331  -1.2838   N.2       1 RES1   0.0000
    61 C1A      0.7147   2.7063  -1.1697   C.2       1 RES1   0.0000
    62 C5A      1.3729   3.3035  -2.2929   C.2       1 RES1   0.0000
    63 H3A      1.4876   4.2058  -2.4402   H         1 RES1   0.0000
    64 C6A      1.7844   2.3148  -3.0868   C.2       1 RES1   0.0000
    65 C2A      1.3770   1.0842  -2.4796   C.2       1 RES1   0.0000
    66 C9A      1.5708  -0.1690  -3.0452   C.2       1 RES1   0.0000
    67 C3A      1.1884  -1.3570  -2.4292   C.2       1 RES1   0.0000
    68 N2A      0.5710  -1.4715  -1.2050   N.2       1 RES1   0.0000
    69 N3A     -1.8387  -0.0058  -0.8550   N.3       1 RES1   0.0000
    70 H1A     -2.3809   0.1915  -0.2513   H         1 RES1   0.0000
    71 H2A     -1.9983  -0.7982  -1.0679   H         1 RES1   0.0000
    72 C23A    -2.1941   0.8166  -2.0189   C.3       1 RES1   0.0000
    73 H17A    -2.0644   1.7567  -1.7925   H         1 RES1   0.0000
    74 H18A    -1.5898   0.6026  -2.7532   H         1 RES1   0.0000
    75 C24A    -3.6155   0.6163  -2.4803   C.3       1 RES1   0.0000
    76 H19A    -4.2106   0.8444  -1.7611   H         1 RES1   0.0000
    77 H20A    -3.7470  -0.3135  -2.6850   H         1 RES1   0.0000
    78 C25A    -3.9786   1.4333  -3.6868   C.ar      1 RES1   0.0000
    79 C26A    -4.8184   2.5157  -3.5818   C.ar      1 RES1   0.0000
    80 H21A    -5.1616   2.7532  -2.7619   H         1 RES1   0.0000
    81 C27A    -5.1480   3.2545  -4.7169   C.ar      1 RES1   0.0000
    82 H22A    -5.6935   3.9191  -4.6540   H         1 RES1   0.0000
    83 C28A    -4.6120   2.9196  -5.9278   C.ar      1 RES1   0.0000
    84 H23A    -4.8101   3.4243  -6.6827   H         1 RES1   0.0000
    85 C29A    -3.7913   1.8508  -6.0361   C.ar      1 RES1   0.0000
    86 H24A    -3.4198   1.6073  -6.8993   H         1 RES1   0.0000
    87 C30A    -3.4824   1.1101  -4.9237   C.ar      1 RES1   0.0000
    88 H25A    -2.8831   0.3336  -5.0158   H         1 RES1   0.0000
    89 C4A      0.4505  -2.8311  -0.9845   C.2       1 RES1   0.0000
    90 C8A      0.9975  -3.5512  -2.0915   C.2       1 RES1   0.0000
    91 C7A      1.4358  -2.6531  -2.9818   C.2       1 RES1   0.0000
    92 H5A      1.8226  -2.8369  -3.8017   H         1 RES1   0.0000
    93 H6A      1.0401  -4.4350  -2.1738   H         1 RES1   0.0000
    94 C11A     2.1876  -0.2366  -4.4028   C.ar      1 RES1   0.0000
    95 C12A     1.3939  -0.2786  -5.5227   C.ar      1 RES1   0.0000
    96 H7A      0.4421  -0.2916  -5.4252   H         1 RES1   0.0000
    97 C13A     1.9483  -0.3016  -6.7856   C.ar      1 RES1   0.0000
    98 H8A      1.4158  -0.3322  -7.5058   H         1 RES1   0.0000
    99 C14A     3.2873  -0.2790  -6.9491   C.ar      1 RES1   0.0000
   100 H9A      3.6573  -0.2848  -7.8091   H         1 RES1   0.0000
   101 C15A     4.0864  -0.2483  -5.8639   C.ar      1 RES1   0.0000
   102 H10A     4.9718  -0.2408  -5.9700   H         1 RES1   0.0000
   103 C16A     3.5483  -0.2283  -4.5815   C.ar      1 RES1   0.0000
   104 H11A     4.0792  -0.2116  -3.8883   H         1 RES1   0.0000
   105 H4A      2.2534   2.4102  -3.8883   H         1 RES1   0.0000
   106 C10A     0.1393   3.4141  -0.1239   C.2       1 RES1   0.0000
   107 C17A     0.1438   4.9120  -0.2210   C.ar      1 RES1   0.0000
   108 C18A     1.1365   5.6643   0.3542   C.ar      1 RES1   0.0000
   109 H12A     1.8162   5.2403   0.8394   H         1 RES1   0.0000
   110 C19A     1.1477   7.0437   0.2253   C.ar      1 RES1   0.0000
   111 H13A     1.8284   7.5416   0.6130   H         1 RES1   0.0000
   112 C20A     0.1595   7.6648  -0.4722   C.ar      1 RES1   0.0000
   113 H14A     0.1699   8.5712  -0.5665   H         1 RES1   0.0000
   114 C21A    -0.8399   6.9414  -1.0257   C.ar      1 RES1   0.0000
   115 H15A    -1.4805   7.3506  -1.4622   H         1 RES1   0.0000
   116 C22A    -0.8583   5.5621  -0.9065   C.ar      1 RES1   0.0000
   117 H16A    -1.5770   5.0541  -1.3051   H         1 RES1   0.0000
@<TRIPOS>BOND
     1     1     2    1
     2     2     7    1
     3     3     1    1
     4     4     1    1
     5     5     4    1
     6     6     4    1
     7     7    11    1
     8     8     2    1
     9     9     3    2
    10    10     3    1
    11    11    12    1
    12    13     8    1
    13    14    13    1
    14    15     9    1
    15    16    15    1
    16    17    10    1
    17    18    17    1
    18    19     8    2
    19    20     7    2
    20    21    19    1
    21    22    21   ar
    22    23    22    1
    23    24    22   ar
    24    25    24    1
    25    26    24   ar
    26    27    26    1
    27    28    26   ar
    28    29    28    1
    29    30    21   ar
    30    31    30    1
    31    32    20    1
    32    33    32   ar
    33    34    33    1
    34    35    33   ar
    35    36    35    1
    36    37    35   ar
    37    38    37    1
    38    39    37   ar
    39    40    39    1
    40    41    32   ar
    41    42    41    1
    42    43     4    1
    43    44    43    1
    44    45    43    1
    45    46    43    1
    46    47    46    1
    47    48    46    1
    48    49    46    1
    49    50    49   ar
    50    51    50    1
    51    52    50   ar
    52    53    52    1
    53    54    52   ar
    54    55    54    1
    55    56    54   ar
    56    57    56    1
    57    58    49   ar
    58    59    58    1
    59    60     1    1
    60    61    60    1
    61    62    61    2
    62    63    62    1
    63    64    62    1
    64    65    60    1
    65    66    65    1
    66    67    66    2
    67    68     1    1
    68    69     1    1
    69    70    69    1
    70    71    69    1
    71    72    69    1
    72    73    72    1
    73    74    72    1
    74    75    72    1
    75    76    75    1
    76    77    75    1
    77    78    75    1
    78    79    78   ar
    79    80    79    1
    80    81    79   ar
    81    82    81    1
    82    83    81   ar
    83    84    83    1
    84    85    83   ar
    85    86    85    1
    86    87    78   ar
    87    88    87    1
    88    89    20    1
    89    90    89    1
    90    91    67    1
    91    92    91    1
    92    93    90    1
    93    94    66    1
    94    95    94   ar
    95    96    95    1
    96    97    95   ar
    97    98    97    1
    98    99    97   ar
    99   100    99    1
   100   101    99   ar
   101   102   101    1
   102   103    94   ar
   103   104   103    1
   104   105    64    1
   105   106    10    2
   106   107   106    1
   107   108   107   ar
   108   109   108    1
   109   110   108   ar
   110   111   110    1
   111   112   110   ar
   112   113   112    1
   113   114   112   ar
   114   115   114    1
   115   116   107   ar
   116   117   116    1
   117     9    19    1
   118    11    13    2
   119    15    17    2
   120    28    30   ar
   121    39    41   ar
   122    56    58   ar
   123    61   106    1
   124    64    65    2
   125    67    68    1
   126    68    89    2
   127    85    87   ar
   128    90    91    2
   129   101   103   ar
   130   114   116   ar
@<TRIPOS>SUBSTRUCTURE
     1 RES1        1 GROUP             0 ****  ****    0  
@<TRIPOS>CRYSIN
   10.9625   11.2030   11.2990   75.2300   89.1200   60.4190     2     1
