@<TRIPOS>MOLECULE
CICRIR
   103   102     5     0     0
SMALL
NO_CHARGES
****
Generated from the CSD

@<TRIPOS>ATOM
     1 Fe1      1.5988   4.9024   3.9166   Fe        1 RES1   0.0000
     2 C1       4.4729   5.6446   4.9286   C.ar      1 RES1   0.0000
     3 H1       4.4718   6.1112   4.1012   H         1 RES1   0.0000
     4 C2       5.6210   5.6948   5.7019   C.ar      1 RES1   0.0000
     5 H2       6.3839   6.1740   5.4026   H         1 RES1   0.0000
     6 C3       5.6405   5.0397   6.9170   C.ar      1 RES1   0.0000
     7 C4       4.4929   4.3595   7.2805   C.ar      1 RES1   0.0000
     8 H3       4.4625   3.8898   8.1060   H         1 RES1   0.0000
     9 C5       3.4028   4.3626   6.4550   C.ar      1 RES1   0.0000
    10 H4       2.6238   3.8992   6.7362   H         1 RES1   0.0000
    11 C6       6.8727   5.0005   7.7083   C.2       1 RES1   0.0000
    12 H5       7.6218   5.5173   7.4392   H         1 RES1   0.0000
    13 C7       8.2555   3.6290  10.4217   C.2       1 RES1   0.0000
    14 H6       7.4588   3.2190  10.7390   H         1 RES1   0.0000
    15 C8       9.5116   3.4703  11.1728   C.ar      1 RES1   0.0000
    16 C9       9.5024   2.8262  12.3859   C.ar      1 RES1   0.0000
    17 H7       8.6850   2.5214  12.7635   H         1 RES1   0.0000
    18 C10     10.6892   2.6283  13.0446   C.ar      1 RES1   0.0000
    19 H8      10.6637   2.1523  13.8661   H         1 RES1   0.0000
    20 C11     11.8683   3.6698  11.4299   C.ar      1 RES1   0.0000
    21 H9      12.6992   3.9730  11.0844   H         1 RES1   0.0000
    22 C12     10.7390   3.8866  10.6908   C.ar      1 RES1   0.0000
    23 H10     10.7990   4.3218   9.8473   H         1 RES1   0.0000
    24 N1       3.3779   4.9863   5.2699   N.ar      1 RES1   0.0000
    25 N2       6.9477   4.2857   8.7474   N.2       1 RES1   0.0000
    26 N3       8.2306   4.3187   9.3431   N.2       1 RES1   0.0000
    27 N4      11.8620   3.0509  12.6189   N.ar      1 RES1   0.0000
    28 C13      3.7280   4.6124   1.5425   C.1       1 RES1   0.0000
    29 N5       2.8748   4.7522   2.2707   N.2       1 RES1   0.0000
    30 S1       4.9985   4.4286   0.5244   S.2       1 RES1   0.0000
    31 C14     -0.1030   4.8261   6.6619   C.1       1 RES1   0.0000
    32 N6       0.3457   4.9439   5.6177   N.2       1 RES1   0.0000
    33 S2      -0.7637   4.6657   8.1355   S.2       1 RES1   0.0000
    34 C15      2.6802   1.9465   4.0168   C.ar      1 RES1   0.0000
    35 H11      3.5060   2.4146   3.9827   H         1 RES1   0.0000
    36 C16      2.7150   0.5766   4.0771   C.ar      1 RES1   0.0000
    37 H12      3.5452   0.1163   4.0952   H         1 RES1   0.0000
    38 C17      1.5241  -0.1273   4.1132   C.ar      1 RES1   0.0000
    39 C18      0.3465   0.6080   4.0610   C.ar      1 RES1   0.0000
    40 H13     -0.4934   0.1634   4.0510   H         1 RES1   0.0000
    41 C19      0.4006   1.9794   4.0229   C.ar      1 RES1   0.0000
    42 H14     -0.4151   2.4665   4.0088   H         1 RES1   0.0000
    43 C20      1.4635  -1.5898   4.2257   C.2       1 RES1   0.0000
    44 H15      0.6255  -2.0219   4.1132   H         1 RES1   0.0000
    45 C21      2.1890  -4.3768   3.6131   C.2       1 RES1   0.0000
    46 H16      2.2793  -3.9777   2.7555   H         1 RES1   0.0000
    47 C22      1.9791  -5.8127   3.7075   C.ar      1 RES1   0.0000
    48 C23      2.0886  -6.6029   2.5688   C.ar      1 RES1   0.0000
    49 H17      2.2745  -6.2038   1.7272   H         1 RES1   0.0000
    50 C24      1.9255  -7.9555   2.6652   C.ar      1 RES1   0.0000
    51 H18      2.0024  -8.4755   1.8739   H         1 RES1   0.0000
    52 C25      1.5615  -7.8204   4.9166   C.ar      1 RES1   0.0000
    53 H19      1.3732  -8.2414   5.7481   H         1 RES1   0.0000
    54 C26      1.7152  -6.4725   4.9025   C.ar      1 RES1   0.0000
    55 H20      1.6450  -5.9776   5.7099   H         1 RES1   0.0000
    56 N7       1.5512   2.6613   4.0024   N.ar      1 RES1   0.0000
    57 N8       2.4735  -2.2874   4.4607   N.2       1 RES1   0.0000
    58 N9       2.2530  -3.6416   4.6515   N.2       1 RES1   0.0000
    59 N10      1.6601  -8.5917   3.8226   N.ar      1 RES1   0.0000
    60 Fe1      1.5988 -10.8075   3.9166   Fe        1 RES1   0.0000
    61 Fe1C    13.6452   2.9525  13.9587   Fe        1 RES1   0.0000
    62 N4C     -0.1845   4.8041   2.5768   N.3       1 RES1   0.0000
    63 N10      1.6601   7.1182   3.8226   N.3       1 RES1   0.0000
    64 C27      2.1613   7.0160   9.1102   C.3       2 RES2   0.0000
    65 H21      2.6220   7.0427   8.2445   H         2 RES2   0.0000
    66 H22      1.8491   6.1049   9.2869   H         2 RES2   0.0000
    67 H23      2.7806   7.2925   9.8171   H         2 RES2   0.0000
    68 C28      0.9908   7.9476   9.0800   C.2       2 RES2   0.0000
    69 C29      0.2366   8.0215  10.2409   C.3       2 RES2   0.0000
    70 H24     -0.4810   8.6797  10.1224   H         2 RES2   0.0000
    71 H25      0.8101   8.2948  10.9860   H         2 RES2   0.0000
    72 H26     -0.1533   7.1449  10.4337   H         2 RES2   0.0000
    73 O1       0.8248   8.5650   8.1220   O.2       2 RES2   0.0000
    74 C30     -3.3737   9.1746   2.2233   C.3       3 RES3   0.0000
    75 H27     -4.3311   8.9766   2.1651   H         3 RES3   0.0000
    76 H28     -3.2234  10.1250   2.0365   H         3 RES3   0.0000
    77 H29     -3.0502   8.9625   3.1231   H         3 RES3   0.0000
    78 C31     -2.6534   8.3718   1.2492   C.2       3 RES3   0.0000
    79 C32     -1.3516   8.4566   1.1669   C.3       3 RES3   0.0000
    80 H30     -1.0262   7.8440   0.4740   H         3 RES3   0.0000
    81 H31     -0.9535   8.2147   2.0305   H         3 RES3   0.0000
    82 H32     -1.0975   9.3741   0.9359   H         3 RES3   0.0000
    83 O2      -3.3231   7.6507   0.4840   O.2       3 RES3   0.0000
    84 C33      5.9862   8.5823   1.7232   C.3       4 RES4   0.0000
    85 H33      5.5333   9.3474   2.1329   H         4 RES4   0.0000
    86 H34      5.3201   7.9712   1.3436   H         4 RES4   0.0000
    87 H35      6.5815   8.8981   1.0102   H         4 RES4   0.0000
    88 C34      6.7243   7.9194   2.6772   C.2       4 RES4   0.0000
    89 C35      7.5419   6.7474   2.4282   C.3       4 RES4   0.0000
    90 H36      7.9718   6.4662   3.2617   H         4 RES4   0.0000
    91 H37      8.2283   6.9642   1.7634   H         4 RES4   0.0000
    92 H38      6.9766   6.0216   2.0888   H         4 RES4   0.0000
    93 O3       6.5952   8.3467   3.8401   O.2       4 RES4   0.0000
    94 C36      4.5580   9.5186   8.4052   C.3       5 RES5   0.0000
    95 H39      4.6179   8.7426   8.9997   H         5 RES5   0.0000
    96 H40      3.6472   9.5925   8.0517   H         5 RES5   0.0000
    97 H41      4.7821  10.3324   8.9053   H         5 RES5   0.0000
    98 C37      5.4264   9.3678   7.3789   C.2       5 RES5   0.0000
    99 C38      5.2301  10.4926   6.4350   C.3       5 RES5   0.0000
   100 H42      5.7659  10.3387   5.6296   H         5 RES5   0.0000
   101 H43      5.5110  11.3300   6.8587   H         5 RES5   0.0000
   102 H44      4.2830  10.5508   6.1899   H         5 RES5   0.0000
   103 O4       6.2874   8.5289   7.3950   O.2       5 RES5   0.0000
@<TRIPOS>BOND
     1     1    24    1
     2     2     3    1
     3     4     2   ar
     4     5     4    1
     5     6     4   ar
     6     7     6   ar
     7     8     7    1
     8     9     7   ar
     9    10     9    1
    10    11     6    1
    11    12    11    1
    12    13    14    1
    13    15    13    1
    14    16    15   ar
    15    17    16    1
    16    18    16   ar
    17    19    18    1
    18    20    21    1
    19    22    15   ar
    20    23    22    1
    21    24     2   ar
    22    25    11    2
    23    26    13    2
    24    27    18   ar
    25    28    29    2
    26    29     1    1
    27    30    28    2
    28    31    32    2
    29    32     1    1
    30    33    31    2
    31    34    35    1
    32    36    34   ar
    33    37    36    1
    34    38    36   ar
    35    39    38   ar
    36    40    39    1
    37    41    39   ar
    38    42    41    1
    39    43    38    1
    40    44    43    1
    41    45    46    1
    42    47    45    1
    43    48    47   ar
    44    49    48    1
    45    50    48   ar
    46    51    50    1
    47    52    53    1
    48    54    47   ar
    49    55    54    1
    50    56     1    1
    51    57    43    2
    52    58    45    2
    53    59    50   ar
    54    60    59   un
    55    61    27   un
    56    62     1   un
    57    63     1   un
    58     9    24   ar
    59    20    22   ar
    60    20    27   ar
    61    25    26    1
    62    34    56   ar
    63    41    56   ar
    64    52    54   ar
    65    52    59   ar
    66    57    58    1
    67    64    65    1
    68    66    64    1
    69    67    64    1
    70    68    64    1
    71    69    68    1
    72    70    69    1
    73    71    69    1
    74    72    69    1
    75    73    68    2
    76    74    75    1
    77    76    74    1
    78    77    74    1
    79    78    74    1
    80    79    78    1
    81    80    79    1
    82    81    79    1
    83    82    79    1
    84    83    78    2
    85    84    85    1
    86    86    84    1
    87    87    84    1
    88    88    84    1
    89    89    88    1
    90    90    89    1
    91    91    89    1
    92    92    89    1
    93    93    88    2
    94    94    95    1
    95    96    94    1
    96    97    94    1
    97    98    94    1
    98    99    98    1
    99   100    99    1
   100   101    99    1
   101   102    99    1
   102   103    98    2
@<TRIPOS>SUBSTRUCTURE
     1 RES1        1 GROUP             0 ****  ****    0  
     2 RES2       64 GROUP             0 ****  ****    0  
     3 RES3       74 GROUP             0 ****  ****    0  
     4 RES4       84 GROUP             0 ****  ****    0  
     5 RES5       94 GROUP             0 ****  ****    0  
@<TRIPOS>CRYSIN
   13.8678   15.7099   20.4118   90.0000  100.2800   90.0000    14     1
