@<TRIPOS>MOLECULE
CIGCOL
   182   222     3     0     0
SMALL
NO_CHARGES
****
Generated from the CSD

@<TRIPOS>ATOM
     1 C1       5.3397   9.2635  14.0656   C.ar      1 RES1   0.0000
     2 C2       6.0934  10.1312  14.8474   C.ar      1 RES1   0.0000
     3 H1       6.6462  10.7588  14.4453   H         1 RES1   0.0000
     4 C3       6.0169  10.0577  16.2342   C.ar      1 RES1   0.0000
     5 H2       6.5216  10.6386  16.7577   H         1 RES1   0.0000
     6 C4       5.1911   9.1164  16.8375   C.ar      1 RES1   0.0000
     7 H3       5.1408   9.0674  17.7649   H         1 RES1   0.0000
     8 C5       4.4373   8.2486  16.0539   C.ar      1 RES1   0.0000
     9 H4       3.8846   7.6211  16.4578   H         1 RES1   0.0000
    10 C6       4.5138   8.3222  14.6689   C.ar      1 RES1   0.0000
    11 C7       7.3759  11.9329   7.2738   C.ar      1 RES1   0.0000
    12 C8       8.1886  12.7419   6.4937   C.ar      1 RES1   0.0000
    13 H5       8.1886  12.7271   5.5628   H         1 RES1   0.0000
    14 C9       8.9861  13.5655   7.2339   C.ar      1 RES1   0.0000
    15 H6       9.5061  14.1783   6.7676   H         1 RES1   0.0000
    16 C10      9.0975  13.5728   8.6311   C.ar      1 RES1   0.0000
    17 H7       9.7377  14.0974   9.0558   H         1 RES1   0.0000
    18 C11      8.2389  12.7860   9.3592   C.ar      1 RES1   0.0000
    19 H8       8.2520  12.8031  10.2901   H         1 RES1   0.0000
    20 C12      7.3628  11.9771   8.6883   C.ar      1 RES1   0.0000
    21 C13      0.7647   8.7634   4.7463   C.ar      1 RES1   0.0000
    22 C14      0.5571   9.2855   3.4774   C.ar      1 RES1   0.0000
    23 H9       0.7428   8.8051   2.7043   H         1 RES1   0.0000
    24 C15      0.0590  10.5676   3.4479   C.ar      1 RES1   0.0000
    25 H10     -0.0787  10.9769   2.6245   H         1 RES1   0.0000
    26 C16     -0.2360  11.2515   4.5712   C.ar      1 RES1   0.0000
    27 H11     -0.6008  12.1045   4.4915   H         1 RES1   0.0000
    28 C17     -0.0175  10.7465   5.8246   C.ar      1 RES1   0.0000
    29 H12     -0.2032  11.2417   6.5890   H         1 RES1   0.0000
    30 C18      0.4872   9.4645   5.8939   C.ar      1 RES1   0.0000
    31 C19     -0.8717   6.8293  10.0855   C.ar      1 RES1   0.0000
    32 C20     -1.8265   7.5843  10.7217   C.ar      1 RES1   0.0000
    33 H13     -1.8090   8.5134  10.7234   H         1 RES1   0.0000
    34 C21     -2.8271   6.8563  11.3614   C.ar      1 RES1   0.0000
    35 H14     -3.5110   7.3098  11.7999   H         1 RES1   0.0000
    36 C22      4.4308   8.0599   2.6783   C.3       1 RES1   0.0000
    37 H15      4.9267   7.3809   2.2137   H         1 RES1   0.0000
    38 H16      4.9988   8.8198   2.8343   H         1 RES1   0.0000
    39 H17      3.6770   8.3271   2.1495   H         1 RES1   0.0000
    40 C23      7.6424   9.0012   4.2211   C.3       1 RES1   0.0000
    41 C24      2.1892  10.0920  11.6578   C.3       1 RES1   0.0000
    42 H18      2.9233  10.5945  11.2955   H         1 RES1   0.0000
    43 H19      2.3618   9.8959  12.5835   H         1 RES1   0.0000
    44 H20      1.3808  10.6043  11.5850   H         1 RES1   0.0000
    45 C25      2.8359  11.6682   8.6294   C.3       1 RES1   0.0000
    46 H21      2.0275  11.9893   9.0385   H         1 RES1   0.0000
    47 H22      2.9276  12.0555   7.7557   H         1 RES1   0.0000
    48 H23      3.5896  11.9182   9.1719   H         1 RES1   0.0000
    49 C26      3.6246  10.3396   5.4553   C.3       1 RES1   0.0000
    50 H24      4.3783  10.9156   5.3201   H         1 RES1   0.0000
    51 H25      2.9320  10.8176   5.9147   H         1 RES1   0.0000
    52 H26      3.2947  10.0381   4.6042   H         1 RES1   0.0000
    53 C27      0.0240   3.9785  13.6218   C.3       1 RES1   0.0000
    54 H27      0.3474   3.7505  14.4955   H         1 RES1   0.0000
    55 H28     -0.2228   3.1769  13.1521   H         1 RES1   0.0000
    56 H29     -0.7450   4.5472  13.7051   H         1 RES1   0.0000
    57 C28      7.4436   6.1283  11.2504   C.3       1 RES1   0.0000
    58 Cl1      1.7522   6.1283  15.5946   Cl        1 RES1   0.0000
    59 Cl2     -0.3378  10.4337   9.4517   Cl        1 RES1   0.0000
    60 Cl3      8.0661   9.8618  11.5399   Cl        1 RES1   0.0000
    61 Cl4      5.1378  12.1548  11.7913   Cl        1 RES1   0.0000
    62 Cl5      1.6430   6.1283   2.1669   Cl        1 RES1   0.0000
    63 Fe1      3.7035   7.5814  10.5841   Fe        1 RES1   0.0000
    64 Fe2      2.5204   6.1283   7.6182   Fe        1 RES1   0.0000
    65 Fe3      5.9363  10.2192  10.9909   Fe        1 RES1   0.0000
    66 Fe4      2.6681   6.1283   4.1890   Fe        1 RES1   0.0000
    67 Fe5      4.3748   9.0784   8.1570   Fe        1 RES1   0.0000
    68 Fe6      1.3605   9.0147   9.0232   Fe        1 RES1   0.0000
    69 Fe7      6.0364   6.1283   8.5127   Fe        1 RES1   0.0000
    70 Fe8      2.3985   6.1283  13.3681   Fe        1 RES1   0.0000
    71 Fe9      5.0093   7.6368   5.6086   Fe        1 RES1   0.0000
    72 N1       3.9064   7.6383  13.6530   N.ar      1 RES1   0.0000
    73 N2       4.3849   8.1506  12.5245   N.ar      1 RES1   0.0000
    74 N3       5.2326   9.1262  12.7239   N.ar      1 RES1   0.0000
    75 N4       6.4299  11.0799   9.1130   N.ar      1 RES1   0.0000
    76 N5       5.9011  10.5455   8.0192   N.ar      1 RES1   0.0000
    77 N6       6.4233  11.0186   6.8889   N.ar      1 RES1   0.0000
    78 N7       0.8652   8.6923   6.9479   N.ar      1 RES1   0.0000
    79 N8       1.3699   7.5623   6.4469   N.ar      1 RES1   0.0000
    80 N9       1.3349   7.5574   5.1364   N.ar      1 RES1   0.0000
    81 N10      0.1660   7.2264   9.3661   N.ar      1 RES1   0.0000
    82 N11      0.7800   6.1283   8.9466   N.ar      1 RES1   0.0000
    83 O1       3.9916   7.5598   3.8900   O.3       1 RES1   0.0000
    84 O2       6.4080   9.0428   4.9821   O.3       1 RES1   0.0000
    85 O3       2.0428   8.8296  10.9106   O.3       1 RES1   0.0000
    86 O4       2.7813  10.2587   8.5167   O.3       1 RES1   0.0000
    87 O5       4.0222   9.2095   6.2354   O.3       1 RES1   0.0000
    88 O6       1.0400   4.6550  12.9024   O.3       1 RES1   0.0000
    89 O7       4.8874   9.0379  10.0179   O.3       1 RES1   0.0000
    90 O8       3.6748   6.1283   6.0378   O.3       1 RES1   0.0000
    91 O9       2.9626   7.6848   8.7022   O.3       1 RES1   0.0000
    92 O10      4.8655   6.1283  10.0214   O.3       1 RES1   0.0000
    93 O11      2.7769   6.1283  11.5260   O.3       1 RES1   0.0000
    94 O12      7.6315   6.1283   9.7093   O.3       1 RES1   0.0000
    95 O13      6.2507   6.1283   5.0878   O.3       1 RES1   0.0000
    96 O14      5.5275   7.6432   7.5095   O.3       1 RES1   0.0000
    97 C1G      5.3397   2.9930  14.0656   C.ar      1 RES1   0.0000
    98 C2G      6.0934   2.1253  14.8474   C.ar      1 RES1   0.0000
    99 H1G      6.6462   1.4977  14.4453   H         1 RES1   0.0000
   100 C3G      6.0169   2.1988  16.2342   C.ar      1 RES1   0.0000
   101 H2G      6.5216   1.6179  16.7577   H         1 RES1   0.0000
   102 C4G      5.1911   3.1401  16.8375   C.ar      1 RES1   0.0000
   103 H3G      5.1408   3.1891  17.7649   H         1 RES1   0.0000
   104 C5G      4.4373   4.0079  16.0539   C.ar      1 RES1   0.0000
   105 H4G      3.8846   4.6354  16.4578   H         1 RES1   0.0000
   106 C6G      4.5138   3.9343  14.6689   C.ar      1 RES1   0.0000
   107 C7G      7.3759   0.3236   7.2738   C.ar      1 RES1   0.0000
   108 C8G      8.1886  -0.4854   6.4937   C.ar      1 RES1   0.0000
   109 H5G      8.1886  -0.4706   5.5628   H         1 RES1   0.0000
   110 C9G      8.9861  -1.3090   7.2339   C.ar      1 RES1   0.0000
   111 H6G      9.5061  -1.9218   6.7676   H         1 RES1   0.0000
   112 C10G     9.0975  -1.3163   8.6311   C.ar      1 RES1   0.0000
   113 H7G      9.7377  -1.8409   9.0558   H         1 RES1   0.0000
   114 C11G     8.2389  -0.5295   9.3592   C.ar      1 RES1   0.0000
   115 H8G      8.2520  -0.5466  10.2901   H         1 RES1   0.0000
   116 C12G     7.3628   0.2794   8.6883   C.ar      1 RES1   0.0000
   117 C13G     0.7647   3.4931   4.7463   C.ar      1 RES1   0.0000
   118 C14G     0.5571   2.9710   3.4774   C.ar      1 RES1   0.0000
   119 H9G      0.7428   3.4514   2.7043   H         1 RES1   0.0000
   120 C15G     0.0590   1.6889   3.4479   C.ar      1 RES1   0.0000
   121 H10G    -0.0787   1.2796   2.6245   H         1 RES1   0.0000
   122 C16G    -0.2360   1.0050   4.5712   C.ar      1 RES1   0.0000
   123 H11G    -0.6008   0.1520   4.4915   H         1 RES1   0.0000
   124 C17G    -0.0175   1.5100   5.8246   C.ar      1 RES1   0.0000
   125 H12G    -0.2032   1.0148   6.5890   H         1 RES1   0.0000
   126 C18G     0.4872   2.7920   5.8939   C.ar      1 RES1   0.0000
   127 C19G    -0.8717   5.4272  10.0855   C.ar      1 RES1   0.0000
   128 C20G    -1.8265   4.6722  10.7217   C.ar      1 RES1   0.0000
   129 H13G    -1.8090   3.7431  10.7234   H         1 RES1   0.0000
   130 C21G    -2.8271   5.4002  11.3614   C.ar      1 RES1   0.0000
   131 H14G    -3.5110   4.9467  11.7999   H         1 RES1   0.0000
   132 C22G     4.4308   4.1966   2.6783   C.3       1 RES1   0.0000
   133 H15G     4.9267   4.8756   2.2137   H         1 RES1   0.0000
   134 H16G     4.9988   3.4367   2.8343   H         1 RES1   0.0000
   135 H17G     3.6770   3.9294   2.1495   H         1 RES1   0.0000
   136 C23G     7.6424   3.2553   4.2211   C.3       1 RES1   0.0000
   137 C24G     2.1892   2.1645  11.6578   C.3       1 RES1   0.0000
   138 H18G     2.9233   1.6620  11.2955   H         1 RES1   0.0000
   139 H19G     2.3618   2.3606  12.5835   H         1 RES1   0.0000
   140 H20G     1.3808   1.6522  11.5850   H         1 RES1   0.0000
   141 C25G     2.8359   0.5883   8.6294   C.3       1 RES1   0.0000
   142 H21G     2.0275   0.2672   9.0385   H         1 RES1   0.0000
   143 H22G     2.9276   0.2010   7.7557   H         1 RES1   0.0000
   144 H23G     3.5896   0.3383   9.1719   H         1 RES1   0.0000
   145 C26G     3.6246   1.9169   5.4553   C.3       1 RES1   0.0000
   146 H24G     4.3783   1.3409   5.3201   H         1 RES1   0.0000
   147 H25G     2.9320   1.4389   5.9147   H         1 RES1   0.0000
   148 H26G     3.2947   2.2184   4.6042   H         1 RES1   0.0000
   149 C27G     0.0240   8.2780  13.6218   C.3       1 RES1   0.0000
   150 H27G     0.3474   8.5060  14.4955   H         1 RES1   0.0000
   151 H28G    -0.2228   9.0796  13.1521   H         1 RES1   0.0000
   152 H29G    -0.7450   7.7093  13.7051   H         1 RES1   0.0000
   153 Cl2G    -0.3378   1.8228   9.4517   Cl        1 RES1   0.0000
   154 Cl3G     8.0661   2.3947  11.5399   Cl        1 RES1   0.0000
   155 Cl4G     5.1378   0.1017  11.7913   Cl        1 RES1   0.0000
   156 Fe1G     3.7035   4.6751  10.5841   Fe        1 RES1   0.0000
   157 Fe3G     5.9363   2.0373  10.9909   Fe        1 RES1   0.0000
   158 Fe5G     4.3748   3.1781   8.1570   Fe        1 RES1   0.0000
   159 Fe6G     1.3605   3.2418   9.0232   Fe        1 RES1   0.0000
   160 Fe9G     5.0093   4.6197   5.6086   Fe        1 RES1   0.0000
   161 N1G      3.9064   4.6182  13.6530   N.ar      1 RES1   0.0000
   162 N2G      4.3849   4.1059  12.5245   N.ar      1 RES1   0.0000
   163 N3G      5.2326   3.1303  12.7239   N.ar      1 RES1   0.0000
   164 N4G      6.4299   1.1766   9.1130   N.ar      1 RES1   0.0000
   165 N5G      5.9011   1.7110   8.0192   N.ar      1 RES1   0.0000
   166 N6G      6.4233   1.2379   6.8889   N.ar      1 RES1   0.0000
   167 N7G      0.8652   3.5642   6.9479   N.ar      1 RES1   0.0000
   168 N8G      1.3699   4.6942   6.4469   N.ar      1 RES1   0.0000
   169 N9G      1.3349   4.6991   5.1364   N.ar      1 RES1   0.0000
   170 N10G     0.1660   5.0301   9.3661   N.ar      1 RES1   0.0000
   171 O1G      3.9916   4.6967   3.8900   O.3       1 RES1   0.0000
   172 O2G      6.4080   3.2137   4.9821   O.3       1 RES1   0.0000
   173 O3G      2.0428   3.4269  10.9106   O.3       1 RES1   0.0000
   174 O4G      2.7813   1.9978   8.5167   O.3       1 RES1   0.0000
   175 O5G      4.0222   3.0470   6.2354   O.3       1 RES1   0.0000
   176 O6G      1.0400   7.6015  12.9024   O.3       1 RES1   0.0000
   177 O7G      4.8874   3.2186  10.0179   O.3       1 RES1   0.0000
   178 O9G      2.9626   4.5717   8.7022   O.3       1 RES1   0.0000
   179 O14G     5.5275   4.6133   7.5095   O.3       1 RES1   0.0000
   180 C29      9.1325   6.1283   2.4494   C.3       2 RES2   0.0000
   181 O15      7.6512   6.1283   2.6592   O.3       2 RES2   0.0000
   182 O16      7.9636   6.1283   7.0831   O.3       3 RES3   0.0000
@<TRIPOS>BOND
     1     1     2   ar
     2     2     3    1
     3     4     2   ar
     4     5     4    1
     5     6     4   ar
     6     7     6    1
     7     8     6   ar
     8     9     8    1
     9    10     1   ar
    10    11    12   ar
    11    12    13    1
    12    14    12   ar
    13    15    14    1
    14    16    14   ar
    15    17    16    1
    16    18    16   ar
    17    19    18    1
    18    20    11   ar
    19    21    22   ar
    20    22    23    1
    21    24    22   ar
    22    25    24    1
    23    26    24   ar
    24    27    26    1
    25    28    26   ar
    26    29    28    1
    27    30    21   ar
    28    31    32   ar
    29    32    33    1
    30    34    32   ar
    31    35    34    1
    32    36    37    1
    33    38    36    1
    34    39    36    1
    35    40    84    1
    36    41    42    1
    37    43    41    1
    38    44    41    1
    39    45    46    1
    40    47    45    1
    41    48    45    1
    42    49    50    1
    43    51    49    1
    44    52    49    1
    45    53    54    1
    46    55    53    1
    47    56    53    1
    48    57    94    1
    49    58    70    1
    50    59    68    1
    51    60    65    1
    52    61    65    1
    53    62    66    1
    54    63    73    1
    55    64    79    1
    56    65    74    1
    57    66    80    1
    58    67    76    1
    59    68    78    1
    60    69    92    1
    61    70    72    1
    62    71    83    1
    63    72    10   ar
    64    73    72   ar
    65    74     1   ar
    66    75    20   ar
    67    76    75   ar
    68    77    11   ar
    69    78    30   ar
    70    79    78   ar
    71    80    21   ar
    72    81    31   ar
    73    82    64    1
    74    83    36    1
    75    84    71    1
    76    85    41    1
    77    86    45    1
    78    87    49    1
    79    88    53    1
    80    89    63    1
    81    90    64    1
    82    91    63    1
    83    92    63    1
    84    93    63    1
    85    94    69    1
    86    95    71    1
    87    96    67    1
    88    97    98   ar
    89    98    99    1
    90   100    98   ar
    91   101   100    1
    92   102   100   ar
    93   103   102    1
    94   104   102   ar
    95   105   104    1
    96   106    97   ar
    97   107   108   ar
    98   108   109    1
    99   110   108   ar
   100   111   110    1
   101   112   110   ar
   102   113   112    1
   103   114   112   ar
   104   115   114    1
   105   116   107   ar
   106   117   118   ar
   107   118   119    1
   108   120   118   ar
   109   121   120    1
   110   122   120   ar
   111   123   122    1
   112   124   122   ar
   113   125   124    1
   114   126   117   ar
   115   127    31   ar
   116   128   127   ar
   117   129   128    1
   118   130    34   ar
   119   131   130    1
   120   132   133    1
   121   134   132    1
   122   135   132    1
   123   136   172    1
   124   137   138    1
   125   139   137    1
   126   140   137    1
   127   141   142    1
   128   143   141    1
   129   144   141    1
   130   145   146    1
   131   147   145    1
   132   148   145    1
   133   149   150    1
   134   151   149    1
   135   152   149    1
   136   153   159    1
   137   154   157    1
   138   155   157    1
   139   156    92    1
   140   157   163    1
   141   158   165    1
   142   159   167    1
   143   160    90    1
   144   161    70    1
   145   162   156    1
   146   163    97   ar
   147   164   116   ar
   148   165   164   ar
   149   166   107   ar
   150   167   126   ar
   151   168    64    1
   152   169    66    1
   153   170    82   ar
   154   171    66    1
   155   172   160    1
   156   173   137    1
   157   174   141    1
   158   175   145    1
   159   176    70    1
   160   177   156    1
   161   178    64    1
   162   179    69    1
   163     8    10   ar
   164    18    20   ar
   165    28    30   ar
   166    63    85    1
   167    64    91    1
   168    65    75    1
   169    65    89    1
   170    66    83    1
   171    66    90    1
   172    67    86    1
   173    67    87    1
   174    67    89    1
   175    67    91    1
   176    68    81    1
   177    68    85    1
   178    68    86    1
   179    68    91    1
   180    69    96    1
   181    70    88    1
   182    70    93    1
   183    71    87    1
   184    71    90    1
   185    71    96    1
   186    73    74   ar
   187    76    77   ar
   188    79    80   ar
   189    81    82   ar
   190    93   156    1
   191    95   160    1
   192   104   106   ar
   193   106   161   ar
   194   114   116   ar
   195   117   169   ar
   196   124   126   ar
   197   127   170   ar
   198   128   130   ar
   199   132   171    1
   200   149   176    1
   201   156   173    1
   202   156   178    1
   203   157   164    1
   204   157   177    1
   205   158   174    1
   206   158   175    1
   207   158   177    1
   208   158   178    1
   209   158   179    1
   210   159   170    1
   211   159   173    1
   212   159   174    1
   213   159   178    1
   214   160   171    1
   215   160   175    1
   216   160   179    1
   217   161   162   ar
   218   162   163   ar
   219   165   166   ar
   220   167   168   ar
   221   168   169   ar
   222   180   181    1
@<TRIPOS>SUBSTRUCTURE
     1 RES1        1 GROUP             0 ****  ****    0  
     2 RES2      180 GROUP             0 ****  ****    0  
     3 RES3      182 GROUP             0 ****  ****    0  
@<TRIPOS>CRYSIN
   21.8480   24.5130   17.3350   90.0000   90.0000   90.0000    62     1
