@<TRIPOS>MOLECULE
CIXTUA
   116   123     3     0     0
SMALL
USER_CHARGES
****
Generated from the CSD

@<TRIPOS>ATOM
     1 Fe1      3.1202  12.7114   7.3523   Fe        1 RES1   1.0000
     2 Br1      4.1008  17.3718   7.7615   Br        1 RES1   0.0000
     3 Br2     -1.3277  18.5578   6.9603   Br        1 RES1   0.0000
     4 Br3      1.3158  12.9160   2.9801   Br        1 RES1   0.0000
     5 Br4      6.3040  14.7803   1.0722   Br        1 RES1   0.0000
     6 O1       3.1428  14.5740   7.4898   O.3       1 RES1   0.0000
     7 C1       2.1115  15.3788   7.3778   C.ar      1 RES1   0.0000
     8 C2       2.3384  16.7722   7.4446   C.ar      1 RES1   0.0000
     9 C3       1.3464  17.7020   7.2944   C.ar      1 RES1   0.0000
    10 H1       1.5415  18.6309   7.3250   H         1 RES1   0.0000
    11 C4       0.0497  17.2568   7.0951   C.ar      1 RES1   0.0000
    12 C5      -0.2495  15.9251   7.0849   C.ar      1 RES1   0.0000
    13 H2      -1.1502  15.6438   6.9731   H         1 RES1   0.0000
    14 C6       0.7686  14.9682   7.2377   C.ar      1 RES1   0.0000
    15 C7       0.3708  13.5799   7.3496   C.2       1 RES1   0.0000
    16 H3      -0.5545  13.3734   7.2898   H         1 RES1   0.0000
    17 N1       1.2030  12.6077   7.5247   N.2       1 RES1   0.0000
    18 C8       0.6949  11.2318   7.6603   C.3       1 RES1   0.0000
    19 H4      -0.2256  11.1657   7.3002   H         1 RES1   0.0000
    20 H5       0.6830  10.9587   8.6124   H         1 RES1   0.0000
    21 C9       1.6332  10.3530   6.8717   C.3       1 RES1   0.0000
    22 H6       1.4458   9.4001   7.0601   H         1 RES1   0.0000
    23 H7       1.5110  10.5087   5.9010   H         1 RES1   0.0000
    24 N2       3.0261  10.6869   7.2702   N.3       1 RES1   0.0000
    25 H8       3.0816  10.3770   7.9873   H         1 RES1   0.0000
    26 C10      4.0413  10.0560   6.3880   C.3       1 RES1   0.0000
    27 H9       4.9378  10.3785   6.6544   H         1 RES1   0.0000
    28 H10      3.8809  10.3519   5.4560   H         1 RES1   0.0000
    29 C11      4.0386   8.5517   6.4242   C.3       1 RES1   0.0000
    30 H11      4.1263   8.2476   7.3519   H         1 RES1   0.0000
    31 H12      4.7888   8.2100   5.8968   H         1 RES1   0.0000
    32 H13      3.1959   8.2178   6.0479   H         1 RES1   0.0000
    33 O2       2.8107  12.7122   5.5015   O.3       1 RES1   0.0000
    34 C12      3.6492  13.0959   4.5672   C.ar      1 RES1   0.0000
    35 C13      3.1592  13.2352   3.2473   C.ar      1 RES1   0.0000
    36 C14      3.9446  13.6672   2.2066   C.ar      1 RES1   0.0000
    37 H14      3.5910  13.7387   1.3288   H         1 RES1   0.0000
    38 C15      5.2706  13.9976   2.4697   C.ar      1 RES1   0.0000
    39 C16      5.8115  13.8328   3.7064   C.ar      1 RES1   0.0000
    40 H15      6.7290  14.0351   3.8498   H         1 RES1   0.0000
    41 C17      5.0196  13.3632   4.7794   C.ar      1 RES1   0.0000
    42 C18      5.6555  13.1572   6.0560   C.2       1 RES1   0.0000
    43 H16      6.5945  13.2840   6.1142   H         1 RES1   0.0000
    44 N3       5.0256  12.8117   7.1193   N.2       1 RES1   0.0000
    45 C19      5.7773  12.5731   8.3645   C.3       1 RES1   0.0000
    46 H17      6.6728  12.9939   8.3164   H         1 RES1   0.0000
    47 H18      5.8896  11.6016   8.5214   H         1 RES1   0.0000
    48 C20      4.9565  13.1976   9.4672   C.3       1 RES1   0.0000
    49 H19      5.3306  12.9563  10.3511   H         1 RES1   0.0000
    50 H20      4.9599  14.1840   9.3824   H         1 RES1   0.0000
    51 N4       3.5733  12.6733   9.3323   N.3       1 RES1   0.0000
    52 H21      3.5540  11.9575   9.5169   H         1 RES1   0.0000
    53 C21      2.6095  13.3756  10.2358   C.3       1 RES1   0.0000
    54 H22      1.7240  12.9391  10.1627   H         1 RES1   0.0000
    55 H23      2.5088  14.3126   9.9330   H         1 RES1   0.0000
    56 C22      3.0386  13.3732  11.6902   C.3       1 RES1   0.0000
    57 H24      3.2653  12.4592  11.9634   H         1 RES1   0.0000
    58 H25      2.3059  13.7089  12.2491   H         1 RES1   0.0000
    59 H26      3.8234  13.9504  11.7999   H         1 RES1   0.0000
    60 B1      10.3459  12.7929   7.5993   B         2 RES2  -1.0000
    61 C23     11.4807  13.0821   8.7418   C.ar      2 RES2   0.0000
    62 C24     11.8797  14.3659   9.1036   C.ar      2 RES2   0.0000
    63 H27     11.3700  15.1044   8.7904   H         2 RES2   0.0000
    64 C25     12.9862  14.6159   9.8974   C.ar      2 RES2   0.0000
    65 H28     13.2212  15.5106  10.1151   H         2 RES2   0.0000
    66 C26     13.7468  13.5694  10.3713   C.ar      2 RES2   0.0000
    67 H29     14.5188  13.7340  10.8995   H         2 RES2   0.0000
    68 C27     13.3681  12.2758  10.0656   C.ar      2 RES2   0.0000
    69 H30     13.8667  11.5435  10.4090   H         2 RES2   0.0000
    70 C28     12.2705  12.0439   9.2659   C.ar      2 RES2   0.0000
    71 H31     12.0383  11.1468   9.0595   H         2 RES2   0.0000
    72 C29      9.3688  11.5186   7.9726   C.ar      2 RES2   0.0000
    73 C30      9.1052  11.0829   9.2752   C.ar      2 RES2   0.0000
    74 H32      9.5432  11.5138   9.9992   H         2 RES2   0.0000
    75 C31      8.2243  10.0416   9.5486   C.ar      2 RES2   0.0000
    76 H33      8.0680   9.7827  10.4483   H         2 RES2   0.0000
    77 C32      7.5723   9.3792   8.5205   C.ar      2 RES2   0.0000
    78 H34      6.9885   8.6522   8.7056   H         2 RES2   0.0000
    79 C33      7.7878   9.7982   7.2157   C.ar      2 RES2   0.0000
    80 H35      7.3445   9.3640   6.4971   H         2 RES2   0.0000
    81 C34      8.6526  10.8541   6.9665   C.ar      2 RES2   0.0000
    82 H36      8.7654  11.1421   6.0686   H         2 RES2   0.0000
    83 C35      9.3352  14.0691   7.3912   C.ar      2 RES2   0.0000
    84 C36      8.6693  14.6424   8.4829   C.ar      2 RES2   0.0000
    85 H37      8.8483  14.3157   9.3575   H         2 RES2   0.0000
    86 C37      7.7384  15.6971   8.3185   C.ar      2 RES2   0.0000
    87 H38      7.2786  16.0515   9.0698   H         2 RES2   0.0000
    88 C38      7.5034  16.2036   7.0601   C.ar      2 RES2   0.0000
    89 H39      6.9000  16.9296   6.9504   H         2 RES2   0.0000
    90 C39      8.1294  15.6721   5.9716   C.ar      2 RES2   0.0000
    91 H40      7.9620  16.0217   5.1041   H         2 RES2   0.0000
    92 C40      9.0136  14.6159   6.1421   C.ar      2 RES2   0.0000
    93 H41      9.4228  14.2436   5.3691   H         2 RES2   0.0000
    94 C41     11.2580  12.5392   6.2522   C.ar      2 RES2   0.0000
    95 C42     11.9757  13.5992   5.6822   C.ar      2 RES2   0.0000
    96 H42     11.8575  14.4725   6.0376   H         2 RES2   0.0000
    97 C43     12.8583  13.4267   4.6115   C.ar      2 RES2   0.0000
    98 H43     13.3338  14.1699   4.2596   H         2 RES2   0.0000
    99 C44     13.0351  12.1692   4.0684   C.ar      2 RES2   0.0000
   100 H44     13.6209  12.0422   3.3324   H         2 RES2   0.0000
   101 C45     12.3587  11.1139   4.5995   C.ar      2 RES2   0.0000
   102 H45     12.4784  10.2468   4.2327   H         2 RES2   0.0000
   103 C46     11.5000  11.2927   5.6644   C.ar      2 RES2   0.0000
   104 H46     11.0531  10.5322   6.0169   H         2 RES2   0.0000
   105 O3      10.5345   5.8042  10.5847   O.2       3 RES3   0.0000
   106 N5      11.1867   6.8548   8.6816   N.am      3 RES3   0.0000
   107 C47     10.5273   6.7657   9.8187   C.2       3 RES3   0.0000
   108 H47      9.9966   7.5122  10.0696   H         3 RES3   0.0000
   109 C48     12.0474   5.7776   8.2210   C.3       3 RES3   0.0000
   110 H48     12.1700   5.1258   8.9436   H         3 RES3   0.0000
   111 H49     12.9175   6.1434   7.9604   H         3 RES3   0.0000
   112 H50     11.6333   5.3359   7.4492   H         3 RES3   0.0000
   113 C49     11.1329   8.0479   7.8567   C.3       3 RES3   0.0000
   114 H51     10.4892   8.6804   8.2378   H         3 RES3   0.0000
   115 H52     10.8534   7.8055   6.9483   H         3 RES3   0.0000
   116 H53     12.0194   8.4640   7.8259   H         3 RES3   0.0000
@<TRIPOS>BOND
     1     1     6    1
     2     2     8    1
     3     3    11    1
     4     4    35    1
     5     5    38    1
     6     6     7    1
     7     7     8   ar
     8     8     9   ar
     9     9    10    1
    10    11     9   ar
    11    12    11   ar
    12    13    12    1
    13    14     7   ar
    14    15    14    1
    15    16    15    1
    16    17     1    1
    17    18    17    1
    18    19    18    1
    19    20    18    1
    20    21    18    1
    21    22    21    1
    22    23    21    1
    23    24     1    1
    24    25    24    1
    25    26    24    1
    26    27    26    1
    27    28    26    1
    28    29    26    1
    29    30    29    1
    30    31    29    1
    31    32    29    1
    32    33     1    1
    33    34    33    1
    34    35    34   ar
    35    36    35   ar
    36    37    36    1
    37    38    36   ar
    38    39    38   ar
    39    40    39    1
    40    41    34   ar
    41    42    41    1
    42    43    42    1
    43    44     1    1
    44    45    44    1
    45    46    45    1
    46    47    45    1
    47    48    45    1
    48    49    48    1
    49    50    48    1
    50    51     1    1
    51    52    51    1
    52    53    51    1
    53    54    53    1
    54    55    53    1
    55    56    53    1
    56    57    56    1
    57    58    56    1
    58    59    56    1
    59    12    14   ar
    60    15    17    2
    61    21    24    1
    62    39    41   ar
    63    42    44    2
    64    48    51    1
    65    60    61    1
    66    61    62   ar
    67    62    63    1
    68    64    62   ar
    69    65    64    1
    70    66    64   ar
    71    67    66    1
    72    68    66   ar
    73    69    68    1
    74    70    61   ar
    75    71    70    1
    76    72    60    1
    77    73    72   ar
    78    74    73    1
    79    75    73   ar
    80    76    75    1
    81    77    75   ar
    82    78    77    1
    83    79    77   ar
    84    80    79    1
    85    81    72   ar
    86    82    81    1
    87    83    60    1
    88    84    83   ar
    89    85    84    1
    90    86    84   ar
    91    87    86    1
    92    88    86   ar
    93    89    88    1
    94    90    88   ar
    95    91    90    1
    96    92    83   ar
    97    93    92    1
    98    94    60    1
    99    95    94   ar
   100    96    95    1
   101    97    95   ar
   102    98    97    1
   103    99    97   ar
   104   100    99    1
   105   101    99   ar
   106   102   101    1
   107   103    94   ar
   108   104   103    1
   109    68    70   ar
   110    79    81   ar
   111    90    92   ar
   112   101   103   ar
   113   105   107    2
   114   106   107   am
   115   107   108    1
   116   109   106    1
   117   110   109    1
   118   111   109    1
   119   112   109    1
   120   113   106    1
   121   114   113    1
   122   115   113    1
   123   116   113    1
@<TRIPOS>SUBSTRUCTURE
     1 RES1        1 GROUP             0 ****  ****    0  
     2 RES2       60 GROUP             0 ****  ****    0  
     3 RES3      105 GROUP             0 ****  ****    0  
@<TRIPOS>CRYSIN
   15.1177   15.6799   20.7440   90.0000   93.8180   90.0000   231     1
