@<TRIPOS>MOLECULE
COCLEP
   103   103     5     0     0
SMALL
USER_CHARGES
****
Generated from the CSD

@<TRIPOS>ATOM
     1 Gd1    -13.1695  -7.2960 -19.5360   Gd        1 RES1   0.0000
     2 Fe1    -17.6347 -10.4124 -19.3650   Fe        1 RES1   0.0000
     3 O1     -12.0336  -8.5352 -17.9564   O.3       1 RES1  -1.0000
     4 N1     -15.1627  -8.6015 -19.3369   N.1       1 RES1   0.0000
     5 C1     -16.8044 -11.6214 -18.1091   C.1       1 RES1   0.0000
     6 N2     -15.2227  -5.2882 -21.2418   N.ar      1 RES1   1.0000
     7 O2     -12.3267  -9.2152 -20.5787   O.3       1 RES1  -1.0000
     8 O3     -14.6635  -5.5587 -20.0723   O.3       1 RES1  -1.0000
     9 C2     -19.1591 -11.5410 -19.4273   C.1       1 RES1   0.0000
    10 C3     -16.1052  -9.2611 -19.3168   C.1       1 RES1   0.0000
    11 N3     -16.3676 -12.0118 -21.6759   N.1       1 RES1   0.0000
    12 O4     -13.0574  -6.8983 -21.8226   O.3       1 RES1  -1.0000
    13 C4     -18.3973  -9.3849 -17.9041   C.1       1 RES1   0.0000
    14 N4     -18.8787  -8.4943 -21.4267   N.1       1 RES1   0.0000
    15 N5     -12.0959 -10.4540 -20.0884   N.ar      1 RES1   1.0000
    16 N6     -18.8392  -8.7559 -17.0220   N.1       1 RES1   0.0000
    17 N7     -14.8304  -5.6238 -17.2049   N.ar      1 RES1   1.0000
    18 N8     -16.3013 -12.3473 -17.4299   N.1       1 RES1   0.0000
    19 C5     -14.7672  -4.4015 -17.1807   C.ar      1 RES1   0.0000
    20 C6     -10.8997 -10.8788 -19.8312   C.ar      1 RES1   0.0000
    21 N9     -20.0815 -12.2248 -19.4534   N.1       1 RES1   0.0000
    22 C7     -12.9976 -12.5361 -19.4293   C.ar      1 RES1   0.0000
    23 H1     -13.7334 -13.0771 -19.2565   H         1 RES1   0.0000
    24 O5     -13.7478  -6.3791 -17.4842   O.3       1 RES1  -1.0000
    25 C8     -16.8404 -11.4287 -20.8219   C.1       1 RES1   0.0000
    26 C9     -13.1551 -11.2680 -19.9498   C.ar      1 RES1   0.0000
    27 H2     -14.0001 -10.9758 -20.2070   H         1 RES1   0.0000
    28 C10    -18.4524  -9.2343 -20.6792   C.1       1 RES1   0.0000
    29 C11    -16.0496  -6.3357 -16.8974   C.ar      1 RES1   0.0000
    30 H3     -16.0668  -7.2657 -16.9215   H         1 RES1   0.0000
    31 C12    -10.7388 -12.1648 -19.3489   C.ar      1 RES1   0.0000
    32 H4      -9.8896 -12.4800 -19.1379   H         1 RES1   0.0000
    33 C13    -11.7985 -12.9520 -19.1842   C.ar      1 RES1   0.0000
    34 H5     -11.6738 -13.8247 -18.8868   H         1 RES1   0.0000
    35 N10    -11.5971  -8.4573 -16.6985   N.ar      1 RES1   1.0000
    36 N11    -12.2791  -7.5528 -22.6585   N.ar      1 RES1   1.0000
    37 C14    -14.1923  -8.9052 -23.2794   C.3       1 RES1   0.0000
    38 H6     -14.4086  -9.6438 -23.8521   H         1 RES1   0.0000
    39 H7     -14.3862  -9.1399 -22.3691   H         1 RES1   0.0000
    40 H8     -14.7149  -8.1409 -23.5306   H         1 RES1   0.0000
    41 C15    -10.9768  -7.1815 -22.6947   C.ar      1 RES1   0.0000
    42 H9     -10.6834  -6.4684 -22.1742   H         1 RES1   0.0000
    43 C16    -16.1799  -6.0537 -21.7020   C.ar      1 RES1   0.0000
    44 H10    -16.4687  -6.7835 -21.2037   H         1 RES1   0.0000
    45 C17    -14.7982  -4.1974 -21.9130   C.ar      1 RES1   0.0000
    46 C18    -15.9218  -3.6246 -16.8854   C.ar      1 RES1   0.0000
    47 H11    -15.8824  -2.6958 -16.9115   H         1 RES1   0.0000
    48 C19    -12.1728  -9.2534 -15.7621   C.ar      1 RES1   0.0000
    49 C20    -17.1299  -5.6671 -16.5839   C.ar      1 RES1   0.0000
    50 H12    -17.9198  -6.1150 -16.3790   H         1 RES1   0.0000
    51 C21    -12.7758  -8.5875 -23.4080   C.ar      1 RES1   0.0000
    52 C22    -10.5121  -7.6957 -16.4614   C.ar      1 RES1   0.0000
    53 H13    -10.1673  -7.1739 -17.1486   H         1 RES1   0.0000
    54 C23    -11.8793  -9.2726 -24.2038   C.ar      1 RES1   0.0000
    55 H14    -12.1696 -10.0036 -24.7001   H         1 RES1   0.0000
    56 C24    -13.4816  -3.7726 -17.5002   C.3       1 RES1   0.0000
    57 H15    -13.5677  -2.8183 -17.4460   H         1 RES1   0.0000
    58 H16    -12.8165  -4.0698 -16.8753   H         1 RES1   0.0000
    59 H17    -13.2172  -4.0201 -18.3904   H         1 RES1   0.0000
    60 C25    -10.0845  -7.8615 -23.5025   C.ar      1 RES1   0.0000
    61 H18     -9.1823  -7.6344 -23.5266   H         1 RES1   0.0000
    62 C26    -11.5793  -9.1565 -14.4841   C.ar      1 RES1   0.0000
    63 H19    -11.9604  -9.6094 -13.7667   H         1 RES1   0.0000
    64 C27     -9.8291  -9.9156 -20.0563   C.3       1 RES1   0.0000
    65 H20     -8.9840 -10.3200 -19.8392   H         1 RES1   0.0000
    66 H21     -9.8268  -9.6464 -20.9766   H         1 RES1   0.0000
    67 H22     -9.9681  -9.1463 -19.4976   H         1 RES1   0.0000
    68 C28    -16.3519  -4.7128 -23.6371   C.ar      1 RES1   0.0000
    69 H23    -16.7248  -4.5164 -24.4670   H         1 RES1   0.0000
    70 C29     -9.9189  -7.6702 -15.2577   C.ar      1 RES1   0.0000
    71 H24     -9.1599  -7.1573 -15.1030   H         1 RES1   0.0000
    72 C30    -10.5814  -8.8860 -24.2701   C.ar      1 RES1   0.0000
    73 H25    -10.0078  -9.3300 -24.8528   H         1 RES1   0.0000
    74 C31    -17.0806  -4.2561 -16.5638   C.ar      1 RES1   0.0000
    75 H26    -17.8342  -3.7624 -16.3308   H         1 RES1   0.0000
    76 C32    -10.4732  -8.4216 -14.2851   C.ar      1 RES1   0.0000
    77 H27    -10.0747  -8.4306 -13.4452   H         1 RES1   0.0000
    78 C33    -15.3767  -3.9218 -23.1227   C.ar      1 RES1   0.0000
    79 H28    -15.0950  -3.1755 -23.6009   H         1 RES1   0.0000
    80 C34    -13.7369  -3.4039 -21.3363   C.3       1 RES1   0.0000
    81 H29    -13.5379  -2.6652 -21.9150   H         1 RES1   0.0000
    82 H30    -14.0143  -3.0734 -20.4782   H         1 RES1   0.0000
    83 H31    -12.9524  -3.9474 -21.2298   H         1 RES1   0.0000
    84 C35    -16.7727  -5.7769 -22.9479   C.ar      1 RES1   0.0000
    85 H32    -17.4465  -6.3242 -23.2834   H         1 RES1   0.0000
    86 C36    -13.3649  -9.9398 -16.1037   C.3       1 RES1   0.0000
    87 H33    -13.6588 -10.4604 -15.3542   H         1 RES1   0.0000
    88 H34    -14.0442  -9.3032 -16.3388   H         1 RES1   0.0000
    89 H35    -13.1982 -10.5191 -16.8512   H         1 RES1   0.0000
    90 Gd1B   -21.9941 -13.6750 -19.5360   Gd        1 RES1   0.0000
    91 N9B    -11.2570  -5.8458 -19.4534   N.3       1 RES1   0.0000
    92 O6     -14.2896 -13.1676 -23.3357   O.3       2 RES2   0.0000
    93 H36    -15.0908 -12.8219 -22.9278   H         2 RES2   0.0000
    94 H37    -13.8865 -12.3881 -23.7516   H         2 RES2   0.0000
    95 O7     -20.4550  -6.7057 -15.5350   O.3       3 RES3   0.0000
    96 H38    -20.1703  -5.8305 -15.7741   H         3 RES3   0.0000
    97 H39    -19.8362  -7.2976 -15.9550   H         3 RES3   0.0000
    98 O8     -14.4167 -13.4777 -15.6958   O.3       4 RES4   0.0000
    99 H40    -14.3059 -12.5285 -15.6335   H         4 RES4   0.0000
   100 H41    -14.2341 -13.6894 -16.6181   H         4 RES4   0.0000
   101 O9     -20.3128  -6.4199 -22.8936   O.3       5 RES5   0.0000
   102 H42    -19.8731  -7.2083 -22.5460   H         5 RES5   0.0000
   103 H43    -19.6029  -5.8560 -23.1890   H         5 RES5   0.0000
@<TRIPOS>BOND
     1     1     3    1
     2     2     5    1
     3     3    35    1
     4     4     1    1
     5     5    18    3
     6     6     8    1
     7     7     1    1
     8     8     1    1
     9     9     2    1
    10    10     2    1
    11    11    25    3
    12    12     1    1
    13    13     2    1
    14    14    28    3
    15    15     7    1
    16    16    13    3
    17    17    19   ar
    18    19    46   ar
    19    20    15   ar
    20    21     9    3
    21    22    23    1
    22    24     1    1
    23    25     2    1
    24    26    15   ar
    25    27    26    1
    26    28     2    1
    27    29    17   ar
    28    30    29    1
    29    31    20   ar
    30    32    31    1
    31    33    22   ar
    32    34    33    1
    33    35    48   ar
    34    36    12    1
    35    37    38    1
    36    39    37    1
    37    40    37    1
    38    41    36   ar
    39    42    41    1
    40    43     6   ar
    41    44    43    1
    42    45     6   ar
    43    46    47    1
    44    48    62   ar
    45    49    29   ar
    46    50    49    1
    47    51    36   ar
    48    52    35   ar
    49    53    52    1
    50    54    51   ar
    51    55    54    1
    52    56    19    1
    53    57    56    1
    54    58    56    1
    55    59    56    1
    56    60    41   ar
    57    61    60    1
    58    62    63    1
    59    64    20    1
    60    65    64    1
    61    66    64    1
    62    67    64    1
    63    68    69    1
    64    70    52   ar
    65    71    70    1
    66    72    54   ar
    67    73    72    1
    68    74    46   ar
    69    75    74    1
    70    76    62   ar
    71    77    76    1
    72    78    45   ar
    73    79    78    1
    74    80    45    1
    75    81    80    1
    76    82    80    1
    77    83    80    1
    78    84    43   ar
    79    85    84    1
    80    86    48    1
    81    87    86    1
    82    88    86    1
    83    89    86    1
    84    90    21   un
    85    91     1   un
    86     4    10    3
    87    17    24    1
    88    22    26   ar
    89    31    33   ar
    90    37    51    1
    91    49    74   ar
    92    60    72   ar
    93    68    78   ar
    94    68    84   ar
    95    70    76   ar
    96    92    93    1
    97    94    92    1
    98    95    96    1
    99    97    95    1
   100    98    99    1
   101   100    98    1
   102   101   102    1
   103   103   101    1
@<TRIPOS>SUBSTRUCTURE
     1 RES1        1 GROUP             0 ****  ****    0  
     2 RES2       92 GROUP             0 ****  ****    0  
     3 RES3       95 GROUP             0 ****  ****    0  
     4 RES4       98 GROUP             0 ****  ****    0  
     5 RES5      101 GROUP             0 ****  ****    0  
@<TRIPOS>CRYSIN
   17.6491   12.7581   20.1771   90.0000   95.1880   90.0000     9     1
