@<TRIPOS>MOLECULE
CODNES
   218   225     9     0     0
SMALL
USER_CHARGES
****
Generated from the CSD

@<TRIPOS>ATOM
     1 P1       7.8702   4.8663   7.6914   P.3       1 RES1   1.0000
     2 C1       8.5104   6.5302   7.4699   C.ar      1 RES1   0.0000
     3 C2       9.2664   6.8202   6.3136   C.ar      1 RES1   0.0000
     4 H1       9.3879   6.1612   5.6414   H         1 RES1   0.0000
     5 C3       9.8277   8.0754   6.1730   C.ar      1 RES1   0.0000
     6 H2      10.3564   8.2731   5.4088   H         1 RES1   0.0000
     7 C4       9.6240   9.0490   7.1419   C.ar      1 RES1   0.0000
     8 H3      10.0036   9.9133   7.0349   H         1 RES1   0.0000
     9 C5       8.8680   8.7576   8.2580   C.ar      1 RES1   0.0000
    10 H4       8.7221   9.4296   8.9139   H         1 RES1   0.0000
    11 C6       8.3209   7.5010   8.4354   C.ar      1 RES1   0.0000
    12 H5       7.8172   7.3054   9.2165   H         1 RES1   0.0000
    13 C7       6.5537   4.8386   8.9123   C.ar      1 RES1   0.0000
    14 C8       6.8324   4.9795  10.2661   C.ar      1 RES1   0.0000
    15 H6       7.7284   5.1122  10.5536   H         1 RES1   0.0000
    16 C9       5.8140   4.9256  11.1981   C.ar      1 RES1   0.0000
    17 H7       6.0097   5.0197  12.1223   H         1 RES1   0.0000
    18 C10      4.4986   4.7351  10.7781   C.ar      1 RES1   0.0000
    19 H8       3.7973   4.6891  11.4181   H         1 RES1   0.0000
    20 C11      4.2180   4.6122   9.4378   C.ar      1 RES1   0.0000
    21 H9       3.3178   4.4972   9.1573   H         1 RES1   0.0000
    22 C12      5.2241   4.6550   8.4940   C.ar      1 RES1   0.0000
    23 H10      5.0202   4.5606   7.5701   H         1 RES1   0.0000
    24 C13      7.3568   2.9454   5.7731   C.ar      1 RES1   0.0000
    25 H11      7.7870   2.3428   6.3676   H         1 RES1   0.0000
    26 C14      6.8534   2.4897   4.5750   C.ar      1 RES1   0.0000
    27 H12      6.9295   1.5702   4.3485   H         1 RES1   0.0000
    28 C15      6.2373   3.3652   3.7031   C.ar      1 RES1   0.0000
    29 H13      5.8954   3.0502   2.8750   H         1 RES1   0.0000
    30 C16      6.1192   4.7033   4.0361   C.ar      1 RES1   0.0000
    31 H14      5.6975   5.3035   3.4332   H         1 RES1   0.0000
    32 C17      6.6076   5.1728   5.2359   C.ar      1 RES1   0.0000
    33 H15      6.5165   6.0901   5.4648   H         1 RES1   0.0000
    34 C18      7.2347   4.2904   6.1111   C.ar      1 RES1   0.0000
    35 C19      9.1566   3.7256   8.1928   C.ar      1 RES1   0.0000
    36 C20     10.3847   3.7740   7.5586   C.ar      1 RES1   0.0000
    37 H16     10.5856   4.4904   6.9672   H         1 RES1   0.0000
    38 C21     11.3219   2.7797   7.7828   C.ar      1 RES1   0.0000
    39 H17     12.1634   2.8099   7.3431   H         1 RES1   0.0000
    40 C22     11.0293   1.7441   8.6463   C.ar      1 RES1   0.0000
    41 H18     11.6694   1.0573   8.7927   H         1 RES1   0.0000
    42 C23      9.8246   1.6971   9.2938   C.ar      1 RES1   0.0000
    43 H19      9.6390   0.9869   9.8966   H         1 RES1   0.0000
    44 C24      8.8712   2.6858   9.0730   C.ar      1 RES1   0.0000
    45 H20      8.0333   2.6511   9.5195   H         1 RES1   0.0000
    46 P2       4.7955  12.4878   9.8944   P.3       2 RES2   1.0000
    47 C25      6.1014  12.5440   8.6446   C.ar      2 RES2   0.0000
    48 C26      5.7973  12.7898   7.3143   C.ar      2 RES2   0.0000
    49 H21      4.8980  12.9302   7.0422   H         2 RES2   0.0000
    50 C27      6.8268  12.8271   6.3906   C.ar      2 RES2   0.0000
    51 H22      6.6296  12.9883   5.4747   H         2 RES2   0.0000
    52 C28      8.1354  12.6324   6.7805   C.ar      2 RES2   0.0000
    53 H23      8.8331  12.6684   6.1364   H         2 RES2   0.0000
    54 C29      8.4327  12.3852   8.1124   C.ar      2 RES2   0.0000
    55 H24      9.3342  12.2514   8.3804   H         2 RES2   0.0000
    56 C30      7.4211  12.3341   9.0462   C.ar      2 RES2   0.0000
    57 H25      7.6206  12.1558   9.9570   H         2 RES2   0.0000
    58 C31      5.3636  13.4002  11.3320   C.ar      2 RES2   0.0000
    59 C32      6.1937  14.5076  11.1479   C.ar      2 RES2   0.0000
    60 H26      6.4753  14.7546  10.2742   H         2 RES2   0.0000
    61 C33      6.6032  15.2450  12.2473   C.ar      2 RES2   0.0000
    62 H27      7.1550  16.0082  12.1230   H         2 RES2   0.0000
    63 C34      6.2215  14.8846  13.5107   C.ar      2 RES2   0.0000
    64 H28      6.5176  15.3884  14.2599   H         2 RES2   0.0000
    65 C35      5.3985  13.7785  13.6981   C.ar      2 RES2   0.0000
    66 H29      5.1289  13.5315  14.5747   H         2 RES2   0.0000
    67 C36      4.9719  13.0370  12.6155   C.ar      2 RES2   0.0000
    68 H30      4.4120  12.2814  12.7460   H         2 RES2   0.0000
    69 C37      4.4162  10.7930  10.3665   C.ar      2 RES2   0.0000
    70 C38      5.2942   9.7518  10.0786   C.ar      2 RES2   0.0000
    71 H31      6.0774   9.9119   9.5649   H         2 RES2   0.0000
    72 C39      5.0140   8.4842  10.5455   C.ar      2 RES2   0.0000
    73 H32      5.6160   7.7712  10.3683   H         2 RES2   0.0000
    74 C40      3.8592   8.2467  11.2734   C.ar      2 RES2   0.0000
    75 H33      3.6756   7.3712  11.5934   H         2 RES2   0.0000
    76 C41      2.9779   9.2658  11.5345   C.ar      2 RES2   0.0000
    77 H34      2.1789   9.0892  12.0166   H         2 RES2   0.0000
    78 C42      3.2491  10.5541  11.0961   C.ar      2 RES2   0.0000
    79 H35      2.6493  11.2647  11.2906   H         2 RES2   0.0000
    80 C43      3.3097  13.2565   9.2336   C.ar      2 RES2   0.0000
    81 C44      2.2941  12.4888   8.6714   C.ar      2 RES2   0.0000
    82 H36      2.3712  11.5424   8.6421   H         2 RES2   0.0000
    83 C45      1.1754  13.1088   8.1610   C.ar      2 RES2   0.0000
    84 H37      0.4678  12.5867   7.8017   H         2 RES2   0.0000
    85 C46      1.0775  14.4814   8.1660   C.ar      2 RES2   0.0000
    86 H38      0.3098  14.9016   7.7969   H         2 RES2   0.0000
    87 C47      2.0899  15.2492   8.7065   C.ar      2 RES2   0.0000
    88 H39      2.0198  16.1962   8.7063   H         2 RES2   0.0000
    89 C48      3.2059  14.6374   9.2470   C.ar      2 RES2   0.0000
    90 H40      3.8996  15.1639   9.6270   H         2 RES2   0.0000
    91 P3       2.9518  10.2451   4.0930   P.3       3 RES3   1.0000
    92 C49      3.2681  12.0179   4.1600   C.ar      3 RES3   0.0000
    93 C50      4.2616  12.5730   3.3534   C.ar      3 RES3   0.0000
    94 H41      4.7577  12.0204   2.7607   H         3 RES3   0.0000
    95 C51      4.5204  13.9194   3.4187   C.ar      3 RES3   0.0000
    96 H42      5.1971  14.2994   2.8705   H         3 RES3   0.0000
    97 C52      3.7926  14.7300   4.2855   C.ar      3 RES3   0.0000
    98 H43      3.9795  15.6602   4.3328   H         3 RES3   0.0000
    99 C53      2.7999  14.1873   5.0786   C.ar      3 RES3   0.0000
   100 H44      2.3020  14.7476   5.6614   H         3 RES3   0.0000
   101 C54      2.5268  12.8326   5.0268   C.ar      3 RES3   0.0000
   102 H45      1.8454  12.4578   5.5732   H         3 RES3   0.0000
   103 C55      4.5446   9.4591   3.8320   C.ar      3 RES3   0.0000
   104 C56      5.6253   9.8623   4.6285   C.ar      3 RES3   0.0000
   105 H46      5.5009  10.5176   5.3046   H         3 RES3   0.0000
   106 C57      6.8609   9.3058   4.4277   C.ar      3 RES3   0.0000
   107 H47      7.5933   9.5712   4.9716   H         3 RES3   0.0000
   108 C58      7.0460   8.3571   3.4354   C.ar      3 RES3   0.0000
   109 H48      7.9031   7.9688   3.3055   H         3 RES3   0.0000
   110 C59      5.9805   7.9733   2.6305   C.ar      3 RES3   0.0000
   111 H49      6.1151   7.3355   1.9405   H         3 RES3   0.0000
   112 C60      4.7218   8.5173   2.8313   C.ar      3 RES3   0.0000
   113 H50      3.9898   8.2489   2.2893   H         3 RES3   0.0000
   114 C61      2.2259   9.6925   5.6476   C.ar      3 RES3   0.0000
   115 C62      3.0005   9.0117   6.5830   C.ar      3 RES3   0.0000
   116 H51      3.9143   8.8250   6.4024   H         3 RES3   0.0000
   117 C63      2.4305   8.6085   7.7811   C.ar      3 RES3   0.0000
   118 H52      2.9530   8.1356   8.4191   H         3 RES3   0.0000
   119 C64      1.0957   8.8929   8.0539   C.ar      3 RES3   0.0000
   120 H53      0.7069   8.6236   8.8775   H         3 RES3   0.0000
   121 C65      0.3421   9.5709   7.1185   C.ar      3 RES3   0.0000
   122 H54     -0.5679   9.7685   7.3065   H         3 RES3   0.0000
   123 C66      0.8884   9.9659   5.9120   C.ar      3 RES3   0.0000
   124 H55      0.3553  10.4192   5.2703   H         3 RES3   0.0000
   125 C67      1.8291   9.8237   2.7560   C.ar      3 RES3   0.0000
   126 C68      0.9566   8.7659   2.8916   C.ar      3 RES3   0.0000
   127 H56      0.9264   8.2753   3.7039   H         3 RES3   0.0000
   128 C69      0.1185   8.4179   1.8357   C.ar      3 RES3   0.0000
   129 H57     -0.4816   7.6868   1.9237   H         3 RES3   0.0000
   130 C70      0.1637   9.1360   0.6660   C.ar      3 RES3   0.0000
   131 H58     -0.4252   8.9109  -0.0454   H         3 RES3   0.0000
   132 C71      1.0430  10.1675   0.5104   C.ar      3 RES3   0.0000
   133 H59      1.0822  10.6412  -0.3126   H         3 RES3   0.0000
   134 C72      1.8763  10.5182   1.5546   C.ar      3 RES3   0.0000
   135 H60      2.4854  11.2401   1.4494   H         3 RES3   0.0000
   136 O1       6.3654  10.0142  13.3902   O.3       4 RES4   0.0000
   137 H61      6.2388   9.2734  13.7670   H         4 RES4   0.0000
   138 O2       9.8801  12.5178  11.5730   O.3       4 RES4   0.0000
   139 H62     10.6044  12.4405  11.1547   H         4 RES4   0.0000
   140 O3      12.8889   6.3562   9.2269   O.3       4 RES4   0.0000
   141 H63     13.1281   7.1374   9.0297   H         4 RES4   0.0000
   142 O4      10.1469   3.9977  12.1904   O.3       4 RES4   0.0000
   143 H64      9.4019   4.0559  12.5752   H         4 RES4   0.0000
   144 C73      8.2210   8.8197  12.3963   C.ar      4 RES4   0.0000
   145 H65      7.8121   7.9827  12.5845   H         4 RES4   0.0000
   146 C74      7.5796  10.0045  12.7644   C.ar      4 RES4   0.0000
   147 C75      8.1461  11.2404  12.4983   C.ar      4 RES4   0.0000
   148 H66      7.7118  12.0429  12.7627   H         4 RES4   0.0000
   149 C76      9.3687  11.2750  11.8357   C.ar      4 RES4   0.0000
   150 C77     10.0164  10.1136  11.4592   C.ar      4 RES4   0.0000
   151 H67     10.8448  10.1626  10.9957   H         4 RES4   0.0000
   152 C78      9.4527   8.8584  11.7587   C.ar      4 RES4   0.0000
   153 C79     10.1810   7.5935  11.3922   C.ar      4 RES4   0.0000
   154 C80     11.2180   7.5949  10.4552   C.ar      4 RES4   0.0000
   155 H68     11.4807   8.4081  10.0408   H         4 RES4   0.0000
   156 C81     11.8654   6.4101  10.1322   C.ar      4 RES4   0.0000
   157 C82     11.4979   5.2142  10.7195   C.ar      4 RES4   0.0000
   158 H69     11.9464   4.4082  10.4906   H         4 RES4   0.0000
   159 C83     10.4707   5.2032  11.6432   C.ar      4 RES4   0.0000
   160 C84      9.8182   6.3839  11.9896   C.ar      4 RES4   0.0000
   161 H70      9.1224   6.3661  12.6356   H         4 RES4   0.0000
   162 O5      -1.7669  -2.8253   3.9324   O.3       5 RES5   0.0000
   163 H71     -2.2092  -3.1941   4.5442   H         5 RES5   0.0000
   164 O6      -2.0495   0.9556   6.9026   O.3       5 RES5   0.0000
   165 H72     -2.5181   0.4224   7.3512   H         5 RES5   0.0000
   166 O7       1.2448   4.7447   1.9026   O.3       5 RES5   0.0000
   167 H73      1.9862   5.0814   1.6975   H         5 RES5   0.0000
   168 O8       3.2174   0.6034   0.4269   O.3       5 RES5   0.0000
   169 H74      3.9307   1.0405   0.3485   H         5 RES5   0.0000
   170 C85     -0.6910  -0.8078   3.4237   C.ar      5 RES5   0.0000
   171 H75     -0.3623  -1.2120   2.6287   H         5 RES5   0.0000
   172 C86     -1.4913  -1.5452   4.2838   C.ar      5 RES5   0.0000
   173 C87     -1.9603  -0.9749   5.4719   C.ar      5 RES5   0.0000
   174 H76     -2.4939  -1.4797   6.0736   H         5 RES5   0.0000
   175 C88     -1.6309   0.3397   5.7513   C.ar      5 RES5   0.0000
   176 C89     -0.8476   1.0964   4.8845   C.ar      5 RES5   0.0000
   177 H77     -0.6437   2.0003   5.0918   H         5 RES5   0.0000
   178 C90     -0.3619   0.5206   3.7082   C.ar      5 RES5   0.0000
   179 C91      0.5146   1.2884   2.7795   C.ar      5 RES5   0.0000
   180 C92      0.4884   2.6789   2.7477   C.ar      5 RES5   0.0000
   181 H78     -0.1284   3.1527   3.2932   H         5 RES5   0.0000
   182 C93      1.3542   3.3777   1.9260   C.ar      5 RES5   0.0000
   183 C94      2.2703   2.7148   1.1195   C.ar      5 RES5   0.0000
   184 H79      2.8521   3.1962   0.5437   H         5 RES5   0.0000
   185 C95      2.3123   1.3298   1.1780   C.ar      5 RES5   0.0000
   186 C96      1.4458   0.6214   1.9813   C.ar      5 RES5   0.0000
   187 H80      1.4823  -0.3276   1.9928   H         5 RES5   0.0000
   188 Fe1      5.8401   4.8284  15.9311   Fe        6 RES6   0.0000
   189 N1       8.0090   4.1123  13.8604   N.1       6 RES6   0.0000
   190 N2       8.0645   5.4600  17.9719   N.1       6 RES6   0.0000
   191 N3       5.7085   1.9319  16.9930   N.1       6 RES6   0.0000
   192 N4       3.7192   5.7583  17.9769   N.1       6 RES6   0.0000
   193 N5       3.5333   4.0267  14.0328   N.1       6 RES6   0.0000
   194 N6       5.8778   7.6487  14.6854   N.1       6 RES6   0.0000
   195 C97      7.1935   4.3484  14.6369   C.1       6 RES6   0.0000
   196 C98      7.2470   5.2336  17.1988   C.1       6 RES6  -1.0000
   197 C99      5.7838   3.0200  16.6148   C.1       6 RES6  -1.0000
   198 C100     4.5236   5.4089  17.2289   C.1       6 RES6   0.0000
   199 C101     4.4051   4.3291  14.7155   C.1       6 RES6   0.0000
   200 C102     5.8706   6.6131  15.1740   C.1       6 RES6  -1.0000
   201 N7       2.4182   3.9259   6.4525   N.1       7 RES7   0.0000
   202 C103     2.6402   5.6699   4.6519   C.3       7 RES7   0.0000
   203 H81      3.1544   5.2922   3.9069   H         7 RES7   0.0000
   204 H82      3.1137   6.4505   5.0104   H         7 RES7   0.0000
   205 H83      1.7556   5.9423   4.3333   H         7 RES7   0.0000
   206 C104     2.4998   4.7033   5.6610   C.1       7 RES7   0.0000
   207 N8      16.8044   3.1332   6.1831   N.1       8 RES8   0.0000
   208 C105    14.8540   4.0695   7.8715   C.3       8 RES8   0.0000
   209 H84     14.1021   4.4194   7.3506   H         8 RES8   0.0000
   210 H85     15.2312   4.7874   8.4234   H         8 RES8   0.0000
   211 H86     14.5427   3.3429   8.4497   H         8 RES8   0.0000
   212 C106    15.9481   3.5309   6.9060   C.1       8 RES8   0.0000
   213 N9      -0.5590   6.4998   4.9381   N.1       9 RES9   0.0000
   214 C107    -2.2172   6.7622   6.8457   C.3       9 RES9   0.0000
   215 H87     -3.0601   6.3087   6.6346   H         9 RES9   0.0000
   216 H88     -2.3868   7.7155   6.9935   H         9 RES9   0.0000
   217 H89     -1.8292   6.3694   7.6555   H         9 RES9   0.0000
   218 C108    -1.3248   6.6062   5.7798   C.1       9 RES9   0.0000
@<TRIPOS>BOND
     1     1     2    1
     2     2     3   ar
     3     3     4    1
     4     5     3   ar
     5     6     5    1
     6     7     5   ar
     7     8     7    1
     8     9     7   ar
     9    10     9    1
    10    11     2   ar
    11    12    11    1
    12    13     1    1
    13    14    13   ar
    14    15    14    1
    15    16    14   ar
    16    17    16    1
    17    18    16   ar
    18    19    18    1
    19    20    18   ar
    20    21    20    1
    21    22    13   ar
    22    23    22    1
    23    24    25    1
    24    26    24   ar
    25    27    26    1
    26    28    26   ar
    27    29    28    1
    28    30    28   ar
    29    31    30    1
    30    32    30   ar
    31    33    32    1
    32    34     1    1
    33    35     1    1
    34    36    35   ar
    35    37    36    1
    36    38    36   ar
    37    39    38    1
    38    40    38   ar
    39    41    40    1
    40    42    40   ar
    41    43    42    1
    42    44    35   ar
    43    45    44    1
    44     9    11   ar
    45    20    22   ar
    46    24    34   ar
    47    32    34   ar
    48    42    44   ar
    49    46    47    1
    50    47    48   ar
    51    48    49    1
    52    50    48   ar
    53    51    50    1
    54    52    50   ar
    55    53    52    1
    56    54    52   ar
    57    55    54    1
    58    56    47   ar
    59    57    56    1
    60    58    46    1
    61    59    58   ar
    62    60    59    1
    63    61    59   ar
    64    62    61    1
    65    63    61   ar
    66    64    63    1
    67    65    63   ar
    68    66    65    1
    69    67    58   ar
    70    68    67    1
    71    69    46    1
    72    70    69   ar
    73    71    70    1
    74    72    70   ar
    75    73    72    1
    76    74    72   ar
    77    75    74    1
    78    76    74   ar
    79    77    76    1
    80    78    69   ar
    81    79    78    1
    82    80    46    1
    83    81    80   ar
    84    82    81    1
    85    83    81   ar
    86    84    83    1
    87    85    83   ar
    88    86    85    1
    89    87    85   ar
    90    88    87    1
    91    89    80   ar
    92    90    89    1
    93    54    56   ar
    94    65    67   ar
    95    76    78   ar
    96    87    89   ar
    97    91    92    1
    98    92    93   ar
    99    93    94    1
   100    95    93   ar
   101    96    95    1
   102    97    95   ar
   103    98    97    1
   104    99    97   ar
   105   100    99    1
   106   101    92   ar
   107   102   101    1
   108   103    91    1
   109   104   103   ar
   110   105   104    1
   111   106   104   ar
   112   107   106    1
   113   108   106   ar
   114   109   108    1
   115   110   108   ar
   116   111   110    1
   117   112   103   ar
   118   113   112    1
   119   114    91    1
   120   115   114   ar
   121   116   115    1
   122   117   115   ar
   123   118   117    1
   124   119   117   ar
   125   120   119    1
   126   121   119   ar
   127   122   121    1
   128   123   114   ar
   129   124   123    1
   130   125    91    1
   131   126   125   ar
   132   127   126    1
   133   128   126   ar
   134   129   128    1
   135   130   128   ar
   136   131   130    1
   137   132   130   ar
   138   133   132    1
   139   134   125   ar
   140   135   134    1
   141    99   101   ar
   142   110   112   ar
   143   121   123   ar
   144   132   134   ar
   145   136   137    1
   146   138   139    1
   147   140   141    1
   148   142   143    1
   149   144   145    1
   150   146   136    1
   151   147   146   ar
   152   148   147    1
   153   149   138    1
   154   150   149   ar
   155   151   150    1
   156   152   144   ar
   157   153   152    1
   158   154   153   ar
   159   155   154    1
   160   156   140    1
   161   157   156   ar
   162   158   157    1
   163   159   142    1
   164   160   153   ar
   165   161   160    1
   166   144   146   ar
   167   147   149   ar
   168   150   152   ar
   169   154   156   ar
   170   157   159   ar
   171   159   160   ar
   172   162   163    1
   173   164   165    1
   174   166   167    1
   175   168   169    1
   176   170   171    1
   177   172   162    1
   178   173   172   ar
   179   174   173    1
   180   175   164    1
   181   176   175   ar
   182   177   176    1
   183   178   170   ar
   184   179   178    1
   185   180   179   ar
   186   181   180    1
   187   182   166    1
   188   183   182   ar
   189   184   183    1
   190   185   168    1
   191   186   179   ar
   192   187   186    1
   193   170   172   ar
   194   173   175   ar
   195   176   178   ar
   196   180   182   ar
   197   183   185   ar
   198   185   186   ar
   199   188   195    1
   200   189   195    3
   201   190   196    3
   202   191   197    3
   203   192   198    3
   204   193   199    3
   205   194   200    3
   206   196   188    1
   207   197   188    1
   208   198   188    1
   209   199   188    1
   210   200   188    1
   211   201   206    3
   212   202   203    1
   213   204   202    1
   214   205   202    1
   215   206   202    1
   216   207   212    3
   217   208   209    1
   218   210   208    1
   219   211   208    1
   220   212   208    1
   221   213   218    3
   222   214   215    1
   223   216   214    1
   224   217   214    1
   225   218   214    1
@<TRIPOS>SUBSTRUCTURE
     1 RES1        1 GROUP             0 ****  ****    0  
     2 RES2       46 GROUP             0 ****  ****    0  
     3 RES3       91 GROUP             0 ****  ****    0  
     4 RES4      136 GROUP             0 ****  ****    0  
     5 RES5      162 GROUP             0 ****  ****    0  
     6 RES6      188 GROUP             0 ****  ****    0  
     7 RES7      201 GROUP             0 ****  ****    0  
     8 RES8      207 GROUP             0 ****  ****    0  
     9 RES9      213 GROUP             0 ****  ****    0  
@<TRIPOS>CRYSIN
   39.6424   13.8089   16.7336   90.0000   90.0000   90.0000    33     1
