@<TRIPOS>MOLECULE
CODNUI
   262   273     9     0     0
SMALL
USER_CHARGES
****
Generated from the CSD

@<TRIPOS>ATOM
     1 Fe1     14.7961   5.2561  12.7751   Fe        1 RES1   0.0000
     2 N1      16.5241   7.4750  14.0399   N.1       1 RES1   0.0000
     3 N2      12.7415   5.4400  15.0911   N.1       1 RES1   0.0000
     4 N3      16.2973   2.9964  14.2980   N.1       1 RES1   0.0000
     5 N4      12.9868   3.2575  11.2795   N.1       1 RES1   0.0000
     6 N5      16.8083   5.3503  10.4248   N.1       1 RES1   0.0000
     7 N6      13.3283   7.5557  11.3393   N.1       1 RES1   0.0000
     8 C1      15.8876   6.6202  13.6058   C.1       1 RES1   0.0000
     9 C2      13.5089   5.3535  14.2297   C.1       1 RES1  -1.0000
    10 C3      15.7395   3.8249  13.7032   C.1       1 RES1   0.0000
    11 C4      13.6706   3.9815  11.8504   C.1       1 RES1  -1.0000
    12 C5      16.0644   5.2627  11.3051   C.1       1 RES1  -1.0000
    13 C6      13.8640   6.6824  11.8709   C.1       1 RES1   0.0000
    14 P1       9.1922   8.7016  13.9885   P.3       2 RES2   1.0000
    15 C7       7.8239   8.8164  15.1476   C.ar      2 RES2   0.0000
    16 C8       6.6368   9.4273  14.7613   C.ar      2 RES2   0.0000
    17 H1       6.5244   9.7284  13.8671   H         2 RES2   0.0000
    18 C9       5.6215   9.5945  15.6877   C.ar      2 RES2   0.0000
    19 H2       4.8052  10.0100  15.4338   H         2 RES2   0.0000
    20 C10      5.8072   9.1479  16.9919   C.ar      2 RES2   0.0000
    21 H3       5.1203   9.2787  17.6355   H         2 RES2   0.0000
    22 C11      6.9746   8.5188  17.3611   C.ar      2 RES2   0.0000
    23 H4       7.0805   8.2042  18.2505   H         2 RES2   0.0000
    24 C12      7.9938   8.3414  16.4398   C.ar      2 RES2   0.0000
    25 H5       8.7987   7.9018  16.6890   H         2 RES2   0.0000
    26 C13      9.3666   7.0333  13.3460   C.ar      2 RES2   0.0000
    27 C14      8.5903   5.9930  13.8485   C.ar      2 RES2   0.0000
    28 H6       7.9829   6.1434  14.5624   H         2 RES2   0.0000
    29 C15      8.7227   4.7260  13.2810   C.ar      2 RES2   0.0000
    30 H7       8.1932   4.0068  13.6063   H         2 RES2   0.0000
    31 C16      9.6174   4.5089  12.2486   C.ar      2 RES2   0.0000
    32 H8       9.6963   3.6427  11.8674   H         2 RES2   0.0000
    33 C17     10.3957   5.5431  11.7700   C.ar      2 RES2   0.0000
    34 H9      11.0245   5.3848  11.0757   H         2 RES2   0.0000
    35 C18     10.2594   6.8153  12.3085   C.ar      2 RES2   0.0000
    36 H10     10.7759   7.5352  11.9666   H         2 RES2   0.0000
    37 C19      8.8491   9.7887  12.6007   C.ar      2 RES2   0.0000
    38 C20      8.2486   9.2698  11.4487   C.ar      2 RES2   0.0000
    39 H11      8.1100   8.3343  11.3610   H         2 RES2   0.0000
    40 C21      7.8575  10.1360  10.4351   C.ar      2 RES2   0.0000
    41 H12      7.4428   9.7899   9.6534   H         2 RES2   0.0000
    42 C22      8.0689  11.4900  10.5513   C.ar      2 RES2   0.0000
    43 H13      7.7994  12.0751   9.8532   H         2 RES2   0.0000
    44 C23      8.6753  12.0024  11.6914   C.ar      2 RES2   0.0000
    45 H14      8.8278  12.9372  11.7668   H         2 RES2   0.0000
    46 C24      9.0604  11.1580  12.7187   C.ar      2 RES2   0.0000
    47 H15      9.4682  11.5123  13.5007   H         2 RES2   0.0000
    48 C25     10.6781   9.2377  14.8416   C.ar      2 RES2   0.0000
    49 C26     11.9225   8.7024  14.5408   C.ar      2 RES2   0.0000
    50 H16     11.9965   8.0099  13.8940   H         2 RES2   0.0000
    51 C27     13.0504   9.1730  15.1749   C.ar      2 RES2   0.0000
    52 H17     13.8990   8.8008  14.9651   H         2 RES2   0.0000
    53 C28     12.9595  10.1862  16.1201   C.ar      2 RES2   0.0000
    54 H18     13.7427  10.5118  16.5486   H         2 RES2   0.0000
    55 C29     11.7211  10.7196  16.4346   C.ar      2 RES2   0.0000
    56 H19     11.6570  11.4072  17.0877   H         2 RES2   0.0000
    57 C30     10.5715  10.2583  15.8073   C.ar      2 RES2   0.0000
    58 H20      9.7239  10.6272  16.0248   H         2 RES2   0.0000
    59 P2      13.7078   9.4900   4.2802   P.3       3 RES3   1.0000
    60 C31     11.9427   9.2802   4.0356   C.ar      3 RES3   0.0000
    61 C32     11.2036   8.5051   4.9107   C.ar      3 RES3   0.0000
    62 H21     11.6006   8.1640   5.7043   H         3 RES3   0.0000
    63 C33      9.8703   8.2309   4.6167   C.ar      3 RES3   0.0000
    64 H22      9.3570   7.6908   5.2053   H         3 RES3   0.0000
    65 C34      9.2955   8.7368   3.4784   C.ar      3 RES3   0.0000
    66 H23      8.3827   8.5500   3.2906   H         3 RES3   0.0000
    67 C35     10.0342   9.5217   2.5981   C.ar      3 RES3   0.0000
    68 H24      9.6277   9.8725   1.8142   H         3 RES3   0.0000
    69 C36     11.3557   9.7860   2.8664   C.ar      3 RES3   0.0000
    70 H25     11.8688  10.3093   2.2630   H         3 RES3   0.0000
    71 C37     14.4718   9.0096   2.7194   C.ar      3 RES3   0.0000
    72 C38     13.9511   7.9382   1.9947   C.ar      3 RES3   0.0000
    73 H26     13.1993   7.4626   2.3274   H         3 RES3   0.0000
    74 C39     14.5239   7.5677   0.8034   C.ar      3 RES3   0.0000
    75 H27     14.1616   6.8427   0.3067   H         3 RES3   0.0000
    76 C40     15.6320   8.2560   0.3248   C.ar      3 RES3   0.0000
    77 H28     16.0443   7.9820  -0.4866   H         3 RES3   0.0000
    78 C41     16.1338   9.3329   1.0187   C.ar      3 RES3   0.0000
    79 H29     16.8820   9.8094   0.6791   H         3 RES3   0.0000
    80 C42     15.5491   9.7238   2.2169   C.ar      3 RES3   0.0000
    81 H30     15.8845  10.4765   2.6891   H         3 RES3   0.0000
    82 C43     14.2277  11.1725   4.6372   C.ar      3 RES3   0.0000
    83 C44     13.4948  12.2679   4.1877   C.ar      3 RES3   0.0000
    84 H31     12.6368  12.1464   3.7995   H         3 RES3   0.0000
    85 C45     14.0380  13.5430   4.3142   C.ar      3 RES3   0.0000
    86 H32     13.5483  14.2983   4.0093   H         3 RES3   0.0000
    87 C46     15.2785  13.7116   4.8783   C.ar      3 RES3   0.0000
    88 H33     15.6430  14.5858   4.9546   H         3 RES3   0.0000
    89 C47     16.0034  12.6332   5.3363   C.ar      3 RES3   0.0000
    90 H34     16.8594  12.7648   5.7284   H         3 RES3   0.0000
    91 C48     15.4800  11.3569   5.2252   C.ar      3 RES3   0.0000
    92 H35     15.9706  10.6097   5.5460   H         3 RES3   0.0000
    93 C49     14.2456   8.4432   5.6303   C.ar      3 RES3   0.0000
    94 C50     14.0657   8.8835   6.9362   C.ar      3 RES3   0.0000
    95 H36     13.6843   9.7378   7.0996   H         3 RES3   0.0000
    96 C51     14.4449   8.0787   7.9994   C.ar      3 RES3   0.0000
    97 H37     14.3431   8.3884   8.8911   H         3 RES3   0.0000
    98 C52     14.9723   6.8161   7.7532   C.ar      3 RES3   0.0000
    99 H38     15.2307   6.2611   8.4798   H         3 RES3   0.0000
   100 C53     15.1205   6.3643   6.4457   C.ar      3 RES3   0.0000
   101 H39     15.4653   5.4940   6.2845   H         3 RES3   0.0000
   102 C54     14.7689   7.1770   5.3757   C.ar      3 RES3   0.0000
   103 H40     14.8827   6.8736   4.4832   H         3 RES3   0.0000
   104 P3      15.8217  13.4393  11.0468   P.3       4 RES4   1.0000
   105 C55     14.5615  13.3201  12.3375   C.ar      4 RES4   0.0000
   106 C56     14.4133  14.3255  13.2776   C.ar      4 RES4   0.0000
   107 H41     15.0060  15.0680  13.2807   H         4 RES4   0.0000
   108 C57     13.3902  14.2422  14.2177   C.ar      4 RES4   0.0000
   109 H42     13.3015  14.9100  14.8873   H         4 RES4   0.0000
   110 C58     12.5052  13.1892  14.1716   C.ar      4 RES4   0.0000
   111 H43     11.8034  13.1352  14.8099   H         4 RES4   0.0000
   112 C59     12.6297  12.2127  13.2075   C.ar      4 RES4   0.0000
   113 H44     12.0060  11.4968  13.1782   H         4 RES4   0.0000
   114 C60     13.6548  12.2684  12.2879   C.ar      4 RES4   0.0000
   115 H45     13.7386  11.5937  11.6244   H         4 RES4   0.0000
   116 C61     15.0792  14.2742   9.6386   C.ar      4 RES4   0.0000
   117 C62     14.2573  13.5277   8.7891   C.ar      4 RES4   0.0000
   118 H46     14.1573  12.5928   8.9255   H         4 RES4   0.0000
   119 C63     13.5837  14.1508   7.7447   C.ar      4 RES4   0.0000
   120 H47     13.0134  13.6478   7.1761   H         4 RES4   0.0000
   121 C64     13.7516  15.5122   7.5379   C.ar      4 RES4   0.0000
   122 H48     13.3106  15.9386   6.8131   H         4 RES4   0.0000
   123 C65     14.5575  16.2488   8.3806   C.ar      4 RES4   0.0000
   124 H49     14.6736  17.1788   8.2243   H         4 RES4   0.0000
   125 C66     15.2034  15.6470   9.4540   C.ar      4 RES4   0.0000
   126 H50     15.7239  16.1673  10.0557   H         4 RES4   0.0000
   127 C67     17.2600  14.3369  11.6418   C.ar      4 RES4   0.0000
   128 C68     18.1228  14.9237  10.7137   C.ar      4 RES4   0.0000
   129 H51     17.9163  14.8978   9.7864   H         4 RES4   0.0000
   130 C69     19.2744  15.5409  11.1513   C.ar      4 RES4   0.0000
   131 H52     19.8622  15.9451  10.5243   H         4 RES4   0.0000
   132 C70     19.5766  15.5739  12.5050   C.ar      4 RES4   0.0000
   133 H53     20.3655  16.0118  12.8037   H         4 RES4   0.0000
   134 C71     18.7332  14.9699  13.4195   C.ar      4 RES4   0.0000
   135 H54     18.9467  14.9919  14.3450   H         4 RES4   0.0000
   136 C72     17.5796  14.3331  12.9922   C.ar      4 RES4   0.0000
   137 H55     17.0126  13.8980  13.6179   H         4 RES4   0.0000
   138 C73     16.3589  11.8011  10.5052   C.ar      4 RES4   0.0000
   139 C74     16.8765  11.6717   9.2232   C.ar      4 RES4   0.0000
   140 H56     16.8734  12.4166   8.6344   H         4 RES4   0.0000
   141 C75     17.3979  10.4574   8.8010   C.ar      4 RES4   0.0000
   142 H57     17.7607  10.3691   7.9279   H         4 RES4   0.0000
   143 C76     17.3841   9.3738   9.6659   C.ar      4 RES4   0.0000
   144 H58     17.7123   8.5324   9.3718   H         4 RES4   0.0000
   145 C77     16.8982   9.5053  10.9479   C.ar      4 RES4   0.0000
   146 H59     16.9138   8.7629  11.5407   H         4 RES4   0.0000
   147 C78     16.3866  10.7245  11.3735   C.ar      4 RES4   0.0000
   148 H60     16.0563  10.8187  12.2594   H         4 RES4   0.0000
   149 O1      18.2486  15.4364  24.5092   O.3       5 RES5   0.0000
   150 H61     17.7338  15.8623  24.0001   H         5 RES5   0.0000
   151 O2      17.5650   9.9650  14.4515   O.3       5 RES5   0.0000
   152 H62     17.2341   9.2010  14.3407   H         5 RES5   0.0000
   153 O3      20.4892   7.6381  17.3990   O.3       5 RES5   0.0000
   154 H63     21.0944   7.7978  17.9592   H         5 RES5   0.0000
   155 C79     19.7524  13.6410  24.4750   C.ar      5 RES5   0.0000
   156 H64     19.7524  13.6410  25.4253   H         5 RES5   0.0000
   157 C80     18.9880  14.5625  23.7777   C.ar      5 RES5   0.0000
   158 C81     18.9979  14.5803  22.3778   C.ar      5 RES5   0.0000
   159 H65     18.4918  15.2294  21.9033   H         5 RES5   0.0000
   160 C82     19.7524  13.6410  21.6906   C.ar      5 RES5   0.0000
   161 C83     19.7524  13.6410  20.1796   C.ar      5 RES5   0.0000
   162 C84     19.6414  12.4493  19.4840   C.ar      5 RES5   0.0000
   163 H66     19.5773  11.6330  19.9655   H         5 RES5   0.0000
   164 C85     19.6222  12.4242  18.0807   C.ar      5 RES5   0.0000
   165 C86     19.7524  13.6410  17.4123   C.ar      5 RES5   0.0000
   166 H67     19.7524  13.6410  16.4628   H         5 RES5   0.0000
   167 C87     19.4630  11.1359  17.3228   C.ar      5 RES5   0.0000
   168 C88     18.6166  11.1417  16.1953   C.ar      5 RES5   0.0000
   169 H68     18.1983  11.9431  15.9052   H         5 RES5   0.0000
   170 C89     18.4132   9.9426  15.5185   C.ar      5 RES5   0.0000
   171 C90     19.0393   8.7692  15.9372   C.ar      5 RES5   0.0000
   172 H69     18.8941   7.9545  15.4698   H         5 RES5   0.0000
   173 C91     19.8768   8.8052  17.0465   C.ar      5 RES5   0.0000
   174 C92     20.0625   9.9939  17.7559   C.ar      5 RES5   0.0000
   175 H70     20.6027  10.0047  18.5371   H         5 RES5   0.0000
   176 O1A     21.2562  11.8455  24.5092   O.3       5 RES5   0.0000
   177 H61A    21.7710  11.4196  24.0001   H         5 RES5   0.0000
   178 O2A     21.9398  17.3169  14.4515   O.3       5 RES5   0.0000
   179 H62A    22.2707  18.0809  14.3407   H         5 RES5   0.0000
   180 O3A     19.0156  19.6438  17.3990   O.3       5 RES5   0.0000
   181 H63A    18.4104  19.4841  17.9592   H         5 RES5   0.0000
   182 C80A    20.5168  12.7194  23.7777   C.ar      5 RES5   0.0000
   183 C81A    20.5069  12.7016  22.3778   C.ar      5 RES5   0.0000
   184 H65A    21.0130  12.0525  21.9033   H         5 RES5   0.0000
   185 C84A    19.8634  14.8326  19.4840   C.ar      5 RES5   0.0000
   186 H66A    19.9275  15.6489  19.9655   H         5 RES5   0.0000
   187 C85A    19.8826  14.8577  18.0807   C.ar      5 RES5   0.0000
   188 C87A    20.0418  16.1460  17.3228   C.ar      5 RES5   0.0000
   189 C88A    20.8882  16.1402  16.1953   C.ar      5 RES5   0.0000
   190 H68A    21.3065  15.3388  15.9052   H         5 RES5   0.0000
   191 C89A    21.0916  17.3393  15.5185   C.ar      5 RES5   0.0000
   192 C90A    20.4655  18.5127  15.9372   C.ar      5 RES5   0.0000
   193 H69A    20.6107  19.3274  15.4698   H         5 RES5   0.0000
   194 C91A    19.6280  18.4767  17.0465   C.ar      5 RES5   0.0000
   195 C92A    19.4423  17.2880  17.7559   C.ar      5 RES5   0.0000
   196 H70A    18.9021  17.2772  18.5371   H         5 RES5   0.0000
   197 O4      11.0673   5.6255   6.8559   O.3       6 RES6   0.0000
   198 H71     10.4611   6.1506   7.1059   H         6 RES6   0.0000
   199 C93     11.6124   4.9762   7.9737   C.3       6 RES6   0.0000
   200 H72     12.2016   4.2522   7.6748   H         6 RES6   0.0000
   201 H73     10.8887   4.6039   8.5196   H         6 RES6   0.0000
   202 H74     12.1267   5.6179   8.5056   H         6 RES6   0.0000
   203 O5       8.1917  11.9710   0.8011   O.3       7 RES7   0.0000
   204 H75      7.7252  11.5193   1.3338   H         7 RES7   0.0000
   205 O6       9.2165   7.6752   8.0192   O.3       7 RES7   0.0000
   206 H76      8.4983   7.8545   7.6220   H         7 RES7   0.0000
   207 O7      12.6313   9.9718  10.4009   O.3       7 RES7   0.0000
   208 H77     12.7576   9.1956  10.6965   H         7 RES7   0.0000
   209 C94      9.8762  13.6410   0.8119   C.ar      7 RES7   0.0000
   210 H78      9.8762  13.6409  -0.1379   H         7 RES7   0.0000
   211 C95      9.0268  12.7949   1.5110   C.ar      7 RES7   0.0000
   212 C96      9.0288  12.7693   2.9006   C.ar      7 RES7   0.0000
   213 H79      8.4703  12.1753   3.3869   H         7 RES7   0.0000
   214 C97      9.8762  13.6410   3.5365   C.ar      7 RES7   0.0000
   215 C98      9.8762  13.6410   5.0577   C.ar      7 RES7   0.0000
   216 C99      9.9912  12.4403   5.7654   C.ar      7 RES7   0.0000
   217 H80     10.0389  11.6179   5.2921   H         7 RES7   0.0000
   218 C100    10.0366  12.4386   7.1670   C.ar      7 RES7   0.0000
   219 C101     9.8762  13.6410   7.8490   C.ar      7 RES7   0.0000
   220 H81      9.8762  13.6410   8.7982   H         7 RES7   0.0000
   221 C102    10.3151  11.1744   7.8883   C.ar      7 RES7   0.0000
   222 C103     9.6143  10.0092   7.5669   C.ar      7 RES7   0.0000
   223 H82      8.9400  10.0224   6.8975   H         7 RES7   0.0000
   224 C104     9.9177   8.8301   8.2387   C.ar      7 RES7   0.0000
   225 C105    10.9468   8.7785   9.1788   C.ar      7 RES7   0.0000
   226 H83     11.1825   7.9576   9.5960   H         7 RES7   0.0000
   227 C106    11.6223   9.9524   9.4950   C.ar      7 RES7   0.0000
   228 C107    11.3003  11.1419   8.8694   C.ar      7 RES7   0.0000
   229 H84     11.7521  11.9414   9.1123   H         7 RES7   0.0000
   230 O5A     11.5607  15.3109   0.8011   O.3       7 RES7   0.0000
   231 H75A    12.0272  15.7626   1.3338   H         7 RES7   0.0000
   232 O6A     10.5359  19.6067   8.0192   O.3       7 RES7   0.0000
   233 H76A    11.2541  19.4274   7.6220   H         7 RES7   0.0000
   234 O7A      7.1211  17.3101  10.4009   O.3       7 RES7   0.0000
   235 H77A     6.9948  18.0863  10.6965   H         7 RES7   0.0000
   236 C95A    10.7256  14.4870   1.5110   C.ar      7 RES7   0.0000
   237 C96A    10.7236  14.5126   2.9006   C.ar      7 RES7   0.0000
   238 H79A    11.2821  15.1066   3.3869   H         7 RES7   0.0000
   239 C99A     9.7612  14.8416   5.7654   C.ar      7 RES7   0.0000
   240 H80A     9.7135  15.6640   5.2921   H         7 RES7   0.0000
   241 C100A    9.7158  14.8433   7.1670   C.ar      7 RES7   0.0000
   242 C102A    9.4373  16.1075   7.8883   C.ar      7 RES7   0.0000
   243 C103A   10.1381  17.2727   7.5669   C.ar      7 RES7   0.0000
   244 H82A    10.8124  17.2595   6.8975   H         7 RES7   0.0000
   245 C104A    9.8347  18.4518   8.2387   C.ar      7 RES7   0.0000
   246 C105A    8.8056  18.5034   9.1788   C.ar      7 RES7   0.0000
   247 H83A     8.5699  19.3243   9.5960   H         7 RES7   0.0000
   248 C106A    8.1301  17.3295   9.4950   C.ar      7 RES7   0.0000
   249 C107A    8.4521  16.1400   8.8694   C.ar      7 RES7   0.0000
   250 H84A     8.0003  15.3405   9.1123   H         7 RES7   0.0000
   251 N7      13.8306   3.8519   4.5620   N.1       8 RES8   0.0000
   252 C108    11.6954   4.8725   3.6613   C.3       8 RES8   0.0000
   253 H85     11.6155   4.8511   2.6846   H         8 RES8   0.0000
   254 H86     11.6753   5.8024   3.9701   H         8 RES8   0.0000
   255 H87     10.9509   4.3783   4.0614   H         8 RES8   0.0000
   256 C109    12.9062   4.2833   4.0424   C.1       8 RES8   0.0000
   257 N8      16.5268  14.9723  16.1235   N.1       9 RES9   0.0000
   258 C110    16.3056  15.1606  18.6601   C.3       9 RES9   0.0000
   259 H88     15.3575  15.1355  18.9065   H         9 RES9   0.0000
   260 H89     16.6977  16.0089  18.9535   H         9 RES9   0.0000
   261 H90     16.7749  14.4165  19.0936   H         9 RES9   0.0000
   262 C111    16.4320  15.0405  17.2414   C.1       9 RES9   0.0000
@<TRIPOS>BOND
     1     1     8    1
     2     2     8    3
     3     3     9    3
     4     4    10    3
     5     5    11    3
     6     6    12    3
     7     7    13    3
     8     9     1    1
     9    10     1    1
    10    11     1    1
    11    12     1    1
    12    13     1    1
    13    14    15    1
    14    15    16   ar
    15    16    17    1
    16    18    16   ar
    17    19    18    1
    18    20    18   ar
    19    21    20    1
    20    22    20   ar
    21    23    22    1
    22    24    15   ar
    23    25    24    1
    24    26    14    1
    25    27    26   ar
    26    28    27    1
    27    29    27   ar
    28    30    29    1
    29    31    29   ar
    30    32    31    1
    31    33    31   ar
    32    34    33    1
    33    35    26   ar
    34    36    35    1
    35    37    14    1
    36    38    37   ar
    37    39    38    1
    38    40    38   ar
    39    41    40    1
    40    42    40   ar
    41    43    42    1
    42    44    42   ar
    43    45    44    1
    44    46    37   ar
    45    47    46    1
    46    48    14    1
    47    49    48   ar
    48    50    49    1
    49    51    49   ar
    50    52    51    1
    51    53    51   ar
    52    54    53    1
    53    55    53   ar
    54    56    55    1
    55    57    48   ar
    56    58    57    1
    57    22    24   ar
    58    33    35   ar
    59    44    46   ar
    60    55    57   ar
    61    59    60    1
    62    60    61   ar
    63    61    62    1
    64    63    61   ar
    65    64    63    1
    66    65    63   ar
    67    66    65    1
    68    67    65   ar
    69    68    67    1
    70    69    60   ar
    71    70    69    1
    72    71    59    1
    73    72    71   ar
    74    73    72    1
    75    74    72   ar
    76    75    74    1
    77    76    74   ar
    78    77    76    1
    79    78    76   ar
    80    79    78    1
    81    80    71   ar
    82    81    80    1
    83    82    59    1
    84    83    82   ar
    85    84    83    1
    86    85    83   ar
    87    86    85    1
    88    87    85   ar
    89    88    87    1
    90    89    87   ar
    91    90    89    1
    92    91    82   ar
    93    92    91    1
    94    93    59    1
    95    94    93   ar
    96    95    94    1
    97    96    94   ar
    98    97    96    1
    99    98    96   ar
   100    99    98    1
   101   100    98   ar
   102   101   100    1
   103   102    93   ar
   104   103   102    1
   105    67    69   ar
   106    78    80   ar
   107    89    91   ar
   108   100   102   ar
   109   104   105    1
   110   105   106   ar
   111   106   107    1
   112   108   106   ar
   113   109   108    1
   114   110   108   ar
   115   111   110    1
   116   112   110   ar
   117   113   112    1
   118   114   105   ar
   119   115   114    1
   120   116   104    1
   121   117   116   ar
   122   118   117    1
   123   119   117   ar
   124   120   119    1
   125   121   119   ar
   126   122   121    1
   127   123   121   ar
   128   124   123    1
   129   125   116   ar
   130   126   125    1
   131   127   104    1
   132   128   127   ar
   133   129   128    1
   134   130   128   ar
   135   131   130    1
   136   132   130   ar
   137   133   132    1
   138   134   132   ar
   139   135   134    1
   140   136   127   ar
   141   137   136    1
   142   138   104    1
   143   139   138   ar
   144   140   139    1
   145   141   139   ar
   146   142   141    1
   147   143   141   ar
   148   144   143    1
   149   145   143   ar
   150   146   145    1
   151   147   138   ar
   152   148   147    1
   153   112   114   ar
   154   123   125   ar
   155   134   136   ar
   156   145   147   ar
   157   149   150    1
   158   151   152    1
   159   153   154    1
   160   155   156    1
   161   157   149    1
   162   158   157   ar
   163   159   158    1
   164   160   158   ar
   165   161   160    1
   166   162   161   ar
   167   163   162    1
   168   164   162   ar
   169   165   164   ar
   170   166   165    1
   171   167   164    1
   172   168   167   ar
   173   169   168    1
   174   170   151    1
   175   171   170   ar
   176   172   171    1
   177   173   153    1
   178   174   167   ar
   179   175   174    1
   180   176   177    1
   181   178   179    1
   182   180   181    1
   183   182   155   ar
   184   183   160   ar
   185   184   183    1
   186   185   161   ar
   187   186   185    1
   188   187   165   ar
   189   188   187    1
   190   189   188   ar
   191   190   189    1
   192   191   178    1
   193   192   191   ar
   194   193   192    1
   195   194   180    1
   196   195   188   ar
   197   196   195    1
   198   155   157   ar
   199   168   170   ar
   200   171   173   ar
   201   173   174   ar
   202   176   182    1
   203   182   183   ar
   204   185   187   ar
   205   189   191   ar
   206   192   194   ar
   207   194   195   ar
   208   197   198    1
   209   199   197    1
   210   200   199    1
   211   201   199    1
   212   202   199    1
   213   203   204    1
   214   205   206    1
   215   207   208    1
   216   209   210    1
   217   211   203    1
   218   212   211   ar
   219   213   212    1
   220   214   212   ar
   221   215   214    1
   222   216   215   ar
   223   217   216    1
   224   218   216   ar
   225   219   218   ar
   226   220   219    1
   227   221   218    1
   228   222   221   ar
   229   223   222    1
   230   224   205    1
   231   225   224   ar
   232   226   225    1
   233   227   207    1
   234   228   221   ar
   235   229   228    1
   236   230   231    1
   237   232   233    1
   238   234   235    1
   239   236   209   ar
   240   237   214   ar
   241   238   237    1
   242   239   215   ar
   243   240   239    1
   244   241   219   ar
   245   242   241    1
   246   243   242   ar
   247   244   243    1
   248   245   232    1
   249   246   245   ar
   250   247   246    1
   251   248   234    1
   252   249   242   ar
   253   250   249    1
   254   209   211   ar
   255   222   224   ar
   256   225   227   ar
   257   227   228   ar
   258   230   236    1
   259   236   237   ar
   260   239   241   ar
   261   243   245   ar
   262   246   248   ar
   263   248   249   ar
   264   251   256    3
   265   252   253    1
   266   254   252    1
   267   255   252    1
   268   256   252    1
   269   257   262    3
   270   258   259    1
   271   260   258    1
   272   261   258    1
   273   262   258    1
@<TRIPOS>SUBSTRUCTURE
     1 RES1        1 GROUP             0 ****  ****    0  
     2 RES2       14 GROUP             0 ****  ****    0  
     3 RES3       59 GROUP             0 ****  ****    0  
     4 RES4      104 GROUP             0 ****  ****    0  
     5 RES5      149 GROUP             0 ****  ****    0  
     6 RES6      197 GROUP             0 ****  ****    0  
     7 RES7      203 GROUP             0 ****  ****    0  
     8 RES8      251 GROUP             0 ****  ****    0  
     9 RES9      257 GROUP             0 ****  ****    0  
@<TRIPOS>CRYSIN
   19.7524   27.2819   17.0927   90.0000   90.0000   90.0000    18     1
