@<TRIPOS>MOLECULE
COGBEG
   117   135     1     0     0
SMALL
NO_CHARGES
****
Generated from the CSD

@<TRIPOS>ATOM
     1 Fe1     -0.0659   6.8355  20.7523   Fe        1 RES1   0.0000
     2 Na1     -0.1720   9.6384  19.4574   Na        1 RES1   0.0000
     3 Na2      1.3923   7.2643  23.5270   Na        1 RES1   0.0000
     4 O1       0.8928   7.4640  25.8136   O.3       1 RES1   0.0000
     5 O2       3.6750   6.8822  23.7746   O.3       1 RES1   0.0000
     6 N1      -1.5643   7.0964  21.8826   N.2       1 RES1   0.0000
     7 N2       0.4591   8.4226  21.5567   N.2       1 RES1   0.0000
     8 N3       1.5631   7.1070  19.8489   N.2       1 RES1   0.0000
     9 N4      -0.4843   5.3577  19.9727   N.1       1 RES1   0.0000
    10 N5      -0.6614   4.3766  19.4009   N.1       1 RES1   0.0000
    11 C1       3.6080   8.5614  19.5297   C.3       1 RES1   0.0000
    12 H1       3.8204   7.8712  18.8833   H         1 RES1   0.0000
    13 H2       4.3098   8.6051  20.1983   H         1 RES1   0.0000
    14 H3       3.5384   9.4169  19.0790   H         1 RES1   0.0000
    15 C2       2.3155   8.2415  20.1884   C.3       1 RES1   0.0000
    16 C3       1.7110   9.0070  21.1790   C.3       1 RES1   0.0000
    17 C4       2.0841  10.2103  21.8180   C.2       1 RES1   0.0000
    18 H4       2.8985  10.6294  21.6075   H         1 RES1   0.0000
    19 C5       1.2267  10.7696  22.7739   C.2       1 RES1   0.0000
    20 H5       1.4948  11.5576  23.2122   H         1 RES1   0.0000
    21 C6       0.0063  10.2142  23.0971   C.2       1 RES1   0.0000
    22 H6      -0.5451  10.6347  23.7323   H         1 RES1   0.0000
    23 C7      -0.4123   9.0322  22.4891   C.3       1 RES1   0.0000
    24 C8      -1.5707   8.2613  22.6674   C.2       1 RES1   0.0000
    25 C9      -2.7253   8.6580  23.4995   C.3       1 RES1   0.0000
    26 H7      -3.4031   7.9638  23.4648   H         1 RES1   0.0000
    27 H8      -3.0958   9.4896  23.1652   H         1 RES1   0.0000
    28 H9      -2.4357   8.7796  24.4183   H         1 RES1   0.0000
    29 C10     -2.5950   6.1206  22.0557   C.ar      1 RES1   0.0000
    30 C11     -2.5849   5.3114  23.2048   C.ar      1 RES1   0.0000
    31 C12     -3.5384   4.3131  23.3187   C.ar      1 RES1   0.0000
    32 H10     -3.5574   3.7882  24.1013   H         1 RES1   0.0000
    33 C13     -4.4578   4.0632  22.3331   C.ar      1 RES1   0.0000
    34 H11     -5.0939   3.3783  22.4272   H         1 RES1   0.0000
    35 C14     -4.4224   4.8420  21.1988   C.ar      1 RES1   0.0000
    36 H12     -5.0269   4.6556  20.5029   H         1 RES1   0.0000
    37 C15     -3.5359   5.8786  21.0453   C.ar      1 RES1   0.0000
    38 C16     -0.3756   4.5167  24.0320   C.3       1 RES1   0.0000
    39 H13     -0.0392   4.6529  23.1330   H         1 RES1   0.0000
    40 H14     -0.6867   3.6018  24.1261   H         1 RES1   0.0000
    41 H15      0.3351   4.6833  24.6709   H         1 RES1   0.0000
    42 C17     -1.5327   5.4767  24.2920   C.3       1 RES1   0.0000
    43 H16     -1.1761   6.3983  24.2202   H         1 RES1   0.0000
    44 C18     -2.0727   5.3035  25.7185   C.3       1 RES1   0.0000
    45 H17     -2.7961   5.9315  25.8695   H         1 RES1   0.0000
    46 H18     -1.3607   5.4701  26.3574   H         1 RES1   0.0000
    47 H19     -2.4015   4.3977  25.8324   H         1 RES1   0.0000
    48 C19     -3.7420   6.0545  18.5094   C.3       1 RES1   0.0000
    49 H20     -2.9630   5.4820  18.4252   H         1 RES1   0.0000
    50 H21     -3.7635   6.6839  17.7738   H         1 RES1   0.0000
    51 H22     -4.5450   5.5111  18.4945   H         1 RES1   0.0000
    52 C20     -3.6687   6.8201  19.8343   C.3       1 RES1   0.0000
    53 H23     -2.8656   7.3979  19.8070   H         1 RES1   0.0000
    54 C21     -4.9004   7.7245  19.9953   C.3       1 RES1   0.0000
    55 H24     -4.8422   8.2018  20.8373   H         1 RES1   0.0000
    56 H25     -5.7034   7.1824  19.9854   H         1 RES1   0.0000
    57 H26     -4.9308   8.3618  19.2647   H         1 RES1   0.0000
    58 C22      2.0386   6.1973  18.8709   C.ar      1 RES1   0.0000
    59 C23      1.6680   6.3480  17.5287   C.ar      1 RES1   0.0000
    60 C24      1.9134   5.2982  16.6347   C.ar      1 RES1   0.0000
    61 H27      1.6200   5.3696  15.7456   H         1 RES1   0.0000
    62 C25      2.5811   4.1597  17.0383   C.ar      1 RES1   0.0000
    63 H28      2.7594   3.4722  16.4217   H         1 RES1   0.0000
    64 C26      2.9820   4.0341  18.3385   C.ar      1 RES1   0.0000
    65 H29      3.4170   3.2474  18.6134   H         1 RES1   0.0000
    66 C27      2.7581   5.0522  19.2696   C.ar      1 RES1   0.0000
    67 C28      1.6035   8.2256  15.8446   C.3       1 RES1   0.0000
    68 H30      2.5280   8.4332  16.0477   H         1 RES1   0.0000
    69 H31      1.1293   9.0427  15.6218   H         1 RES1   0.0000
    70 H32      1.5669   7.6147  15.0918   H         1 RES1   0.0000
    71 C29      0.9459   7.5737  17.0656   C.3       1 RES1   0.0000
    72 C30     -0.4932   7.2524  16.7560   C.3       1 RES1   0.0000
    73 H34     -0.9093   6.8492  17.5336   H         1 RES1   0.0000
    74 H35     -0.5324   6.6350  16.0081   H         1 RES1   0.0000
    75 H36     -0.9636   8.0682  16.5232   H         1 RES1   0.0000
    76 C31      4.7385   4.6133  20.7456   C.3       1 RES1   0.0000
    77 H37      5.2052   5.3259  20.2825   H         1 RES1   0.0000
    78 H38      4.9421   3.7644  20.3197   H         1 RES1   0.0000
    79 H39      5.0256   4.5868  21.6719   H         1 RES1   0.0000
    80 C32      3.2400   4.8645  20.6837   C.3       1 RES1   0.0000
    81 H40      3.0705   5.7147  21.1617   H         1 RES1   0.0000
    82 C33      2.4799   3.7935  21.4118   C.3       1 RES1   0.0000
    83 H41      1.5302   3.9865  21.3722   H         1 RES1   0.0000
    84 H42      2.7657   3.7657  22.3380   H         1 RES1   0.0000
    85 H43      2.6532   2.9340  20.9933   H         1 RES1   0.0000
    86 C34      0.0847   8.4755  26.3599   C.3       1 RES1   0.0000
    87 H44     -0.8372   8.3710  26.0429   H         1 RES1   0.0000
    88 H45      0.4110   9.3521  26.0701   H         1 RES1   0.0000
    89 C35      0.1151   8.3988  27.8037   C.3       1 RES1   0.0000
    90 H46     -0.7954   8.4054  28.1677   H         1 RES1   0.0000
    91 H47      0.6083   9.1578  28.1776   H         1 RES1   0.0000
    92 C36      0.7967   7.1242  28.1355   C.3       1 RES1   0.0000
    93 H48      0.1505   6.4088  28.3138   H         1 RES1   0.0000
    94 H49      1.3873   7.2247  28.9107   H         1 RES1   0.0000
    95 C37      1.5694   6.8584  26.8948   C.3       1 RES1   0.0000
    96 H50      2.4736   7.2286  26.9765   H         1 RES1   0.0000
    97 H51      1.6453   5.8919  26.7462   H         1 RES1   0.0000
    98 C38      4.6475   7.7417  23.1627   C.3       1 RES1   0.0000
    99 H52      4.5552   8.6566  23.5020   H         1 RES1   0.0000
   100 H53      4.5248   7.7575  22.1894   H         1 RES1   0.0000
   101 C39      6.0032   7.1876  23.5094   C.3       1 RES1   0.0000
   102 H54      6.6051   7.8990  23.8165   H         1 RES1   0.0000
   103 H55      6.4078   6.7394  22.7392   H         1 RES1   0.0000
   104 C40      5.7262   6.2013  24.6214   C.3       1 RES1   0.0000
   105 H56      6.2852   5.4026  24.5248   H         1 RES1   0.0000
   106 H57      5.8969   6.6059  25.4956   H         1 RES1   0.0000
   107 C41      4.3275   5.8720  24.4703   C.3       1 RES1   0.0000
   108 H58      4.2377   5.0258  23.9849   H         1 RES1   0.0000
   109 H59      3.9178   5.7623  25.3544   H         1 RES1   0.0000
   110 Na1B     0.1720   3.0272  17.6901   Na        1 RES1   0.0000
   111 N5B      0.6614  10.9877  17.7466   N.3       1 RES1   0.0000
   112 C24B    -1.9134  11.9093  20.5128   C.3       1 RES1   0.0000
   113 H27B    -1.6200  11.9807  21.4019   H         1 RES1   0.0000
   114 C25B    -2.5811  10.7709  20.1092   C.3       1 RES1   0.0000
   115 H28B    -2.7594  10.0833  20.7258   H         1 RES1   0.0000
   116 C26B    -2.9820  10.6453  18.8090   C.3       1 RES1   0.0000
   117 H29B    -3.4170   9.8585  18.5341   H         1 RES1   0.0000
@<TRIPOS>BOND
     1     1     2    1
     2     2     7   un
     3     3     1    1
     4     4     3    1
     5     5     3    1
     6     6     1    1
     7     7     1    1
     8     8     1    1
     9     9     1    1
    10    10     9    3
    11    11    12    1
    12    13    11    1
    13    14    11    1
    14    15     2   un
    15    16     2   un
    16    17    16    1
    17    18    17    1
    18    19    17   un
    19    20    19    1
    20    21    19   un
    21    22    21    1
    22    23     2   un
    23    24     6    2
    24    25    24    1
    25    26    25    1
    26    27    25    1
    27    28    25    1
    28    29     6    1
    29    30    29   ar
    30    31    30   ar
    31    32    31    1
    32    33    31   ar
    33    34    33    1
    34    35    33   ar
    35    36    35    1
    36    37    29   ar
    37    38    39    1
    38    40    38    1
    39    41    38    1
    40    42    30    1
    41    43    42    1
    42    44    42    1
    43    45    44    1
    44    46    44    1
    45    47    44    1
    46    48    49    1
    47    50    48    1
    48    51    48    1
    49    52    37    1
    50    53    52    1
    51    54    52    1
    52    55    54    1
    53    56    54    1
    54    57    54    1
    55    58     8    1
    56    59    58   ar
    57    60    59   ar
    58    61    60    1
    59    62    60   ar
    60    63    62    1
    61    64    62   ar
    62    65    64    1
    63    66    58   ar
    64    67    68    1
    65    69    67    1
    66    70    67    1
    67    71    59    1
    68    72    71    1
    69    73    72    1
    70    74    72    1
    71    75    72    1
    72    76    77    1
    73    78    76    1
    74    79    76    1
    75    80    66    1
    76    81    80    1
    77    82    80    1
    78    83    82    1
    79    84    82    1
    80    85    82    1
    81    86     4    1
    82    87    86    1
    83    88    86    1
    84    89    86    1
    85    90    89    1
    86    91    89    1
    87    92    89    1
    88    93    92    1
    89    94    92    1
    90    95     4    1
    91    96    95    1
    92    97    95    1
    93    98     5    1
    94    99    98    1
    95   100    98    1
    96   101    98    1
    97   102   101    1
    98   103   101    1
    99   104   101    1
   100   105   104    1
   101   106   104    1
   102   107     5    1
   103   108   107    1
   104   109   107    1
   105   110    10   un
   106   111     2   un
   107   112     2   un
   108   113   112    1
   109   114     2   un
   110   115   114    1
   111   116     2   un
   112   117   116    1
   113     3     7   un
   114     3    16   un
   115     3    23   un
   116     7    16   un
   117     7    23   un
   118     8    15   un
   119    11    15    1
   120    15    16   un
   121    21    23    1
   122    23    24    1
   123    35    37   ar
   124    38    42    1
   125    48    52    1
   126    60   110   un
   127    62   110   un
   128    64    66   ar
   129    64   110   un
   130    67    71    1
   131    76    80    1
   132    92    95    1
   133   104   107    1
   134   112   114   un
   135   114   116   un
@<TRIPOS>SUBSTRUCTURE
     1 RES1        1 GROUP             0 ****  ****    0  
@<TRIPOS>CRYSIN
   12.6462   13.2223   24.7650   90.0000   90.0000   90.0000    19     1
