@<TRIPOS>MOLECULE
COHJES
   111   123     2     0     0
SMALL
NO_CHARGES
****
Generated from the CSD

@<TRIPOS>ATOM
     1 Fe1     -1.0104  11.4179   7.4114   Fe        1 RES1   0.0000
     2 N1       0.1236   8.8740  11.8493   N.am      1 RES1   0.0000
     3 N2       0.3699   9.4083  10.5850   N.pl3     1 RES1   0.0000
     4 N3       0.0495  10.3494   8.6506   N.2       1 RES1   0.0000
     5 N4       1.2885   9.7371   8.6269   N.2       1 RES1   0.0000
     6 N5      -2.2521  11.3713   8.9826   N.ar      1 RES1   0.0000
     7 N6       2.6317   7.7687  11.3454   N.ar      1 RES1   0.0000
     8 N7      -0.1587  13.0072   8.1303   N.2       1 RES1   0.0000
     9 O1       1.0680  10.7456  12.7357   O.2       1 RES1   0.0000
    10 O2      -0.3910   6.9414  10.7747   O.2       1 RES1   0.0000
    11 S1       1.3312  15.0519   9.3404   S.2       1 RES1   0.0000
    12 C1       0.7111   8.8899  14.2121   C.ar      1 RES1   0.0000
    13 C2       1.2033   9.5453  15.3357   C.ar      1 RES1   0.0000
    14 H1       1.4997  10.4450  15.2779   H         1 RES1   0.0000
    15 C3       1.2548   8.8511  16.5615   C.ar      1 RES1   0.0000
    16 H2       1.5801   9.2987  17.3353   H         1 RES1   0.0000
    17 C4       0.8491   7.5540  16.6653   C.ar      1 RES1   0.0000
    18 H3       0.8998   7.1110  17.5042   H         1 RES1   0.0000
    19 C5       0.3508   6.8553  15.5284   C.ar      1 RES1   0.0000
    20 C6      -0.0629   5.5262  15.5877   C.ar      1 RES1   0.0000
    21 H4      -0.0303   5.0695  16.4207   H         1 RES1   0.0000
    22 C7      -0.5180   4.8526  14.4685   C.ar      1 RES1   0.0000
    23 H5      -0.8098   3.9506  14.5323   H         1 RES1   0.0000
    24 C8      -0.5412   5.5240  13.2427   C.ar      1 RES1   0.0000
    25 H6      -0.8272   5.0627  12.4630   H         1 RES1   0.0000
    26 C9      -0.1599   6.8324  13.1449   C.ar      1 RES1   0.0000
    27 C10      0.3091   7.5403  14.2832   C.ar      1 RES1   0.0000
    28 C11      0.6858   9.6138  12.9329   C.2       1 RES1   0.0000
    29 C12     -0.1646   7.4924  11.8301   C.2       1 RES1   0.0000
    30 C13     -0.4950  10.1299   9.8305   C.2       1 RES1   0.0000
    31 C14      1.4589   9.1731   9.7875   C.2       1 RES1   0.0000
    32 C15     -1.8140  10.6848  10.0825   C.ar      1 RES1   0.0000
    33 C16     -2.5510  10.5410  11.2505   C.ar      1 RES1   0.0000
    34 H7      -2.2075  10.0523  11.9887   H         1 RES1   0.0000
    35 C17     -3.8136  11.1370  11.3024   C.ar      1 RES1   0.0000
    36 H8      -4.3501  11.0548  12.0835   H         1 RES1   0.0000
    37 C18     -4.2714  11.8403  10.2144   C.ar      1 RES1   0.0000
    38 H9      -5.1229  12.2605  10.2440   H         1 RES1   0.0000
    39 C19     -3.4851  11.9339   9.0716   C.ar      1 RES1   0.0000
    40 H10     -3.8241  12.4112   8.3230   H         1 RES1   0.0000
    41 C20      2.6129   8.3145  10.1284   C.ar      1 RES1   0.0000
    42 C21      3.5580   8.0519   9.1294   C.ar      1 RES1   0.0000
    43 H11      3.5172   8.4789   8.2815   H         1 RES1   0.0000
    44 C22      4.5445   7.1499   9.4303   C.ar      1 RES1   0.0000
    45 H12      5.2175   6.9512   8.7899   H         1 RES1   0.0000
    46 C23      4.5619   6.5264  10.6694   C.ar      1 RES1   0.0000
    47 H13      5.2144   5.8688  10.8770   H         1 RES1   0.0000
    48 C24      3.5964   6.8918  11.5988   C.ar      1 RES1   0.0000
    49 H14      3.6273   6.4945  12.4615   H         1 RES1   0.0000
    50 C25      0.4583  13.8476   8.6387   C.1       1 RES1   0.0000
    51 N1B     -2.1443  13.9617   2.9735   N.am      1 RES1   0.0000
    52 N2B     -2.3906  13.4274   4.2378   N.pl3     1 RES1   0.0000
    53 N3B     -2.0702  12.4863   6.1722   N.2       1 RES1   0.0000
    54 N4B     -3.3092  13.0986   6.1959   N.2       1 RES1   0.0000
    55 N5B      0.2313  11.4644   5.8402   N.ar      1 RES1   0.0000
    56 N6B     -4.6524  15.0670   3.4774   N.ar      1 RES1   0.0000
    57 N7B     -1.8620   9.8285   6.6925   N.2       1 RES1   0.0000
    58 O1B     -3.0887  12.0901   2.0870   O.2       1 RES1   0.0000
    59 O2B     -1.6297  15.8943   4.0481   O.2       1 RES1   0.0000
    60 S1B     -3.3519   7.7838   5.4824   S.2       1 RES1   0.0000
    61 C1B     -2.7318  13.9458   0.6107   C.ar      1 RES1   0.0000
    62 C2B     -3.2241  13.2904  -0.5129   C.ar      1 RES1   0.0000
    63 H1B     -3.5204  12.3907  -0.4551   H         1 RES1   0.0000
    64 C3B     -3.2755  13.9846  -1.7387   C.ar      1 RES1   0.0000
    65 H2B     -3.6008  13.5370  -2.5125   H         1 RES1   0.0000
    66 C4B     -2.8698  15.2817  -1.8425   C.ar      1 RES1   0.0000
    67 H3B     -2.9206  15.7247  -2.6814   H         1 RES1   0.0000
    68 C5B     -2.3715  15.9804  -0.7056   C.ar      1 RES1   0.0000
    69 C6B     -1.9578  17.3095  -0.7649   C.ar      1 RES1   0.0000
    70 H4B     -1.9905  17.7662  -1.5979   H         1 RES1   0.0000
    71 C7B     -1.5027  17.9831   0.3543   C.ar      1 RES1   0.0000
    72 H5B     -1.2110  18.8851   0.2905   H         1 RES1   0.0000
    73 C8B     -1.4795  17.3117   1.5801   C.ar      1 RES1   0.0000
    74 H6B     -1.1935  17.7730   2.3598   H         1 RES1   0.0000
    75 C9B     -1.8608  16.0033   1.6779   C.ar      1 RES1   0.0000
    76 C10B    -2.3298  15.2954   0.5395   C.ar      1 RES1   0.0000
    77 C11B    -2.7065  13.2219   1.8899   C.2       1 RES1   0.0000
    78 C12B    -1.8561  15.3433   2.9927   C.2       1 RES1   0.0000
    79 C13B    -1.5257  12.7058   4.9923   C.2       1 RES1   0.0000
    80 C14B    -3.4796  13.6626   5.0353   C.2       1 RES1   0.0000
    81 C15B    -0.2068  12.1509   4.7403   C.ar      1 RES1   0.0000
    82 C16B     0.5303  12.2947   3.5723   C.ar      1 RES1   0.0000
    83 H7B      0.1867  12.7834   2.8341   H         1 RES1   0.0000
    84 C17B     1.7928  11.6987   3.5204   C.ar      1 RES1   0.0000
    85 H8B      2.3294  11.7809   2.7393   H         1 RES1   0.0000
    86 C18B     2.2506  10.9954   4.6084   C.ar      1 RES1   0.0000
    87 H9B      3.1022  10.5752   4.5788   H         1 RES1   0.0000
    88 C19B     1.4643  10.9018   5.7512   C.ar      1 RES1   0.0000
    89 H10B     1.8033  10.4245   6.4998   H         1 RES1   0.0000
    90 C20B    -4.6336  14.5212   4.6944   C.ar      1 RES1   0.0000
    91 C21B    -5.5787  14.7838   5.6934   C.ar      1 RES1   0.0000
    92 H11B    -5.5379  14.3568   6.5413   H         1 RES1   0.0000
    93 C22B    -6.5652  15.6858   5.3925   C.ar      1 RES1   0.0000
    94 H12B    -7.2382  15.8845   6.0329   H         1 RES1   0.0000
    95 C23B    -6.5826  16.3093   4.1533   C.ar      1 RES1   0.0000
    96 H13B    -7.2351  16.9669   3.9458   H         1 RES1   0.0000
    97 C24B    -5.6171  15.9439   3.2240   C.ar      1 RES1   0.0000
    98 H14B    -5.6481  16.3412   2.3613   H         1 RES1   0.0000
    99 C25B    -2.4790   8.9881   6.1841   C.1       1 RES1   0.0000
   100 N8      -1.1585  14.1262  13.6073   N.am      2 RES2   0.0000
   101 O3      -1.3995  12.8953  15.4676   O.2       2 RES2   0.0000
   102 C26     -0.6837  15.2748  14.3455   C.3       2 RES2   0.0000
   103 H15     -0.6143  15.0464  15.2956   H         2 RES2   0.0000
   104 H16     -1.3129  16.0170  14.2328   H         2 RES2   0.0000
   105 H17      0.1973  15.5374  14.0075   H         2 RES2   0.0000
   106 C27     -1.2291  14.1604  12.1414   C.3       2 RES2   0.0000
   107 H18     -1.6412  13.3360  11.8138   H         2 RES2   0.0000
   108 H19     -0.3244  14.2426  11.7737   H         2 RES2   0.0000
   109 H20     -1.7677  14.9300  11.8597   H         2 RES2   0.0000
   110 C28     -1.4828  13.0460  14.2566   C.2       2 RES2   0.0000
   111 H21     -1.8113  12.3130  13.7481   H         2 RES2   0.0000
@<TRIPOS>BOND
     1     1     4    1
     2     2     3    1
     3     3    30    1
     4     4     5    1
     5     5    31    2
     6     6     1    1
     7     7    41   ar
     8     8     1    1
     9     9    28    2
    10    10    29    2
    11    11    50    2
    12    12    13   ar
    13    13    14    1
    14    15    13   ar
    15    16    15    1
    16    17    15   ar
    17    18    17    1
    18    19    17   ar
    19    20    19   ar
    20    21    20    1
    21    22    20   ar
    22    23    22    1
    23    24    22   ar
    24    25    24    1
    25    26    24   ar
    26    27    12   ar
    27    28     2   am
    28    29     2   am
    29    30     4    2
    30    31     3    1
    31    32     6   ar
    32    33    32   ar
    33    34    33    1
    34    35    33   ar
    35    36    35    1
    36    37    35   ar
    37    38    37    1
    38    39     6   ar
    39    40    39    1
    40    41    31    1
    41    42    41   ar
    42    43    42    1
    43    44    42   ar
    44    45    44    1
    45    46    44   ar
    46    47    46    1
    47    48     7   ar
    48    49    48    1
    49    50     8    2
    50    51    52    1
    51    52    79    1
    52    53     1    1
    53    54    53    1
    54    55     1    1
    55    56    90   ar
    56    57     1    1
    57    58    77    2
    58    59    78    2
    59    60    99    2
    60    61    62   ar
    61    62    63    1
    62    64    62   ar
    63    65    64    1
    64    66    64   ar
    65    67    66    1
    66    68    66   ar
    67    69    68   ar
    68    70    69    1
    69    71    69   ar
    70    72    71    1
    71    73    71   ar
    72    74    73    1
    73    75    73   ar
    74    76    61   ar
    75    77    51   am
    76    78    51   am
    77    79    53    2
    78    80    52    1
    79    81    55   ar
    80    82    81   ar
    81    83    82    1
    82    84    82   ar
    83    85    84    1
    84    86    84   ar
    85    87    86    1
    86    88    55   ar
    87    89    88    1
    88    90    80    1
    89    91    90   ar
    90    92    91    1
    91    93    91   ar
    92    94    93    1
    93    95    93   ar
    94    96    95    1
    95    97    56   ar
    96    98    97    1
    97    99    57    2
    98    12    28    1
    99    19    27   ar
   100    26    27   ar
   101    26    29    1
   102    30    32    1
   103    37    39   ar
   104    46    48   ar
   105    54    80    2
   106    61    77    1
   107    68    76   ar
   108    75    76   ar
   109    75    78    1
   110    79    81    1
   111    86    88   ar
   112    95    97   ar
   113   100   102    1
   114   101   110    2
   115   102   103    1
   116   104   102    1
   117   105   102    1
   118   106   100    1
   119   107   106    1
   120   108   106    1
   121   109   106    1
   122   110   100   am
   123   111   110    1
@<TRIPOS>SUBSTRUCTURE
     1 RES1        1 GROUP             0 ****  ****    0  
     2 RES2      100 GROUP             0 ****  ****    0  
@<TRIPOS>CRYSIN
    7.8615   22.8357   14.9599   90.0000   97.7630   90.0000    14     1
