@<TRIPOS>MOLECULE
COJPOI
   126   130     2     0     0
SMALL
USER_CHARGES
****
Generated from the CSD

@<TRIPOS>ATOM
     1 Fe1     33.8661   4.6467   3.3861   Fe        1 RES1   0.0000
     2 N1      35.3670   5.1910   1.8915   N.2       1 RES1   0.0000
     3 N2      35.4153   4.7082   4.9706   N.2       1 RES1   0.0000
     4 O1      32.5690   4.9594   2.0334   O.3       1 RES1  -1.0000
     5 O2      34.6206   2.8282   2.8625   O.co2     1 RES1   0.0000
     6 O3      35.9441   1.6734   1.5176   O.co2     1 RES1   0.0000
     7 O4      37.8851   3.9819   2.6394   O.3       1 RES1   0.0000
     8 H1      38.5125   3.6905   3.1139   H         1 RES1   0.0000
     9 O5      39.3601   3.6122   1.0418   O.2       1 RES1   0.0000
    10 O6      32.7182   3.9003   4.6779   O.3       1 RES1   0.0000
    11 O7      33.9052   6.6209   3.9391   O.co2     1 RES1   0.0000
    12 O8      34.7861   8.2225   5.1885   O.co2     1 RES1   0.0000
    13 O9      38.6899   7.3179   5.8449   O.2       1 RES1   0.0000
    14 O10     37.4310   6.6394   4.1944   O.3       1 RES1   0.0000
    15 H2      37.2331   7.3657   3.8244   H         1 RES1   0.0000
    16 C1      32.5489   5.4661   0.8175   C.ar      1 RES1   0.0000
    17 C2      33.6918   6.1327   0.2875   C.ar      1 RES1   0.0000
    18 C3      33.6667   6.6622  -1.0160   C.ar      1 RES1   0.0000
    19 H3      34.4463   7.0906  -1.3539   H         1 RES1   0.0000
    20 C4      32.5404   6.5785  -1.8193   C.ar      1 RES1   0.0000
    21 C5      31.4203   5.9141  -1.2778   C.ar      1 RES1   0.0000
    22 H4      30.6353   5.8489  -1.8090   H         1 RES1   0.0000
    23 C6      31.4067   5.3454  -0.0026   C.ar      1 RES1   0.0000
    24 C7      34.9368   6.3827   1.1140   C.3       1 RES1   0.0000
    25 H5      35.6716   6.6568   0.5119   H         1 RES1   0.0000
    26 H6      34.7632   7.1298   1.7394   H         1 RES1   0.0000
    27 C8      32.4658   7.2233  -3.2080   C.3       1 RES1   0.0000
    28 C9      33.8631   7.6560  -3.7199   C.3       1 RES1   0.0000
    29 H7      34.4463   6.8699  -3.7831   H         1 RES1   0.0000
    30 H8      34.2530   8.3019  -3.0946   H         1 RES1   0.0000
    31 H9      33.7738   8.0681  -4.6032   H         1 RES1   0.0000
    32 C10     31.8814   6.2523  -4.2279   C.3       1 RES1   0.0000
    33 H10     32.4248   5.4378  -4.2524   H         1 RES1   0.0000
    34 H11     31.8798   6.6709  -5.1138   H         1 RES1   0.0000
    35 H12     30.9638   6.0250  -3.9726   H         1 RES1   0.0000
    36 C11     31.5757   8.4607  -3.1126   C.3       1 RES1   0.0000
    37 H13     31.4469   8.8402  -4.0062   H         1 RES1   0.0000
    38 H14     32.0035   9.1261  -2.5337   H         1 RES1   0.0000
    39 H15     30.7048   8.2095  -2.7361   H         1 RES1   0.0000
    40 C12     30.1521   4.6180   0.5248   C.3       1 RES1   0.0000
    41 C13     30.4926   3.1827   0.9554   C.3       1 RES1   0.0000
    42 H16     31.2034   3.2044   1.6298   H         1 RES1   0.0000
    43 H17     30.7976   2.6716   0.1766   H         1 RES1   0.0000
    44 H18     29.6960   2.7575   1.3345   H         1 RES1   0.0000
    45 C14     29.5924   5.3802   1.7188   C.3       1 RES1   0.0000
    46 H19     29.3404   6.2838   1.4403   H         1 RES1   0.0000
    47 H20     30.2758   5.4335   2.4215   H         1 RES1   0.0000
    48 H21     28.8032   4.9116   2.0656   H         1 RES1   0.0000
    49 C15     29.0362   4.5321  -0.5351   C.3       1 RES1   0.0000
    50 H22     28.2814   4.0254  -0.1728   H         1 RES1   0.0000
    51 H23     29.3791   4.0808  -1.3345   H         1 RES1   0.0000
    52 H24     28.7413   5.4357  -0.7711   H         1 RES1   0.0000
    53 C16     35.6619   4.0091   1.0792   C.3       1 RES1   0.0000
    54 H25     35.0183   4.0112   0.3120   H         1 RES1   0.0000
    55 C17     35.4072   2.7325   1.8748   C.2       1 RES1   0.0000
    56 C18     37.0684   4.0014   0.4848   C.3       1 RES1   0.0000
    57 H26     37.1171   3.2762  -0.1870   H         1 RES1   0.0000
    58 H27     37.2060   4.8572   0.0064   H         1 RES1   0.0000
    59 C19     38.1692   3.8242   1.4222   C.2       1 RES1   0.0000
    60 C20     32.7997   3.4893   5.9364   C.ar      1 RES1   0.0000
    61 C21     34.0586   3.3023   6.5669   C.ar      1 RES1   0.0000
    62 C22     34.1270   2.8423   7.8795   C.ar      1 RES1   0.0000
    63 H28     34.9758   2.7543   8.2947   H         1 RES1   0.0000
    64 C23     32.9814   2.5063   8.5990   C.ar      1 RES1   0.0000
    65 C24     31.7612   2.7184   7.9865   C.ar      1 RES1   0.0000
    66 H29     30.9715   2.5183   8.4752   H         1 RES1   0.0000
    67 C25     31.6251   3.2120   6.6778   C.ar      1 RES1   0.0000
    68 C26     35.3519   3.4676   5.7971   C.3       1 RES1   0.0000
    69 H30     36.1045   3.4741   6.4393   H         1 RES1   0.0000
    70 H31     35.4706   2.6847   5.2040   H         1 RES1   0.0000
    71 C27     33.1190   1.9007   9.9980   C.3       1 RES1   0.0000
    72 C28     33.7514   2.8847  10.9689   C.3       1 RES1   0.0000
    73 H32     33.1785   3.6752  11.0527   H         1 RES1   0.0000
    74 H33     34.6318   3.1544  10.6324   H         1 RES1   0.0000
    75 H34     33.8511   2.4596  11.8457   H         1 RES1   0.0000
    76 C29     33.9983   0.6415   9.9142   C.3       1 RES1   0.0000
    77 H35     34.0753   0.2360  10.8026   H         1 RES1   0.0000
    78 H36     34.8908   0.8862   9.5893   H         1 RES1   0.0000
    79 H37     33.5921  -0.0011   9.2953   H         1 RES1   0.0000
    80 C30     31.7612   1.4799  10.5679   C.3       1 RES1   0.0000
    81 H38     31.2112   2.2758  10.7278   H         1 RES1   0.0000
    82 H39     31.8953   1.0014  11.4125   H         1 RES1   0.0000
    83 H40     31.3078   0.8927   9.9284   H         1 RES1   0.0000
    84 C31     30.2441   3.4175   6.0395   C.3       1 RES1   0.0000
    85 C32     29.1155   3.1185   7.0298   C.3       1 RES1   0.0000
    86 H41     29.2399   2.2225   7.4076   H         1 RES1   0.0000
    87 H42     28.2543   3.1598   6.5656   H         1 RES1   0.0000
    88 H43     29.1317   3.7818   7.7519   H         1 RES1   0.0000
    89 C33     30.0837   2.4672   4.8327   C.3       1 RES1   0.0000
    90 H44     30.7242   2.7140   4.1338   H         1 RES1   0.0000
    91 H45     29.1742   2.5379   4.4794   H         1 RES1   0.0000
    92 H46     30.2526   1.5451   5.1189   H         1 RES1   0.0000
    93 C34     30.0721   4.8746   5.5638   C.3       1 RES1   0.0000
    94 H47     30.1676   5.4813   6.3284   H         1 RES1   0.0000
    95 H48     29.1820   4.9855   5.1666   H         1 RES1   0.0000
    96 H49     30.7589   5.0834   4.8959   H         1 RES1   0.0000
    97 C35     35.2920   5.9511   5.7533   C.3       1 RES1   0.0000
    98 H50     34.6628   5.7575   6.5063   H         1 RES1   0.0000
    99 C36     34.6338   7.0330   4.8946   C.2       1 RES1   0.0000
   100 C37     36.6058   6.4317   6.3825   C.3       1 RES1   0.0000
   101 H51     36.4059   7.1983   6.9769   H         1 RES1   0.0000
   102 H52     36.9664   5.7032   6.9473   H         1 RES1   0.0000
   103 C38     37.6455   6.8405   5.4361   C.2       1 RES1   0.0000
   104 N3      33.0506   9.8753   3.7135   N.4       2 RES2   1.0000
   105 H53     33.5303   9.1642   4.0732   H         2 RES2   0.0000
   106 C39     31.5861   9.4523   3.6890   C.3       2 RES2   0.0000
   107 H54     31.3039   9.2262   4.6109   H         2 RES2   0.0000
   108 H55     31.0372  10.2211   3.3898   H         2 RES2   0.0000
   109 C40     31.2958   8.2726   2.7903   C.3       2 RES2   0.0000
   110 H56     31.5900   8.4759   1.8774   H         2 RES2   0.0000
   111 H57     30.3338   8.0910   2.7903   H         2 RES2   0.0000
   112 H58     31.7755   7.4842   3.1191   H         2 RES2   0.0000
   113 C41     33.6184  10.1363   2.3480   C.3       2 RES2   0.0000
   114 H59     33.6346   9.2860   1.8426   H         2 RES2   0.0000
   115 H60     34.5545  10.4451   2.4460   H         2 RES2   0.0000
   116 C42     32.8446  11.1693   1.5447   C.3       2 RES2   0.0000
   117 H61     31.9224  10.8626   1.4209   H         2 RES2   0.0000
   118 H62     33.2713  11.2889   0.6705   H         2 RES2   0.0000
   119 H63     32.8423  12.0228   2.0269   H         2 RES2   0.0000
   120 C43     33.2620  11.0475   4.6251   C.3       2 RES2   0.0000
   121 H64     32.7147  11.8086   4.3079   H         2 RES2   0.0000
   122 H65     34.2144  11.3204   4.5864   H         2 RES2   0.0000
   123 C44     32.8906  10.7354   6.0692   C.3       2 RES2   0.0000
   124 H66     31.9185  10.7789   6.1736   H         2 RES2   0.0000
   125 H67     33.3138  11.3911   6.6636   H         2 RES2   0.0000
   126 H68     33.2056   9.8362   6.3000   H         2 RES2   0.0000
@<TRIPOS>BOND
     1     1     2    1
     2     2    24    1
     3     3     1    1
     4     4     1    1
     5     5     1    1
     6     6    55    2
     7     7     8    1
     8     9    59    2
     9    10     1    1
    10    11     1    1
    11    12    99    2
    12    13   103    2
    13    14    15    1
    14    16     4    1
    15    17    16   ar
    16    18    17   ar
    17    19    18    1
    18    20    18   ar
    19    21    20   ar
    20    22    21    1
    21    23    16   ar
    22    24    17    1
    23    25    24    1
    24    26    24    1
    25    27    20    1
    26    28    27    1
    27    29    28    1
    28    30    28    1
    29    31    28    1
    30    32    27    1
    31    33    32    1
    32    34    32    1
    33    35    32    1
    34    36    27    1
    35    37    36    1
    36    38    36    1
    37    39    36    1
    38    40    23    1
    39    41    40    1
    40    42    41    1
    41    43    41    1
    42    44    41    1
    43    45    40    1
    44    46    45    1
    45    47    45    1
    46    48    45    1
    47    49    40    1
    48    50    49    1
    49    51    49    1
    50    52    49    1
    51    53     2    1
    52    54    53    1
    53    55     5    1
    54    56    53    1
    55    57    56    1
    56    58    56    1
    57    59     7    1
    58    60    10    1
    59    61    60   ar
    60    62    61   ar
    61    63    62    1
    62    64    62   ar
    63    65    64   ar
    64    66    65    1
    65    67    60   ar
    66    68     3    1
    67    69    68    1
    68    70    68    1
    69    71    64    1
    70    72    71    1
    71    73    72    1
    72    74    72    1
    73    75    72    1
    74    76    71    1
    75    77    76    1
    76    78    76    1
    77    79    76    1
    78    80    71    1
    79    81    80    1
    80    82    80    1
    81    83    80    1
    82    84    67    1
    83    85    84    1
    84    86    85    1
    85    87    85    1
    86    88    85    1
    87    89    84    1
    88    90    89    1
    89    91    89    1
    90    92    89    1
    91    93    84    1
    92    94    93    1
    93    95    93    1
    94    96    93    1
    95    97     3    1
    96    98    97    1
    97    99    11    1
    98   100    97    1
    99   101   100    1
   100   102   100    1
   101   103    14    1
   102    21    23   ar
   103    53    55    1
   104    56    59    1
   105    61    68    1
   106    65    67   ar
   107    97    99    1
   108   100   103    1
   109   104   105    1
   110   106   104    1
   111   107   106    1
   112   108   106    1
   113   109   106    1
   114   110   109    1
   115   111   109    1
   116   112   109    1
   117   113   104    1
   118   114   113    1
   119   115   113    1
   120   116   113    1
   121   117   116    1
   122   118   116    1
   123   119   116    1
   124   120   104    1
   125   121   120    1
   126   122   120    1
   127   123   120    1
   128   124   123    1
   129   125   123    1
   130   126   123    1
@<TRIPOS>SUBSTRUCTURE
     1 RES1        1 GROUP             0 ****  ****    0  
     2 RES2      104 GROUP             0 ****  ****    0  
@<TRIPOS>CRYSIN
   38.6516   10.8735   12.8940   90.0000   90.0000   90.0000    18     1
