@<TRIPOS>MOLECULE
COTGAT
   129   144     2     0     0
SMALL
NO_CHARGES
****
Generated from the CSD

@<TRIPOS>ATOM
     1 U1       1.7313   2.7511  -1.3270   U         1 RES1   0.0000
     2 Fe1      0.0000   0.0000   0.0000   Fe        1 RES1   0.0000
     3 O1       3.6293   2.8914  -0.1278   O.2       1 RES1   0.0000
     4 O2       1.8686   0.8227   0.2181   O.2       1 RES1   0.0000
     5 O3      -0.4050   1.5051  -1.3399   O.2       1 RES1   0.0000
     6 O4       0.4205   3.5691  -2.9841   O.2       1 RES1   0.0000
     7 O5       0.9448   3.8259  -0.1704   O.2       1 RES1   0.0000
     8 O6       2.5516   1.7310  -2.5165   O.2       1 RES1   0.0000
     9 N1       2.9953   4.8055  -2.1980   N.ar      1 RES1   0.0000
    10 N2      -0.7082   1.2697   1.7862   N.ar      1 RES1   0.0000
    11 C1       4.4988   2.0639   0.3804   C.2       1 RES1   0.0000
    12 C2       4.1461   0.8489   0.8530   C.2       1 RES1   0.0000
    13 C3       2.8600   0.2616   0.8784   C.2       1 RES1   0.0000
    14 C4       2.6809  -0.8703   1.6594   C.2       1 RES1   0.0000
    15 C5      -1.5667   1.6692  -1.9353   C.2       1 RES1   0.0000
    16 C6      -1.7082   2.6251  -2.9811   C.2       1 RES1   0.0000
    17 C7      -0.7504   3.4740  -3.4700   C.2       1 RES1   0.0000
    18 C8      -1.0183   4.3538  -4.6588   C.ar      1 RES1   0.0000
    19 C9      -0.1564   5.4333  -4.8860   C.ar      1 RES1   0.0000
    20 C10     -0.3320   6.2061  -6.0058   C.ar      1 RES1   0.0000
    21 C11     -1.3780   5.9635  -6.8771   C.ar      1 RES1   0.0000
    22 C12     -2.2509   4.9387  -6.6529   C.ar      1 RES1   0.0000
    23 C13     -2.0564   4.1469  -5.5453   C.ar      1 RES1   0.0000
    24 C14      5.8964   2.5918   0.4230   C.ar      1 RES1   0.0000
    25 C15      6.1467   3.9162   0.0254   C.ar      1 RES1   0.0000
    26 C16      7.4332   4.4061  -0.0091   C.ar      1 RES1   0.0000
    27 C17      8.4875   3.5619   0.3368   C.ar      1 RES1   0.0000
    28 C18      8.2665   2.3017   0.7709   C.ar      1 RES1   0.0000
    29 C19      6.9616   1.8238   0.8236   C.ar      1 RES1   0.0000
    30 C20      4.1049   4.7128  -2.9101   C.ar      1 RES1   0.0000
    31 C21      4.9335   5.8232  -3.1545   C.ar      1 RES1   0.0000
    32 C22      4.5540   7.0359  -2.7691   C.ar      1 RES1   0.0000
    33 C23      3.4410   7.1191  -2.0154   C.ar      1 RES1   0.0000
    34 C24      2.6527   5.9825  -1.7903   C.ar      1 RES1   0.0000
    35 C25     -1.4478   2.3398   1.6239   C.ar      1 RES1   0.0000
    36 C26     -1.9091   3.1007   2.6910   C.ar      1 RES1   0.0000
    37 C27     -1.5969   2.6893   3.9629   C.ar      1 RES1   0.0000
    38 C28     -0.8492   1.5884   4.1333   C.ar      1 RES1   0.0000
    39 C29     -0.4482   0.8988   3.0257   C.ar      1 RES1   0.0000
    40 H1       4.8536   0.3210   1.2121   H         1 RES1   0.0000
    41 H2       3.4753  -1.1627   2.0956   H         1 RES1   0.0000
    42 H3      -2.5676   2.6869  -3.3848   H         1 RES1   0.0000
    43 H4       0.5423   5.6306  -4.2723   H         1 RES1   0.0000
    44 H5       0.2740   6.9194  -6.1863   H         1 RES1   0.0000
    45 H6      -1.4895   6.5152  -7.6439   H         1 RES1   0.0000
    46 H7      -2.9801   4.7794  -7.2443   H         1 RES1   0.0000
    47 H8      -2.6554   3.4240  -5.3891   H         1 RES1   0.0000
    48 H9       5.4197   4.4822  -0.2211   H         1 RES1   0.0000
    49 H10      7.6000   5.3049  -0.2647   H         1 RES1   0.0000
    50 H11      9.3784   3.8806   0.2729   H         1 RES1   0.0000
    51 H12      8.9937   1.7429   1.0326   H         1 RES1   0.0000
    52 H13      6.8030   0.9416   1.1462   H         1 RES1   0.0000
    53 H14      4.3513   3.8568  -3.2529   H         1 RES1   0.0000
    54 H15      5.7376   5.6829  -3.6586   H         1 RES1   0.0000
    55 H16      5.0847   7.7944  -2.9659   H         1 RES1   0.0000
    56 H17      3.1811   7.9585  -1.6371   H         1 RES1   0.0000
    57 H18      1.8267   6.0895  -1.3206   H         1 RES1   0.0000
    58 H19     -1.6781   2.6037   0.7394   H         1 RES1   0.0000
    59 H20     -2.4289   3.8853   2.5439   H         1 RES1   0.0000
    60 H21     -1.9047   3.1839   4.7145   H         1 RES1   0.0000
    61 H22     -0.6053   1.2983   5.0057   H         1 RES1   0.0000
    62 H23      0.0475   0.0975   3.1566   H         1 RES1   0.0000
    63 O2B     -1.8686  -0.8227  -0.2181   O.2       1 RES1   0.0000
    64 O3B      0.4050  -1.5051   1.3399   O.2       1 RES1   0.0000
    65 N2B      0.7082  -1.2697  -1.7862   N.ar      1 RES1   0.0000
    66 C5B      1.5667  -1.6692   1.9353   C.2       1 RES1   0.0000
    67 C4B     -2.6809   0.8703  -1.6594   C.2       1 RES1   0.0000
    68 U1B     -1.7313  -2.7511   1.3270   U         1 RES1   0.0000
    69 C3B     -2.8600  -0.2616  -0.8784   C.2       1 RES1   0.0000
    70 C25B     1.4478  -2.3398  -1.6239   C.ar      1 RES1   0.0000
    71 C29B     0.4482  -0.8988  -3.0257   C.ar      1 RES1   0.0000
    72 C6B      1.7082  -2.6251   2.9811   C.2       1 RES1   0.0000
    73 H2B     -3.4753   1.1627  -2.0956   H         1 RES1   0.0000
    74 O1B     -3.6293  -2.8914   0.1278   O.2       1 RES1   0.0000
    75 O4B     -0.4205  -3.5691   2.9841   O.2       1 RES1   0.0000
    76 O5B     -0.9448  -3.8259   0.1704   O.2       1 RES1   0.0000
    77 O6B     -2.5516  -1.7310   2.5165   O.2       1 RES1   0.0000
    78 N1B     -2.9953  -4.8055   2.1980   N.ar      1 RES1   0.0000
    79 C2B     -4.1461  -0.8489  -0.8530   C.2       1 RES1   0.0000
    80 C26B     1.9091  -3.1007  -2.6910   C.ar      1 RES1   0.0000
    81 H19B     1.6781  -2.6037  -0.7394   H         1 RES1   0.0000
    82 C28B     0.8492  -1.5884  -4.1333   C.ar      1 RES1   0.0000
    83 H23B    -0.0475  -0.0975  -3.1566   H         1 RES1   0.0000
    84 C7B      0.7504  -3.4740   3.4700   C.2       1 RES1   0.0000
    85 H3B      2.5676  -2.6869   3.3848   H         1 RES1   0.0000
    86 C1B     -4.4988  -2.0639  -0.3804   C.2       1 RES1   0.0000
    87 C20B    -4.1049  -4.7128   2.9101   C.ar      1 RES1   0.0000
    88 C24B    -2.6527  -5.9825   1.7903   C.ar      1 RES1   0.0000
    89 H1B     -4.8536  -0.3210  -1.2121   H         1 RES1   0.0000
    90 C27B     1.5969  -2.6893  -3.9629   C.ar      1 RES1   0.0000
    91 H20B     2.4289  -3.8853  -2.5439   H         1 RES1   0.0000
    92 H22B     0.6053  -1.2983  -5.0057   H         1 RES1   0.0000
    93 C8B      1.0183  -4.3538   4.6588   C.ar      1 RES1   0.0000
    94 C14B    -5.8964  -2.5918  -0.4230   C.ar      1 RES1   0.0000
    95 C21B    -4.9335  -5.8232   3.1545   C.ar      1 RES1   0.0000
    96 H14B    -4.3513  -3.8568   3.2529   H         1 RES1   0.0000
    97 C23B    -3.4410  -7.1191   2.0154   C.ar      1 RES1   0.0000
    98 H18B    -1.8267  -6.0895   1.3206   H         1 RES1   0.0000
    99 H21B     1.9047  -3.1839  -4.7145   H         1 RES1   0.0000
   100 C9B      0.1564  -5.4333   4.8860   C.ar      1 RES1   0.0000
   101 C13B     2.0564  -4.1469   5.5453   C.ar      1 RES1   0.0000
   102 C15B    -6.1467  -3.9162  -0.0254   C.ar      1 RES1   0.0000
   103 C19B    -6.9616  -1.8238  -0.8236   C.ar      1 RES1   0.0000
   104 C22B    -4.5540  -7.0359   2.7691   C.ar      1 RES1   0.0000
   105 H15B    -5.7376  -5.6829   3.6586   H         1 RES1   0.0000
   106 H17B    -3.1811  -7.9585   1.6371   H         1 RES1   0.0000
   107 C10B     0.3320  -6.2061   6.0058   C.ar      1 RES1   0.0000
   108 H4B     -0.5423  -5.6306   4.2723   H         1 RES1   0.0000
   109 C12B     2.2509  -4.9387   6.6529   C.ar      1 RES1   0.0000
   110 H8B      2.6554  -3.4240   5.3891   H         1 RES1   0.0000
   111 C16B    -7.4332  -4.4061   0.0091   C.ar      1 RES1   0.0000
   112 H9B     -5.4197  -4.4822   0.2211   H         1 RES1   0.0000
   113 C18B    -8.2665  -2.3017  -0.7709   C.ar      1 RES1   0.0000
   114 H13B    -6.8030  -0.9416  -1.1462   H         1 RES1   0.0000
   115 H16B    -5.0847  -7.7944   2.9659   H         1 RES1   0.0000
   116 C11B     1.3780  -5.9635   6.8771   C.ar      1 RES1   0.0000
   117 H5B     -0.2740  -6.9194   6.1863   H         1 RES1   0.0000
   118 H7B      2.9801  -4.7794   7.2443   H         1 RES1   0.0000
   119 C17B    -8.4875  -3.5619  -0.3368   C.ar      1 RES1   0.0000
   120 H10B    -7.6000  -5.3049   0.2647   H         1 RES1   0.0000
   121 H12B    -8.9937  -1.7429  -1.0326   H         1 RES1   0.0000
   122 H6B      1.4895  -6.5152   7.6439   H         1 RES1   0.0000
   123 H11B    -9.3784  -3.8806  -0.2729   H         1 RES1   0.0000
   124 N3      -6.1717   2.3540  -3.2519   N.ar      2 RES2   0.0000
   125 C30     -7.1820   1.3958  -3.2174   C.ar      2 RES2   0.0000
   126 C31     -7.4448   0.7371  -4.4092   C.ar      2 RES2   0.0000
   127 C32     -6.6829   1.0700  -5.4489   C.ar      2 RES2   0.0000
   128 C33     -5.6975   1.9902  -5.4540   C.ar      2 RES2   0.0000
   129 C34     -5.3797   2.7368  -4.3798   C.ar      2 RES2   0.0000
@<TRIPOS>BOND
     1     1     3    1
     2     2     4    1
     3     3    11   un
     4     4     1    1
     5     5     1    1
     6     6     1    1
     7     7     1    2
     8     8     1    2
     9     9     1    1
    10    10     2    1
    11    11    12   un
    12    12    13   un
    13    13     4   un
    14    14    13   un
    15    15     5   un
    16    16    15   un
    17    17     6   un
    18    18    17    1
    19    19    18   ar
    20    20    19   ar
    21    21    20   ar
    22    22    21   ar
    23    23    18   ar
    24    24    11    1
    25    25    24   ar
    26    26    25   ar
    27    27    26   ar
    28    28    27   ar
    29    29    24   ar
    30    30     9   ar
    31    31    30   ar
    32    32    31   ar
    33    33    32   ar
    34    34     9   ar
    35    35    10   ar
    36    36    35   ar
    37    37    36   ar
    38    38    37   ar
    39    39    10   ar
    40    40    12    1
    41    41    14    1
    42    42    16    1
    43    43    19    1
    44    44    20    1
    45    45    21    1
    46    46    22    1
    47    47    23    1
    48    48    25    1
    49    49    26    1
    50    50    27    1
    51    51    28    1
    52    52    29    1
    53    53    30    1
    54    54    31    1
    55    55    32    1
    56    56    33    1
    57    57    34    1
    58    58    35    1
    59    59    36    1
    60    60    37    1
    61    61    38    1
    62    62    39    1
    63    63     2    1
    64    64     2    1
    65    65     2    1
    66    66    14   un
    67    67    15   un
    68    68    63    1
    69    69    63   un
    70    70    65   ar
    71    71    65   ar
    72    72    66   un
    73    73    67    1
    74    74    68    1
    75    75    68    1
    76    76    68    2
    77    77    68    2
    78    78    68    1
    79    79    69   un
    80    80    70   ar
    81    81    70    1
    82    82    71   ar
    83    83    71    1
    84    84    72   un
    85    85    72    1
    86    86    74   un
    87    87    78   ar
    88    88    78   ar
    89    89    79    1
    90    90    80   ar
    91    91    80    1
    92    92    82    1
    93    93    84    1
    94    94    86    1
    95    95    87   ar
    96    96    87    1
    97    97    88   ar
    98    98    88    1
    99    99    90    1
   100   100    93   ar
   101   101    93   ar
   102   102    94   ar
   103   103    94   ar
   104   104    95   ar
   105   105    95    1
   106   106    97    1
   107   107   100   ar
   108   108   100    1
   109   109   101   ar
   110   110   101    1
   111   111   102   ar
   112   112   102    1
   113   113   103   ar
   114   114   103    1
   115   115   104    1
   116   116   107   ar
   117   117   107    1
   118   118   109    1
   119   119   111   ar
   120   120   111    1
   121   121   113    1
   122   122   116    1
   123   123   119    1
   124     2     5    1
   125    16    17   un
   126    22    23   ar
   127    28    29   ar
   128    33    34   ar
   129    38    39   ar
   130    64    68    1
   131    64    66   un
   132    67    69   un
   133    75    84   un
   134    79    86   un
   135    82    90   ar
   136    97   104   ar
   137   109   116   ar
   138   113   119   ar
   139   124   125   ar
   140   125   126   ar
   141   126   127   ar
   142   127   128   ar
   143   128   129   ar
   144   129   124   ar
@<TRIPOS>SUBSTRUCTURE
     1 RES1        1 GROUP             0 ****  ****    0  
     2 RES2      124 GROUP             0 ****  ****    0  
@<TRIPOS>CRYSIN
   13.4750   23.7780   10.7180   90.0000  108.8500   90.0000    14     1
