@<TRIPOS>MOLECULE
COTZUH
   152   165     3     0     0
SMALL
USER_CHARGES
****
Generated from the CSD

@<TRIPOS>ATOM
     1 Fe1      4.1420   3.9551   4.0844   Fe        1 RES1   2.0000
     2 N1       2.2522   3.6922   4.5178   N.ar      1 RES1   0.0000
     3 C1       1.6536   2.8887   5.3812   C.ar      1 RES1   0.0000
     4 H1       2.2070   2.2927   5.8928   H         1 RES1   0.0000
     5 C2       0.2950   2.8518   5.5490   C.ar      1 RES1   0.0000
     6 H2      -0.1024   2.2171   6.1506   H         1 RES1   0.0000
     7 C3      -0.5101   3.7608   4.8615   C.ar      1 RES1   0.0000
     8 H3      -1.4610   3.7625   4.9823   H         1 RES1   0.0000
     9 C4       0.0694   4.6329   4.0104   C.ar      1 RES1   0.0000
    10 H4      -0.4511   5.2992   3.5561   H         1 RES1   0.0000
    11 C5       1.4332   4.5573   3.8160   C.ar      1 RES1   0.0000
    12 C6       2.1862   5.4328   2.9259   C.2       1 RES1   0.0000
    13 H5       1.7733   6.0992   2.3735   H         1 RES1   0.0000
    14 N2       3.4442   5.2658   2.9484   N.2       1 RES1   0.0000
    15 C7       4.3707   5.9796   2.0850   C.3       1 RES1   0.0000
    16 H6       4.1174   6.9045   2.0502   H         1 RES1   0.0000
    17 H7       4.3343   5.6210   1.1970   H         1 RES1   0.0000
    18 C8       5.7484   5.8319   2.6395   C.3       1 RES1   0.0000
    19 H8       5.9306   6.5651   3.2328   H         1 RES1   0.0000
    20 H9       6.3834   5.8636   1.9213   H         1 RES1   0.0000
    21 N3       5.9340   4.5731   3.3945   N.3       1 RES1   0.0000
    22 C9       6.4615   3.4601   2.5760   C.3       1 RES1   0.0000
    23 H10      6.8484   2.7991   3.1551   H         1 RES1   0.0000
    24 H11      7.1521   3.7889   1.9949   H         1 RES1   0.0000
    25 C10      5.3684   2.8518   1.7596   C.3       1 RES1   0.0000
    26 H12      5.6703   2.0167   1.3954   H         1 RES1   0.0000
    27 H13      5.1411   3.4338   1.0312   H         1 RES1   0.0000
    28 N4       4.1781   2.5986   2.5924   N.3       1 RES1   0.0000
    29 H14      3.4355   2.7076   2.0870   H         1 RES1   0.0000
    30 C11      4.1434   1.2466   3.1633   C.3       1 RES1   0.0000
    31 H15      4.5893   0.6277   2.5801   H         1 RES1   0.0000
    32 H16      3.2308   0.9617   3.2656   H         1 RES1   0.0000
    33 C12      4.8184   1.2413   4.5219   C.ar      1 RES1   0.0000
    34 C13      5.3441   0.0738   5.0477   C.ar      1 RES1   0.0000
    35 H17      5.3528  -0.7490   4.5546   H         1 RES1   0.0000
    36 C14      5.8646   0.1793   6.3531   C.ar      1 RES1   0.0000
    37 H18      6.2377  -0.5978   6.7767   H         1 RES1   0.0000
    38 C15      5.8403   1.3257   7.0365   C.ar      1 RES1   0.0000
    39 H19      6.1908   1.3872   7.9286   H         1 RES1   0.0000
    40 C16      5.3146   2.4246   6.4022   C.ar      1 RES1   0.0000
    41 H20      5.2886   3.2632   6.8708   H         1 RES1   0.0000
    42 N5       4.7958   2.4087   5.1459   N.ar      1 RES1   0.0000
    43 C17      6.7547   4.8175   4.6303   C.3       1 RES1   0.0000
    44 H21      6.9959   3.9753   5.0232   H         1 RES1   0.0000
    45 C18      5.8577   5.5840   5.5777   C.ar      1 RES1   0.0000
    46 N6       4.5477   5.2377   5.5081   N.ar      1 RES1   0.0000
    47 C19      3.6923   5.8706   6.3593   C.ar      1 RES1   0.0000
    48 H22      2.7553   5.6684   6.2897   H         1 RES1   0.0000
    49 C20      4.1486   6.7568   7.2821   C.ar      1 RES1   0.0000
    50 H23      3.5275   7.1629   7.8918   H         1 RES1   0.0000
    51 C21      5.4586   7.0979   7.3516   C.ar      1 RES1   0.0000
    52 H24      5.7709   7.7484   7.9859   H         1 RES1   0.0000
    53 C22      6.3349   6.4755   6.5025   C.ar      1 RES1   0.0000
    54 H25      7.2735   6.6724   6.5434   H         1 RES1   0.0000
    55 O1       7.9034   5.5594   4.3705   O.3       1 RES1   0.0000
    56 C23      9.0780   4.8386   4.3725   C.3       1 RES1   0.0000
    57 H26      9.1839   4.6663   3.4354   H         1 RES1   0.0000
    58 H27      8.9531   3.9894   4.8042   H         1 RES1   0.0000
    59 C24     10.1521   5.3238   4.6876   C.3       1 RES1   0.0000
    60 H28     10.8687   4.7137   4.5055   H         1 RES1   0.0000
    61 H29     10.3221   6.1590   4.2436   H         1 RES1   0.0000
    62 H30     10.0896   5.4715   5.6329   H         1 RES1   0.0000
    63 B1       0.8363  17.4449   9.1604   B         2 RES2  -1.0000
    64 C25      0.3279  17.0897  10.7195   C.ar      2 RES2   0.0000
    65 C26     -0.6316  16.1491  10.9712   C.ar      2 RES2   0.0000
    66 H31     -1.0237  15.7289  10.2019   H         2 RES2   0.0000
    67 C27     -1.1001  15.7623  12.2295   C.ar      2 RES2   0.0000
    68 H32     -1.7559  15.0678  12.3318   H         2 RES2   0.0000
    69 C28     -0.5604  16.4251  13.2915   C.ar      2 RES2   0.0000
    70 H33     -0.8294  16.1842  14.1815   H         2 RES2   0.0000
    71 C29      0.3383  17.3816  13.1257   C.ar      2 RES2   0.0000
    72 H34      0.6784  17.8422  13.8971   H         2 RES2   0.0000
    73 C30      0.7877  17.7438  11.8551   C.ar      2 RES2   0.0000
    74 H35      1.4315  18.4506  11.7569   H         2 RES2   0.0000
    75 C31      1.7039  16.1913   8.5363   C.ar      2 RES2   0.0000
    76 C32      2.4968  16.3055   7.3987   C.ar      2 RES2   0.0000
    77 H36      2.5246  17.1653   6.9711   H         2 RES2   0.0000
    78 C33      3.2429  15.2875   6.8422   C.ar      2 RES2   0.0000
    79 H37      3.7530  15.4528   6.0462   H         2 RES2   0.0000
    80 C34      3.2446  14.0498   7.3803   C.ar      2 RES2   0.0000
    81 H38      3.7756  13.3465   6.9997   H         2 RES2   0.0000
    82 C35      2.4569  13.8353   8.5343   C.ar      2 RES2   0.0000
    83 H39      2.4274  12.9667   8.9455   H         2 RES2   0.0000
    84 C36      1.7403  14.8744   9.0376   C.ar      2 RES2   0.0000
    85 H40      1.2042  14.6915   9.8131   H         2 RES2   0.0000
    86 C37     -0.5674  17.6189   8.2519   C.ar      2 RES2   0.0000
    87 C38     -1.6883  18.2431   8.7450   C.ar      2 RES2   0.0000
    88 H41     -1.6518  18.5402   9.6555   H         2 RES2   0.0000
    89 C39     -2.8317  18.4435   7.9982   C.ar      2 RES2   0.0000
    90 H42     -3.5570  18.9499   8.3706   H         2 RES2   0.0000
    91 C40     -2.9306  18.0022   6.7419   C.ar      2 RES2   0.0000
    92 H43     -3.7565  18.0444   6.2549   H         2 RES2   0.0000
    93 C41     -1.8080  17.4150   6.2161   C.ar      2 RES2   0.0000
    94 H44     -1.8288  17.1337   5.2994   H         2 RES2   0.0000
    95 C42     -0.6836  17.2110   6.9199   C.ar      2 RES2   0.0000
    96 H45      0.0763  16.7996   6.5005   H         2 RES2   0.0000
    97 C43      1.6917  18.8233   9.1768   C.ar      2 RES2   0.0000
    98 C44      1.1972  20.0611   8.9844   C.ar      2 RES2   0.0000
    99 H46      0.2776  20.1349   8.7143   H         2 RES2   0.0000
   100 C45      1.9659  21.2057   9.1440   C.ar      2 RES2   0.0000
   101 H47      1.5564  22.0619   8.9947   H         2 RES2   0.0000
   102 C46      3.2776  21.1336   9.5164   C.ar      2 RES2   0.0000
   103 H48      3.8120  21.9248   9.6105   H         2 RES2   0.0000
   104 C47      3.8103  19.9521   9.7415   C.ar      2 RES2   0.0000
   105 H49      4.7281  19.8923  10.0177   H         2 RES2   0.0000
   106 C48      3.0711  18.7741   9.6105   C.ar      2 RES2   0.0000
   107 H50      3.4667  17.9196   9.7988   H         2 RES2   0.0000
   108 B2       8.3684   8.8139  20.0579   B         3 RES3  -1.0000
   109 C49      9.4112   7.5233  20.3014   C.ar      3 RES3   0.0000
   110 C50     10.7316   7.7853  20.7024   C.ar      3 RES3   0.0000
   111 H51     11.0526   8.6890  20.7290   H         3 RES3   0.0000
   112 C51     11.1845   5.4733  21.0175   C.ar      3 RES3   0.0000
   113 H52     11.7536   4.7559  21.3060   H         3 RES3   0.0000
   114 C52     11.5679   6.7462  21.0503   C.ar      3 RES3   0.0000
   115 H53     12.4667   6.9449  21.3204   H         3 RES3   0.0000
   116 C53      9.8762   5.2131  20.5858   C.ar      3 RES3   0.0000
   117 H54      9.5708   4.3058  20.5060   H         3 RES3   0.0000
   118 C54      9.0069   6.2135  20.2114   C.ar      3 RES3   0.0000
   119 H55      8.1237   6.0043  19.8983   H         3 RES3   0.0000
   120 C55      6.9872   8.2477  19.2886   C.ar      3 RES3   0.0000
   121 C56      7.0133   7.7079  18.0098   C.ar      3 RES3   0.0000
   122 H56      7.8513   7.6622  17.5412   H         3 RES3   0.0000
   123 C57      5.8907   7.2157  17.3919   C.ar      3 RES3   0.0000
   124 H57      5.9601   6.8499  16.5059   H         3 RES3   0.0000
   125 C58      4.6692   7.2086  17.9893   C.ar      3 RES3   0.0000
   126 H58      3.8866   6.9097  17.5187   H         3 RES3   0.0000
   127 C59      4.6136   7.6605  19.2477   C.ar      3 RES3   0.0000
   128 H59      3.7773   7.6288  19.7183   H         3 RES3   0.0000
   129 C60      5.7432   8.1563  19.8676   C.ar      3 RES3   0.0000
   130 H60      5.6651   8.4517  20.7781   H         3 RES3   0.0000
   131 C61      7.8721   9.4011  21.5025   C.ar      3 RES3   0.0000
   132 C62      8.0439   8.7400  22.7035   C.ar      3 RES3   0.0000
   133 H61      8.5662   7.9348  22.6831   H         3 RES3   0.0000
   134 C63      7.5060   9.1901  23.9025   C.ar      3 RES3   0.0000
   135 H62      7.6622   8.6961  24.7107   H         3 RES3   0.0000
   136 C64      6.8189  10.2784  23.9598   C.ar      3 RES3   0.0000
   137 H63      6.4268  10.5808  24.7824   H         3 RES3   0.0000
   138 C65      6.5674  11.0063  22.8652   C.ar      3 RES3   0.0000
   139 H64      6.0555  11.8169  22.8938   H         3 RES3   0.0000
   140 C66      7.0914  10.5791  21.6662   C.ar      3 RES3   0.0000
   141 H65      6.9491  11.1224  20.8886   H         3 RES3   0.0000
   142 C67      9.1301   9.9708  19.1822   C.ar      3 RES3   0.0000
   143 C68      9.6142  11.1206  19.7592   C.ar      3 RES3   0.0000
   144 H66      9.4389  11.2085  20.6983   H         3 RES3   0.0000
   145 C69     10.3169  12.0753  19.1229   C.ar      3 RES3   0.0000
   146 H67     10.5581  12.9122  19.5280   H         3 RES3   0.0000
   147 C70     10.6535  11.7975  17.7192   C.ar      3 RES3   0.0000
   148 H68     11.2972  12.3426  17.2548   H         3 RES3   0.0000
   149 C71     10.1330  10.8657  17.2670   C.ar      3 RES3   0.0000
   150 H69     10.3065  10.7215  16.3361   H         3 RES3   0.0000
   151 C72      9.4181   9.8969  17.9238   C.ar      3 RES3   0.0000
   152 H70      8.9340   9.2270  17.4369   H         3 RES3   0.0000
@<TRIPOS>BOND
     1     1     2    1
     2     2     3   ar
     3     3     4    1
     4     5     3   ar
     5     6     5    1
     6     7     5   ar
     7     8     7    1
     8     9     7   ar
     9    10     9    1
    10    11     2   ar
    11    12    11    1
    12    13    12    1
    13    14     1    1
    14    15    14    1
    15    16    15    1
    16    17    15    1
    17    18    15    1
    18    19    18    1
    19    20    18    1
    20    21     1    1
    21    22    21    1
    22    23    22    1
    23    24    22    1
    24    25    22    1
    25    26    25    1
    26    27    25    1
    27    28     1    1
    28    29    28    1
    29    30    28    1
    30    31    30    1
    31    32    30    1
    32    33    30    1
    33    34    33   ar
    34    35    34    1
    35    36    34   ar
    36    37    36    1
    37    38    36   ar
    38    39    38    1
    39    40    38   ar
    40    41    40    1
    41    42     1    1
    42    43    21    1
    43    44    43    1
    44    45    43    1
    45    46     1    1
    46    47    46   ar
    47    48    47    1
    48    49    47   ar
    49    50    49    1
    50    51    49   ar
    51    52    51    1
    52    53    45   ar
    53    54    53    1
    54    55    43    1
    55    56    55    1
    56    57    56    1
    57    58    56    1
    58    59    56    1
    59    60    59    1
    60    61    59    1
    61    62    59    1
    62     9    11   ar
    63    12    14    2
    64    18    21    1
    65    25    28    1
    66    33    42   ar
    67    40    42   ar
    68    45    46   ar
    69    51    53   ar
    70    63    64    1
    71    64    65   ar
    72    65    66    1
    73    67    65   ar
    74    68    67    1
    75    69    67   ar
    76    70    69    1
    77    71    69   ar
    78    72    71    1
    79    73    64   ar
    80    74    73    1
    81    75    63    1
    82    76    75   ar
    83    77    76    1
    84    78    76   ar
    85    79    78    1
    86    80    78   ar
    87    81    80    1
    88    82    80   ar
    89    83    82    1
    90    84    75   ar
    91    85    84    1
    92    86    63    1
    93    87    86   ar
    94    88    87    1
    95    89    87   ar
    96    90    89    1
    97    91    89   ar
    98    92    91    1
    99    93    91   ar
   100    94    93    1
   101    95    86   ar
   102    96    95    1
   103    97    63    1
   104    98    97   ar
   105    99    98    1
   106   100    98   ar
   107   101   100    1
   108   102   100   ar
   109   103   102    1
   110   104   102   ar
   111   105   104    1
   112   106    97   ar
   113   107   106    1
   114    71    73   ar
   115    82    84   ar
   116    93    95   ar
   117   104   106   ar
   118   108   109    1
   119   109   110   ar
   120   110   111    1
   121   112   113    1
   122   114   110   ar
   123   115   114    1
   124   116   112   ar
   125   117   116    1
   126   118   109   ar
   127   119   118    1
   128   120   108    1
   129   121   120   ar
   130   122   121    1
   131   123   121   ar
   132   124   123    1
   133   125   123   ar
   134   126   125    1
   135   127   125   ar
   136   128   127    1
   137   129   120   ar
   138   130   129    1
   139   131   108    1
   140   132   131   ar
   141   133   132    1
   142   134   132   ar
   143   135   134    1
   144   136   134   ar
   145   137   136    1
   146   138   136   ar
   147   139   138    1
   148   140   131   ar
   149   141   140    1
   150   142   108    1
   151   143   142   ar
   152   144   143    1
   153   145   143   ar
   154   146   145    1
   155   147   145   ar
   156   148   147    1
   157   149   147   ar
   158   150   149    1
   159   151   142   ar
   160   152   151    1
   161   112   114   ar
   162   116   118   ar
   163   127   129   ar
   164   138   140   ar
   165   149   151   ar
@<TRIPOS>SUBSTRUCTURE
     1 RES1        1 GROUP             0 ****  ****    0  
     2 RES2       63 GROUP             0 ****  ****    0  
     3 RES3      108 GROUP             0 ****  ****    0  
@<TRIPOS>CRYSIN
   17.3510   17.5820   20.4610   90.0000   90.0000   90.0000    19     1
