@<TRIPOS>MOLECULE
COWNIM
   109   146     1     0     0
SMALL
NO_CHARGES
****
Generated from the CSD

@<TRIPOS>ATOM
     1 C1       9.0608  16.0402   5.7569   C.2       1 RES1   0.0000
     2 C2       4.5125  11.3694   3.9816   C.2       1 RES1   0.0000
     3 C3       5.7268  10.7115   3.5064   C.2       1 RES1   0.0000
     4 C4      10.4276  14.5005   4.4113   C.2       1 RES1   0.0000
     5 C5       8.8839  12.7465   1.0275   C.2       1 RES1   0.0000
     6 C6       3.8830  14.5719   2.1593   C.2       1 RES1   0.0000
     7 C7       5.8231  12.9625   6.8988   C.2       1 RES1   0.0000
     8 C8       3.5621  13.4911   3.0577   C.2       1 RES1   0.0000
     9 C9       9.4614  16.0368   2.2329   C.2       1 RES1   0.0000
    10 C10      8.9444  11.2956   4.8641   C.2       1 RES1   0.0000
    11 C11      5.6550  11.7659   6.1524   C.2       1 RES1   0.0000
    12 C12      6.7967  10.5194   4.3519   C.2       1 RES1   0.0000
    13 C13      6.5836  13.1523   0.3287   C.2       1 RES1   0.0000
    14 C14      6.7636  11.0573   5.7116   C.2       1 RES1   0.0000
    15 C15      7.5729  12.2501   0.7122   C.2       1 RES1   0.0000
    16 C16      9.9212  15.7912   4.6325   C.2       1 RES1   0.0000
    17 C17      5.0131  16.7091   2.5978   C.2       1 RES1   0.0000
    18 C18      3.5281  14.0197   4.4205   C.2       1 RES1   0.0000
    19 C19      4.0681  12.2309   2.8378   C.2       1 RES1   0.0000
    20 C20     10.4637  13.9745   3.0556   C.2       1 RES1   0.0000
    21 C21      5.2261  13.0165   0.8479   C.2       1 RES1   0.0000
    22 C22      8.1582  10.6722   3.8292   C.2       1 RES1   0.0000
    23 C23      9.9830  14.7217   1.9954   C.2       1 RES1   0.0000
    24 C24      5.7146  15.3104   0.6929   C.2       1 RES1   0.0000
    25 C25      8.2656  12.6908   6.7650   C.2       1 RES1   0.0000
    26 C26      9.1927  14.0912   0.9688   C.2       1 RES1   0.0000
    27 C27      4.0491  15.7772   2.9486   C.2       1 RES1   0.0000
    28 C28      5.9646  11.0414   2.1354   C.2       1 RES1   0.0000
    29 C29      8.3853  10.9942   2.5013   C.2       1 RES1   0.0000
    30 C30      8.0257  16.9808   5.3500   C.2       1 RES1   0.0000
    31 C31      6.8833  14.5806   0.2349   C.2       1 RES1   0.0000
    32 C32      7.0974  13.4241   7.2261   C.2       1 RES1   0.0000
    33 C33      8.1560  15.0370   0.5443   C.2       1 RES1   0.0000
    34 C34      4.6952  14.3472   1.0693   C.2       1 RES1   0.0000
    35 C35     10.1589  12.5427   3.1153   C.2       1 RES1   0.0000
    36 C36      7.4053  14.8576   7.1382   C.2       1 RES1   0.0000
    37 C37     10.1048  13.4136   5.3114   C.2       1 RES1   0.0000
    38 C38      6.4135  15.7546   6.7444   C.2       1 RES1   0.0000
    39 C39      8.3114  16.2284   1.3173   C.2       1 RES1   0.0000
    40 C40      9.9259  12.2135   4.5168   C.2       1 RES1   0.0000
    41 C41      7.2341  11.1806   1.6173   C.2       1 RES1   0.0000
    42 C42      9.3866  11.9418   2.1505   C.2       1 RES1   0.0000
    43 C43      6.7449  16.8240   5.8446   C.2       1 RES1   0.0000
    44 C44      8.0963  11.5429   6.0132   C.2       1 RES1   0.0000
    45 C45      9.2875  13.6575   6.3943   C.2       1 RES1   0.0000
    46 C46      5.8728  16.4635   1.4436   C.2       1 RES1   0.0000
    47 C47      8.7659  14.9917   6.6320   C.2       1 RES1   0.0000
    48 C48      4.9207  11.9871   1.7246   C.2       1 RES1   0.0000
    49 C49      7.2083  16.9373   1.7681   C.2       1 RES1   0.0000
    50 C50      9.4072  16.5802   3.4906   C.2       1 RES1   0.0000
    51 Fe1      2.8722  10.2561   5.0711   Fe        1 RES1   0.0000
    52 N1       2.2087   9.8727   3.2691   N.2       1 RES1   0.0000
    53 N2       1.4421  11.5093   5.4529   N.2       1 RES1   0.0000
    54 C51      4.7905  13.9170   6.4887   C.2       1 RES1   0.0000
    55 C52      4.4509  11.9198   5.2810   C.2       1 RES1   0.0000
    56 N3       3.6618   8.4996   4.8667   N.2       1 RES1   0.0000
    57 C53      5.0718   7.6010   3.0014   C.ar      1 RES1   0.0000
    58 H1       5.6404   7.1362   3.6029   H         1 RES1   0.0000
    59 C54      3.1433   9.0290   2.6059   C.ar      1 RES1   0.0000
    60 C55      3.9645   8.2958   3.4883   C.ar      1 RES1   0.0000
    61 C56      5.0862  15.2634   6.4305   C.2       1 RES1   0.0000
    62 C57      3.4598   9.0277   1.2452   C.ar      1 RES1   0.0000
    63 H2       2.9296   9.5329   0.6402   H         1 RES1   0.0000
    64 C58      4.0024  13.2847   5.4736   C.2       1 RES1   0.0000
    65 C59      5.3439   7.5838   1.6401   C.ar      1 RES1   0.0000
    66 H3       6.0814   7.0856   1.3103   H         1 RES1   0.0000
    67 C60      4.5427   8.2910   0.7630   C.ar      1 RES1   0.0000
    68 H4       4.7302   8.2753  -0.1684   H         1 RES1   0.0000
    69 N4       2.8034  10.0568   7.0112   N.2       1 RES1   0.0000
    70 C61      2.8724  11.8030   8.7936   C.ar      1 RES1   0.0000
    71 H5       3.3911  11.2590   9.3756   H         1 RES1   0.0000
    72 C62      2.5797  13.1039   9.1488   C.ar      1 RES1   0.0000
    73 H6       2.9089  13.4554   9.9685   H         1 RES1   0.0000
    74 C63      1.0770  10.3393   2.7365   C.2       1 RES1   0.0000
    75 C64      2.8489   8.9217   7.6917   C.2       1 RES1   0.0000
    76 C65      1.6385  12.0904   6.7353   C.ar      1 RES1   0.0000
    77 C66      3.3273   7.7357   7.1112   C.2       1 RES1   0.0000
    78 H7       3.3758   6.9794   7.6846   H         1 RES1   0.0000
    79 C67      1.8123  13.8968   8.3198   C.ar      1 RES1   0.0000
    80 H8       1.6074  14.7896   8.5740   H         1 RES1   0.0000
    81 C68      3.7375   7.5373   5.7909   C.2       1 RES1   0.0000
    82 C69      2.4115  11.2841   7.5876   C.ar      1 RES1   0.0000
    83 C70      2.2946   8.7978   9.0911   C.3       1 RES1   0.0000
    84 H9       3.0193   8.9058   9.7404   H         1 RES1   0.0000
    85 H10      1.8832   7.9147   9.2019   H         1 RES1   0.0000
    86 H11      1.6192   9.4928   9.2370   H         1 RES1   0.0000
    87 C71      1.3363  13.3930   7.1118   C.ar      1 RES1   0.0000
    88 H12      0.8038  13.9396   6.5462   H         1 RES1   0.0000
    89 C72     -0.9288  12.2379   5.3850   C.3       1 RES1   0.0000
    90 H13     -0.9655  11.9818   6.3305   H         1 RES1   0.0000
    91 H14     -1.7226  11.8948   4.9237   H         1 RES1   0.0000
    92 H15     -0.9043  13.2150   5.3114   H         1 RES1   0.0000
    93 C73      0.1937  11.1554   3.4533   C.2       1 RES1   0.0000
    94 H16     -0.5988  11.4053   2.9925   H         1 RES1   0.0000
    95 C74      0.3183  11.6512   4.7502   C.2       1 RES1   0.0000
    96 C75      4.5871  16.0577   5.3096   C.2       1 RES1   0.0000
    97 C76      5.5999  17.0104   4.9500   C.2       1 RES1   0.0000
    98 C77      0.5959   9.9248   1.3573   C.3       1 RES1   0.0000
    99 H17      0.9725  10.5274   0.6841   H         1 RES1   0.0000
   100 H18     -0.3833   9.9701   1.3261   H         1 RES1   0.0000
   101 H19      0.8855   9.0068   1.1717   H         1 RES1   0.0000
   102 C78      4.1612   6.1294   5.4529   C.3       1 RES1   0.0000
   103 H20      3.8216   5.8908   4.5659   H         1 RES1   0.0000
   104 H21      3.7966   5.5093   6.1200   H         1 RES1   0.0000
   105 H22      5.1394   6.0737   5.4552   H         1 RES1   0.0000
   106 C79      5.8084  17.3257   3.6310   C.2       1 RES1   0.0000
   107 C80      3.8344  15.4498   4.3466   C.2       1 RES1   0.0000
   108 C81      7.1708  17.4737   3.1100   C.2       1 RES1   0.0000
   109 C82      8.2475  17.3030   3.9519   C.2       1 RES1   0.0000
@<TRIPOS>BOND
     1     1    16    1
     2     2     3    1
     3     3    12    2
     4     4    16    2
     5     5    15    1
     6     6     8    1
     7     7    11    1
     8     8    18    1
     9     9    23    1
    10    10    22    1
    11    11    14    2
    12    12    14    1
    13    13    15    2
    14    14    44    1
    15    15    41    1
    16    16    50    1
    17    17    27    2
    18    18    64    2
    19    19     2    1
    20    20     4    1
    21    21    13    1
    22    22    12    1
    23    23    20    2
    24    24    31    1
    25    25    32    1
    26    26     5    2
    27    27     6    1
    28    28     3    1
    29    29    22    2
    30    30     1    1
    31    31    13    1
    32    32     7    2
    33    33    26    1
    34    34     6    2
    35    35    20    1
    36    36    32    1
    37    37     4    1
    38    38    36    2
    39    39     9    1
    40    40    10    1
    41    41    28    2
    42    42     5    1
    43    43    30    2
    44    44    10    2
    45    45    25    2
    46    46    17    1
    47    47     1    2
    48    48    19    1
    49    49    39    2
    50    50     9    2
    51    51     2   un
    52    52    51    1
    53    53    51    1
    54    54     7    1
    55    55     2    2
    56    56    51    1
    57    57    58    1
    58    59    52    1
    59    60    56    1
    60    61    38    1
    61    62    59   ar
    62    63    62    1
    63    64    54    1
    64    65    57   ar
    65    66    65    1
    66    67    62   ar
    67    68    67    1
    68    69    51    1
    69    70    71    1
    70    72    70   ar
    71    73    72    1
    72    74    52   un
    73    75    69   un
    74    76    53    1
    75    77    75   un
    76    78    77    1
    77    79    72   ar
    78    80    79    1
    79    81    56   un
    80    82    69    1
    81    83    75    1
    82    84    83    1
    83    85    83    1
    84    86    83    1
    85    87    76   ar
    86    88    87    1
    87    89    90    1
    88    91    89    1
    89    92    89    1
    90    93    74   un
    91    94    93    1
    92    95    53   un
    93    96    61    1
    94    97    43    1
    95    98    74    1
    96    99    98    1
    97   100    98    1
    98   101    98    1
    99   102    81    1
   100   103   102    1
   101   104   102    1
   102   105   102    1
   103   106    17    1
   104   107    18    1
   105   108    49    1
   106   109    30    1
   107     8    19    2
   108    11    55    1
   109    21    34    1
   110    21    48    2
   111    23    26    1
   112    24    34    1
   113    24    46    2
   114    25    44    1
   115    27   107    1
   116    28    48    1
   117    29    41    1
   118    29    42    1
   119    31    33    2
   120    33    39    1
   121    35    40    1
   122    35    42    2
   123    36    47    1
   124    37    40    2
   125    37    45    1
   126    38    43    1
   127    45    47    1
   128    46    49    1
   129    50   109    1
   130    51    55   un
   131    54    61    2
   132    55    64    1
   133    57    60   ar
   134    59    60   ar
   135    65    67   ar
   136    70    82   ar
   137    76    82   ar
   138    77    81   un
   139    79    87   ar
   140    89    95    1
   141    93    95   un
   142    96    97    1
   143    96   107    2
   144    97   106    2
   145   106   108    1
   146   108   109    2
@<TRIPOS>SUBSTRUCTURE
     1 RES1        1 GROUP             0 ****  ****    0  
@<TRIPOS>CRYSIN
   14.3740   17.4180   18.3850   90.0000  107.4300   90.0000   231     1
