@<TRIPOS>MOLECULE
CUDKOE
   199   228     7     0     0
SMALL
NO_CHARGES
****
Generated from the CSD

@<TRIPOS>ATOM
     1 C1      12.2676  10.0343   1.5689   C.ar      1 RES1   0.0000
     2 C2      12.8033   9.9913   0.2851   C.ar      1 RES1   0.0000
     3 H1      13.6320  10.3730   0.1100   H         1 RES1   0.0000
     4 C3      12.0913   9.3801  -0.7200   C.ar      1 RES1   0.0000
     5 H2      12.4314   9.3478  -1.5859   H         1 RES1   0.0000
     6 C4      10.8569   8.8077  -0.4279   C.ar      1 RES1   0.0000
     7 H3      10.3654   8.3800  -1.0907   H         1 RES1   0.0000
     8 C5      10.3738   8.8846   0.8630   C.ar      1 RES1   0.0000
     9 H4       9.5452   8.5097   1.0596   H         1 RES1   0.0000
    10 C6      13.0160  10.6589   2.7440   C.3       1 RES1   0.0000
    11 C7      15.3572  11.1180   2.8177   C.3       1 RES1   0.0000
    12 H5      15.3571  11.6365   2.0092   H         1 RES1   0.0000
    13 H6      16.2115  10.6903   2.9230   H         1 RES1   0.0000
    14 H7      15.1951  11.6942   3.5688   H         1 RES1   0.0000
    15 C8      11.8199   7.0951   4.7640   C.ar      1 RES1   0.0000
    16 H8      12.5873   7.6083   4.8867   H         1 RES1   0.0000
    17 C9      11.8686   5.7299   4.9896   C.ar      1 RES1   0.0000
    18 H9      12.6700   5.3237   5.2288   H         1 RES1   0.0000
    19 C10     10.6923   4.9558   4.8580   C.ar      1 RES1   0.0000
    20 H10     10.6979   4.0467   5.0494   H         1 RES1   0.0000
    21 C11      9.5547   5.5716   4.4452   C.ar      1 RES1   0.0000
    22 H11      8.7764   5.0756   4.3198   H         1 RES1   0.0000
    23 C12      9.5514   6.9377   4.2098   C.ar      1 RES1   0.0000
    24 C13      8.3021   7.6891   3.7819   C.3       1 RES1   0.0000
    25 C14      6.5891   7.2418   2.1432   C.3       1 RES1   0.0000
    26 H12      6.0324   6.7468   2.7483   H         1 RES1   0.0000
    27 H13      6.4699   6.9059   1.2510   H         1 RES1   0.0000
    28 H14      6.3461   8.1699   2.1719   H         1 RES1   0.0000
    29 C15     13.4613  10.3327  10.6279   C.ar      1 RES1   0.0000
    30 H15     13.5762  11.1983  10.9479   H         1 RES1   0.0000
    31 C16     14.3869   9.3808  10.9575   C.ar      1 RES1   0.0000
    32 H16     15.1223   9.5961  11.4813   H         1 RES1   0.0000
    33 C17     14.2052   8.0928  10.4934   C.ar      1 RES1   0.0000
    34 H17     14.8162   7.4257  10.7087   H         1 RES1   0.0000
    35 C18     13.1003   7.8049   9.7034   C.ar      1 RES1   0.0000
    36 H18     12.9701   6.9442   9.3740   H         1 RES1   0.0000
    37 C19     12.1992   8.7965   9.4113   C.ar      1 RES1   0.0000
    38 C20     10.9602   8.5792   8.5431   C.3       1 RES1   0.0000
    39 C21     10.1100   6.3627   8.4531   C.3       1 RES1   0.0000
    40 H19      9.6425   6.5136   7.6303   H         1 RES1   0.0000
    41 H20      9.6419   5.7048   8.9722   H         1 RES1   0.0000
    42 H21     10.9977   6.0499   8.2642   H         1 RES1   0.0000
    43 C22     13.9261  14.9447   2.7572   C.ar      1 RES1   0.0000
    44 H22     13.0951  15.0784   2.3632   H         1 RES1   0.0000
    45 C23     15.0490  14.9001   1.9411   C.ar      1 RES1   0.0000
    46 H23     14.9793  15.0035   1.0190   H         1 RES1   0.0000
    47 C24     16.2860  14.6944   2.5551   C.ar      1 RES1   0.0000
    48 H24     17.0607  14.6590   2.0427   H         1 RES1   0.0000
    49 C25     16.3556  14.5436   3.9111   C.ar      1 RES1   0.0000
    50 H25     17.1757  14.3974   4.3246   H         1 RES1   0.0000
    51 C26     15.1791  14.6119   4.6736   C.ar      1 RES1   0.0000
    52 C27     15.1583  14.4890   6.1973   C.3       1 RES1   0.0000
    53 C28     16.9909  15.7083   7.1543   C.3       1 RES1   0.0000
    54 H26     17.0461  15.3414   8.0393   H         1 RES1   0.0000
    55 H27     17.3318  16.6056   7.1567   H         1 RES1   0.0000
    56 H28     17.5104  15.1713   6.5515   H         1 RES1   0.0000
    57 C29      6.4815  16.1816   5.1424   C.ar      1 RES1   0.0000
    58 H29      6.7421  16.2683   6.0301   H         1 RES1   0.0000
    59 C30      6.0880  17.3272   4.4131   C.ar      1 RES1   0.0000
    60 H30      6.0997  18.1655   4.8174   H         1 RES1   0.0000
    61 C31      5.6912  17.1981   3.1119   C.ar      1 RES1   0.0000
    62 H31      5.4284  17.9430   2.6216   H         1 RES1   0.0000
    63 C32      5.6887  15.9408   2.5383   C.ar      1 RES1   0.0000
    64 H32      5.4179  15.8305   1.6552   H         1 RES1   0.0000
    65 C33      6.0908  14.8460   3.2851   C.ar      1 RES1   0.0000
    66 C34      6.0609  13.4335   2.7232   C.3       1 RES1   0.0000
    67 C35      4.4279  12.1856   1.5237   C.3       1 RES1   0.0000
    68 H33      4.9855  12.3320   0.7559   H         1 RES1   0.0000
    69 H34      3.5056  12.2389   1.2629   H         1 RES1   0.0000
    70 H35      4.6081  11.3148   1.8872   H         1 RES1   0.0000
    71 C36      4.2283  12.1742   5.8127   C.ar      1 RES1   0.0000
    72 H36      4.2246  12.0788   4.8867   H         1 RES1   0.0000
    73 C37      3.1199  11.7681   6.5420   C.ar      1 RES1   0.0000
    74 H37      2.3950  11.3810   6.1066   H         1 RES1   0.0000
    75 C38      3.0916  11.9247   7.8312   C.ar      1 RES1   0.0000
    76 H38      2.3325  11.6836   8.3096   H         1 RES1   0.0000
    77 C39      4.1943  12.4546   8.4962   C.ar      1 RES1   0.0000
    78 H39      4.1980  12.5391   9.4219   H         1 RES1   0.0000
    79 C40      5.2936  12.8555   7.7391   C.ar      1 RES1   0.0000
    80 C41      6.5676  13.4758   8.3519   C.3       1 RES1   0.0000
    81 C42      5.7799  15.6013   8.9459   C.2       1 RES1   0.0000
    82 H40      5.5623  15.7891   8.0608   H         1 RES1   0.0000
    83 H41      5.6217  16.2339   9.6084   H         1 RES1   0.0000
    84 C43      8.6256  11.1281  10.9068   C.ar      1 RES1   0.0000
    85 H42      8.4855  10.3169  10.4743   H         1 RES1   0.0000
    86 C44      7.6671  11.6047  11.7827   C.ar      1 RES1   0.0000
    87 H43      6.8870  11.1219  11.9334   H         1 RES1   0.0000
    88 C45      7.8787  12.8066  12.4285   C.ar      1 RES1   0.0000
    89 H44      7.2276  13.1631  12.9882   H         1 RES1   0.0000
    90 C46      9.0553  13.4620  12.2372   C.ar      1 RES1   0.0000
    91 H45      9.2493  14.2236  12.7371   H         1 RES1   0.0000
    92 C47      9.9859  12.9890  11.2804   C.ar      1 RES1   0.0000
    93 C48     11.2888  13.6727  10.9814   C.3       1 RES1   0.0000
    94 C49     13.2550  14.1953  12.3472   C.3       1 RES1   0.0000
    95 H46     13.9516  13.9581  11.7301   H         1 RES1   0.0000
    96 H47     13.5748  14.0862  13.2466   H         1 RES1   0.0000
    97 H48     13.0019  15.1099  12.2061   H         1 RES1   0.0000
    98 C50     12.6948  17.5446   6.6173   C.ar      1 RES1   0.0000
    99 H49     13.3978  17.1667   7.0969   H         1 RES1   0.0000
   100 C51     12.2956  18.8311   6.9103   C.ar      1 RES1   0.0000
   101 H50     12.7255  19.3063   7.5872   H         1 RES1   0.0000
   102 C52     11.2773  19.4096   6.2167   C.ar      1 RES1   0.0000
   103 H51     11.0159  20.2837   6.3961   H         1 RES1   0.0000
   104 C53     10.6233  18.6406   5.2094   C.ar      1 RES1   0.0000
   105 H52      9.9074  18.9930   4.7313   H         1 RES1   0.0000
   106 C54     11.0777  17.3566   4.9580   C.ar      1 RES1   0.0000
   107 C55     10.4200  16.4487   3.9123   C.3       1 RES1   0.0000
   108 C56      9.5496  17.5701   1.9973   C.3       1 RES1   0.0000
   109 H53      8.8999  16.8895   1.8011   H         1 RES1   0.0000
   110 H54      9.8189  17.9991   1.1816   H         1 RES1   0.0000
   111 H55      9.1625  18.2192   2.5905   H         1 RES1   0.0000
   112 Fe1     12.2896  14.6936   5.4038   Fe        1 RES1   0.0000
   113 Fe2      9.0951  10.5785   6.9094   Fe        1 RES1   0.0000
   114 Fe3     10.4569   9.7734   3.9013   Fe        1 RES1   0.0000
   115 Fe4     12.2326  11.3107   5.7852   Fe        1 RES1   0.0000
   116 Fe5      9.5034  13.9719   7.2111   Fe        1 RES1   0.0000
   117 Fe6      7.1791  13.1775   5.4911   Fe        1 RES1   0.0000
   118 Fe7     10.1539  13.2821   3.8910   Fe        1 RES1   0.0000
   119 Fe8     12.7715  13.7139   8.1542   Fe        1 RES1   0.0000
   120 Fe9     11.0396  11.4837   8.9719   Fe        1 RES1   0.0000
   121 Fe10     7.5838  10.7863   3.6470   Fe        1 RES1   0.0000
   122 N1      11.0708   9.4857   1.8435   N.ar      1 RES1   0.0000
   123 N2      10.6736   7.6948   4.3660   N.ar      1 RES1   0.0000
   124 N3      12.3768  10.0590   9.8481   N.ar      1 RES1   0.0000
   125 N4       9.7676  11.8202  10.6659   N.ar      1 RES1   0.0000
   126 N5      13.9869  14.8045   4.0838   N.ar      1 RES1   0.0000
   127 N6      12.0903  16.8216   5.6519   N.ar      1 RES1   0.0000
   128 N7       6.4828  14.9680   4.5631   N.ar      1 RES1   0.0000
   129 N8       5.3038  12.7021   6.4171   N.ar      1 RES1   0.0000
   130 N9       7.7286  10.8639   0.5848   N.pl3     1 RES1   0.0000
   131 N10      5.1425   9.2560   4.6908   N.pl3     1 RES1   0.0000
   132 N11      7.4251   8.8623   7.8513   N.pl3     1 RES1   0.0000
   133 N12     14.4174  10.0126   6.2870   N.pl3     1 RES1   0.0000
   134 N13     14.6607  14.8580   9.5438   N.pl3     1 RES1   0.0000
   135 N14      9.1137  16.1809   8.4641   N.pl3     1 RES1   0.0000
   136 N15      9.9380  14.0830   1.4493   N.pl3     1 RES1   0.0000
   137 O1      12.3648  11.9176   7.5939   O.3       1 RES1   0.0000
   138 O2      11.3338  14.4762   7.1122   O.3       1 RES1   0.0000
   139 O3      10.5345  10.3487   5.7445   O.3       1 RES1   0.0000
   140 O4       7.7230  11.2042   5.6060   O.3       1 RES1   0.0000
   141 O5       9.0291  13.6903   5.3462   O.3       1 RES1   0.0000
   142 O6       7.3959  13.8784   7.3055   O.3       1 RES1   0.0000
   143 O7       9.5811  12.1883   7.8338   O.3       1 RES1   0.0000
   144 O8       9.4612  11.4840   3.3951   O.3       1 RES1   0.0000
   145 O9      12.3523  10.2991   3.9338   O.3       1 RES1   0.0000
   146 O10     14.3189  10.1139   2.7462   O.3       1 RES1   0.0000
   147 O11      8.5997   9.0635   3.6697   O.3       1 RES1   0.0000
   148 O12      7.9733   7.0948   2.5312   O.3       1 RES1   0.0000
   149 O13     10.2192   9.7499   8.4749   O.3       1 RES1   0.0000
   150 O14     10.1823   7.5649   9.1786   O.3       1 RES1   0.0000
   151 O15     11.8256  13.1055   9.8299   O.3       1 RES1   0.0000
   152 O16     12.1109  13.3395  12.1355   O.3       1 RES1   0.0000
   153 O17      7.1509  10.4684   1.6610   O.3       1 RES1   0.0000
   154 O18      8.5776  11.7415   0.6475   O.2       1 RES1   0.0000
   155 O19      7.4874  10.2908  -0.4557   O.2       1 RES1   0.0000
   156 O20      5.7553   9.8161   3.7659   O.3       1 RES1   0.0000
   157 O21      5.5957   9.2935   5.8466   O.2       1 RES1   0.0000
   158 O22      4.1717   8.5449   4.4698   O.2       1 RES1   0.0000
   159 O23      8.2318   8.5929   6.8917   O.3       1 RES1   0.0000
   160 O24      7.4009  10.0950   8.2106   O.3       1 RES1   0.0000
   161 O25      6.7527   8.0042   8.4096   O.2       1 RES1   0.0000
   162 O26     11.8118  12.8795   4.8188   O.3       1 RES1   0.0000
   163 O27      9.3454  15.0880   9.0360   O.3       1 RES1   0.0000
   164 O28      9.0588  16.1703   7.1863   O.3       1 RES1   0.0000
   165 O29      8.9500  17.2310   9.0894   O.2       1 RES1   0.0000
   166 O30     13.4203  15.4813   9.2408   O.3       1 RES1   0.0000
   167 O31     15.5341  15.4966  10.0318   O.2       1 RES1   0.0000
   168 O32     14.6824  13.5783   9.1159   O.3       1 RES1   0.0000
   169 O33     13.2912   9.4510   6.4860   O.3       1 RES1   0.0000
   170 O34     14.3740  11.1888   5.8026   O.3       1 RES1   0.0000
   171 O35     15.4598   9.4380   6.5324   O.2       1 RES1   0.0000
   172 O36     15.6579  15.7195   6.7369   O.3       1 RES1   0.0000
   173 O37     13.8360  14.3439   6.5841   O.3       1 RES1   0.0000
   174 O38     10.6941  16.9721   2.6247   O.3       1 RES1   0.0000
   175 O39     11.0028  15.1875   3.9941   O.3       1 RES1   0.0000
   176 O40      9.8142  14.5937   0.3363   O.2       1 RES1   0.0000
   177 O41      9.0040  14.2285   2.3374   O.3       1 RES1   0.0000
   178 O42     10.9324  13.4013   1.8014   O.3       1 RES1   0.0000
   179 O43      4.7017  13.1679   2.4972   O.3       1 RES1   0.0000
   180 O44      6.6481  12.5529   3.6721   O.3       1 RES1   0.0000
   181 O45      6.2656  14.5406   9.2312   O.3       1 RES1   0.0000
   182 O46     18.3440  11.2594  11.6655   O.3       2 RES2   0.0000
   183 H56     18.8320  11.0553  12.3305   H         2 RES2   0.0000
   184 H57     17.5365  11.2463  11.9310   H         2 RES2   0.0000
   185 O47     15.8069   7.1911   3.5329   O.3       3 RES3   0.0000
   186 H58     16.2746   7.1503   4.2433   H         3 RES3   0.0000
   187 H59     16.2245   7.6907   2.9875   H         3 RES3   0.0000
   188 O48     18.4184   8.5870   0.5334   O.3       4 RES4   0.0000
   189 H60     18.2504   9.2998   0.1029   H         4 RES4   0.0000
   190 H61     17.8100   8.4926   1.1194   H         4 RES4   0.0000
   191 O49     15.0675   5.9223   7.2906   O.3       5 RES5   0.0000
   192 H62     15.7861   5.4984   7.4509   H         5 RES5   0.0000
   193 H63     14.5722   5.8653   7.9795   H         5 RES5   0.0000
   194 O50      9.2140  11.9610  22.6230   O.3       6 RES6   0.0000
   195 H64      9.8759  12.4674  22.7880   H         6 RES6   0.0000
   196 H65      8.5559  12.4458  22.3910   H         6 RES6   0.0000
   197 O51     18.6321   9.2625   9.8763   O.3       7 RES7   0.0000
   198 H66     18.4572   9.1339   9.0535   H         7 RES7   0.0000
   199 H67     19.4407   9.5199   9.9242   H         7 RES7   0.0000
@<TRIPOS>BOND
     1     1     2   ar
     2     2     3    1
     3     4     2   ar
     4     5     4    1
     5     6     4   ar
     6     7     6    1
     7     8     6   ar
     8     9     8    1
     9    10     1    1
    10    11    12    1
    11    13    11    1
    12    14    11    1
    13    15    16    1
    14    17    15   ar
    15    18    17    1
    16    19    17   ar
    17    20    19    1
    18    21    19   ar
    19    22    21    1
    20    23    21   ar
    21    24    23    1
    22    25    26    1
    23    27    25    1
    24    28    25    1
    25    29    30    1
    26    31    29   ar
    27    32    31    1
    28    33    31   ar
    29    34    33    1
    30    35    33   ar
    31    36    35    1
    32    37    35   ar
    33    38    37    1
    34    39    40    1
    35    41    39    1
    36    42    39    1
    37    43    44    1
    38    45    43   ar
    39    46    45    1
    40    47    45   ar
    41    48    47    1
    42    49    47   ar
    43    50    49    1
    44    51    49   ar
    45    52    51    1
    46    53    54    1
    47    55    53    1
    48    56    53    1
    49    57    58    1
    50    59    57   ar
    51    60    59    1
    52    61    59   ar
    53    62    61    1
    54    63    61   ar
    55    64    63    1
    56    65    63   ar
    57    66    65    1
    58    67    68    1
    59    69    67    1
    60    70    67    1
    61    71    72    1
    62    73    71   ar
    63    74    73    1
    64    75    73   ar
    65    76    75    1
    66    77    75   ar
    67    78    77    1
    68    79    77   ar
    69    80    79    1
    70    81    82    1
    71    83    81    1
    72    84    85    1
    73    86    84   ar
    74    87    86    1
    75    88    86   ar
    76    89    88    1
    77    90    88   ar
    78    91    90    1
    79    92    90   ar
    80    93    92    1
    81    94    95    1
    82    96    94    1
    83    97    94    1
    84    98    99    1
    85   100    98   ar
    86   101   100    1
    87   102   100   ar
    88   103   102    1
    89   104   102   ar
    90   105   104    1
    91   106   104   ar
    92   107   106    1
    93   108   109    1
    94   110   108    1
    95   111   108    1
    96   112   126    1
    97   113   139    1
    98   114   122    1
    99   115   137    1
   100   116   138    1
   101   117   128    1
   102   118   141    1
   103   119   137    1
   104   120   124    1
   105   121   140    1
   106   122     1   ar
   107   123    15   ar
   108   124    29   ar
   109   125    84   ar
   110   126    43   ar
   111   127    98   ar
   112   128    57   ar
   113   129    71   ar
   114   130   153    1
   115   131   156    1
   116   132   159    1
   117   133   169    1
   118   134   166    1
   119   135   163    1
   120   136   176    2
   121   137   120    1
   122   138   112    1
   123   139   114    1
   124   140   113    1
   125   141   116    1
   126   142    80    1
   127   143   113    1
   128   144   114    1
   129   145    10    1
   130   146    10    1
   131   147    24    1
   132   148    24    1
   133   149    38    1
   134   150    38    1
   135   151    93    1
   136   152    93    1
   137   153   121    1
   138   154   130    2
   139   155   130    2
   140   156   121    1
   141   157   131    2
   142   158   131    2
   143   159   113    1
   144   160   113    1
   145   161   132    2
   146   162   112    1
   147   163   116    1
   148   164   116    1
   149   165   135    2
   150   166   119    1
   151   167   134    2
   152   168   119    1
   153   169   115    1
   154   170   115    1
   155   171   133    2
   156   172    52    1
   157   173    52    1
   158   174   107    1
   159   175   107    1
   160   177   118    1
   161   178   118    1
   162   179    66    1
   163   180    66    1
   164   181    80    1
   165     8   122   ar
   166    11   146    1
   167    23   123   ar
   168    25   148    1
   169    37   124   ar
   170    39   150    1
   171    51   126   ar
   172    53   172    1
   173    65   128   ar
   174    67   179    1
   175    79   129   ar
   176    81   181    1
   177    92   125   ar
   178    94   152    1
   179   106   127   ar
   180   108   174    1
   181   112   127    1
   182   112   173    1
   183   112   175    1
   184   113   149    1
   185   114   123    1
   186   114   145    1
   187   114   147    1
   188   115   139    1
   189   115   145    1
   190   115   162    1
   191   116   142    1
   192   116   143    1
   193   117   129    1
   194   117   140    1
   195   117   141    1
   196   117   142    1
   197   117   180    1
   198   118   144    1
   199   118   162    1
   200   118   175    1
   201   119   138    1
   202   119   151    1
   203   119   173    1
   204   120   125    1
   205   120   143    1
   206   120   149    1
   207   120   151    1
   208   121   144    1
   209   121   147    1
   210   121   180    1
   211   132   160    1
   212   133   170    1
   213   134   168    1
   214   135   164    1
   215   136   177    1
   216   136   178    1
   217   182   183    1
   218   184   182    1
   219   185   186    1
   220   187   185    1
   221   188   189    1
   222   190   188    1
   223   191   192    1
   224   193   191    1
   225   194   195    1
   226   196   194    1
   227   197   198    1
   228   199   197    1
@<TRIPOS>SUBSTRUCTURE
     1 RES1        1 GROUP             0 ****  ****    0  
     2 RES2      182 GROUP             0 ****  ****    0  
     3 RES3      185 GROUP             0 ****  ****    0  
     4 RES4      188 GROUP             0 ****  ****    0  
     5 RES5      191 GROUP             0 ****  ****    0  
     6 RES6      194 GROUP             0 ****  ****    0  
     7 RES7      197 GROUP             0 ****  ****    0  
@<TRIPOS>CRYSIN
   14.5320   14.6320   24.9380   75.4900   77.5500   68.0100     2     1
