@<TRIPOS>MOLECULE
CUVXEZ
   107   111     2     0     0
SMALL
NO_CHARGES
****
Generated from the CSD

@<TRIPOS>ATOM
     1 Fe1     -0.7889   2.3679  11.4225   Fe        1 RES1   0.0000
     2 H1      -0.0314   1.5179  12.2465   H         1 RES1   0.0000
     3 H2      -2.1920   1.8921  12.0134   H         1 RES1   0.0000
     4 H3      -1.9297   3.1345  10.5059   H         1 RES1   0.0000
     5 P1      -0.4547   0.7154   9.9965   P.3       1 RES1   0.0000
     6 P2      -0.4025   4.0192  12.8488   P.3       1 RES1   0.0000
     7 N1       1.6919   2.2048   9.9589   N.pl3     1 RES1   0.0000
     8 N2       1.6717   3.8762  11.2550   N.pl3     1 RES1   0.0000
     9 C1       0.8671   2.8710  10.8074   C.3       1 RES1   0.0000
    10 C2       1.3128   0.9655   9.4538   C.2       1 RES1   0.0000
    11 C3       2.2543   0.2791   8.7839   C.2       1 RES1   0.0000
    12 H4       2.0361  -0.5790   8.4388   H         1 RES1   0.0000
    13 C4       3.5811   0.7956   8.5710   C.2       1 RES1   0.0000
    14 C5       3.9176   2.0049   9.0979   C.2       1 RES1   0.0000
    15 H5       4.7850   2.3611   8.9452   H         1 RES1   0.0000
    16 C6       2.9847   2.7364   9.8718   C.2       1 RES1   0.0000
    17 C7       2.9625   3.8496  10.7142   C.2       1 RES1   0.0000
    18 C8       3.8544   4.8630  11.1649   C.2       1 RES1   0.0000
    19 H6       4.7179   4.9388  10.7766   H         1 RES1   0.0000
    20 C9       3.4752   5.7254  12.1533   C.2       1 RES1   0.0000
    21 C10      2.1829   5.5628  12.7672   C.2       1 RES1   0.0000
    22 H7       1.9548   6.1094  13.5104   H         1 RES1   0.0000
    23 C11      1.2776   4.6509  12.3196   C.2       1 RES1   0.0000
    24 C12     -0.5232  -1.0602  10.4904   C.3       1 RES1   0.0000
    25 H8      -0.2072  -1.6177   9.7227   H         1 RES1   0.0000
    26 C13      0.3600  -1.3507  11.6995   C.3       1 RES1   0.0000
    27 H9       1.2763  -1.0564  11.5118   H         1 RES1   0.0000
    28 H10      0.3577  -2.3134  11.8820   H         1 RES1   0.0000
    29 H11      0.0154  -0.8687  12.4793   H         1 RES1   0.0000
    30 C14     -1.9965  -1.4164  10.7826   C.3       1 RES1   0.0000
    31 H12     -2.3303  -0.8532  11.5123   H         1 RES1   0.0000
    32 H13     -2.0594  -2.3592  11.0437   H         1 RES1   0.0000
    33 H14     -2.5357  -1.2634   9.9791   H         1 RES1   0.0000
    34 C15     -1.3397   0.7397   8.3814   C.3       1 RES1   0.0000
    35 H15     -2.3185   0.7619   8.5886   H         1 RES1   0.0000
    36 C16     -1.1098  -0.4583   7.4474   C.3       1 RES1   0.0000
    37 H16     -0.1567  -0.5204   7.2256   H         1 RES1   0.0000
    38 H17     -1.6281  -0.3344   6.6243   H         1 RES1   0.0000
    39 H18     -1.3961  -1.2812   7.8935   H         1 RES1   0.0000
    40 C17     -1.0093   2.0512   7.6463   C.3       1 RES1   0.0000
    41 H19     -1.1550   2.8096   8.2507   H         1 RES1   0.0000
    42 H20     -1.5913   2.1418   6.8633   H         1 RES1   0.0000
    43 H21     -0.0733   2.0374   7.3591   H         1 RES1   0.0000
    44 C18      4.6048  -0.0847   7.8406   C.3       1 RES1   0.0000
    45 C19      4.9620  -1.2405   8.7668   C.3       1 RES1   0.0000
    46 H22      5.6321  -1.8108   8.3356   H         1 RES1   0.0000
    47 H23      4.1576  -1.7681   8.9562   H         1 RES1   0.0000
    48 H24      5.3249  -0.8870   9.6058   H         1 RES1   0.0000
    49 C20      5.8596   0.6773   7.5049   C.3       1 RES1   0.0000
    50 H25      6.4868   0.0862   7.0382   H         1 RES1   0.0000
    51 H26      6.2729   1.0069   8.3296   H         1 RES1   0.0000
    52 H27      5.6355   1.4366   6.9260   H         1 RES1   0.0000
    53 C21      4.0299  -0.6521   6.5600   C.3       1 RES1   0.0000
    54 H28      3.8302   0.0787   5.9397   H         1 RES1   0.0000
    55 H29      3.2064  -1.1440   6.7625   H         1 RES1   0.0000
    56 H30      4.6808  -1.2602   6.1513   H         1 RES1   0.0000
    57 C22      4.3782   6.8525  12.6382   C.3       1 RES1   0.0000
    58 C23      5.6472   6.9716  11.8285   C.3       1 RES1   0.0000
    59 H31      6.1778   7.7242  12.1634   H         1 RES1   0.0000
    60 H32      5.4207   7.1240  10.8877   H         1 RES1   0.0000
    61 H33      6.1651   6.1440  11.9108   H         1 RES1   0.0000
    62 C24      4.7185   6.6241  14.0929   C.3       1 RES1   0.0000
    63 H34      5.2764   5.8228  14.1765   H         1 RES1   0.0000
    64 H35      3.8931   6.5027  14.6069   H         1 RES1   0.0000
    65 H36      5.2078   7.3998  14.4398   H         1 RES1   0.0000
    66 C25      3.6467   8.1749  12.5076   C.3       1 RES1   0.0000
    67 H37      2.7799   8.1140  12.9611   H         1 RES1   0.0000
    68 H38      3.5069   8.3786  11.5601   H         1 RES1   0.0000
    69 H39      4.1816   8.8852  12.9199   H         1 RES1   0.0000
    70 C26     -0.1670   3.6751  14.6275   C.3       1 RES1   0.0000
    71 H40      0.0670   4.5346  15.0819   H         1 RES1   0.0000
    72 C27      0.9710   2.6753  14.8777   C.3       1 RES1   0.0000
    73 H41      0.7624   1.8258  14.4350   H         1 RES1   0.0000
    74 H42      1.0689   2.5264  15.8408   H         1 RES1   0.0000
    75 H43      1.8075   3.0351  14.5154   H         1 RES1   0.0000
    76 C28     -1.4807   3.1660  15.2180   C.3       1 RES1   0.0000
    77 H44     -2.1771   3.8463  15.1034   H         1 RES1   0.0000
    78 H45     -1.3596   2.9814  16.1734   H         1 RES1   0.0000
    79 H46     -1.7493   2.3432  14.7585   H         1 RES1   0.0000
    80 C29     -1.4576   5.5618  12.8495   C.3       1 RES1   0.0000
    81 H47     -2.3923   5.2690  13.0469   H         1 RES1   0.0000
    82 C30     -1.1184   6.6271  13.8597   C.3       1 RES1   0.0000
    83 H48     -0.1999   6.9369  13.7116   H         1 RES1   0.0000
    84 H49     -1.1967   6.2571  14.7629   H         1 RES1   0.0000
    85 H50     -1.7366   7.3808  13.7596   H         1 RES1   0.0000
    86 C31     -1.4719   6.1338  11.4524   C.3       1 RES1   0.0000
    87 H51     -0.5839   6.4855  11.2347   H         1 RES1   0.0000
    88 H52     -2.1314   6.8567  11.4031   H         1 RES1   0.0000
    89 H53     -1.7104   5.4293  10.8147   H         1 RES1   0.0000
    90 B1      -2.8824   2.5808  11.1820   B         1 RES1   0.0000
    91 H54     -3.3909   3.3583  11.7181   H         1 RES1   0.0000
    92 H55     -3.4927   1.8911  10.5370   H         1 RES1   0.0000
    93 O1       4.3374   1.7089  14.5684   O.3       2 RES2   0.0000
    94 C32      3.7642   0.5548  12.6055   C.3       2 RES2   0.0000
    95 H56      3.9208   0.4410  11.6446   H         2 RES2   0.0000
    96 H57      2.8615   0.9078  12.7495   H         2 RES2   0.0000
    97 H58      3.8519  -0.3114  13.0554   H         2 RES2   0.0000
    98 C33      4.7711   1.5134  13.1666   C.3       2 RES2   0.0000
    99 H59      5.6839   1.1315  13.1277   H         2 RES2   0.0000
   100 H60      4.7601   2.3699  12.6691   H         2 RES2   0.0000
   101 C34      5.0715   2.7283  15.4263   C.3       2 RES2   0.0000
   102 H61      6.0445   2.5498  15.4162   H         2 RES2   0.0000
   103 H62      4.9148   3.6436  15.0824   H         2 RES2   0.0000
   104 C35      4.5322   2.5977  16.8203   C.3       2 RES2   0.0000
   105 H63      3.6076   2.2748  16.7834   H         2 RES2   0.0000
   106 H64      4.5562   3.4711  17.2629   H         2 RES2   0.0000
   107 H65      5.0809   1.9605  17.3235   H         2 RES2   0.0000
@<TRIPOS>BOND
     1     1     2    1
     2     3     1    1
     3     4     1    1
     4     5     1    1
     5     6     1    1
     6     7     9    1
     7     8     9    1
     8     9     1    1
     9    10     5    1
    10    11    10    2
    11    12    11    1
    12    13    11    1
    13    14    13    2
    14    15    14    1
    15    16     7    1
    16    17     8    1
    17    18    17    1
    18    19    18    1
    19    20    18    2
    20    21    20    1
    21    22    21    1
    22    23     6    1
    23    24     5    1
    24    25    24    1
    25    26    24    1
    26    27    26    1
    27    28    26    1
    28    29    26    1
    29    30    24    1
    30    31    30    1
    31    32    30    1
    32    33    30    1
    33    34     5    1
    34    35    34    1
    35    36    34    1
    36    37    36    1
    37    38    36    1
    38    39    36    1
    39    40    34    1
    40    41    40    1
    41    42    40    1
    42    43    40    1
    43    44    13    1
    44    45    44    1
    45    46    45    1
    46    47    45    1
    47    48    45    1
    48    49    44    1
    49    50    49    1
    50    51    49    1
    51    52    49    1
    52    53    44    1
    53    54    53    1
    54    55    53    1
    55    56    53    1
    56    57    20    1
    57    58    57    1
    58    59    58    1
    59    60    58    1
    60    61    58    1
    61    62    57    1
    62    63    62    1
    63    64    62    1
    64    65    62    1
    65    66    57    1
    66    67    66    1
    67    68    66    1
    68    69    66    1
    69    70     6    1
    70    71    70    1
    71    72    70    1
    72    73    72    1
    73    74    72    1
    74    75    72    1
    75    76    70    1
    76    77    76    1
    77    78    76    1
    78    79    76    1
    79    80     6    1
    80    81    80    1
    81    82    80    1
    82    83    82    1
    83    84    82    1
    84    85    82    1
    85    86    80    1
    86    87    86    1
    87    88    86    1
    88    89    86    1
    89    90     3    1
    90    91    90    1
    91    92    90    1
    92     4    90    1
    93     7    10    1
    94     8    23    1
    95    14    16    1
    96    16    17    2
    97    21    23    2
    98    93    98    1
    99    94    95    1
   100    96    94    1
   101    97    94    1
   102    98    94    1
   103    99    98    1
   104   100    98    1
   105   101    93    1
   106   102   101    1
   107   103   101    1
   108   104   101    1
   109   105   104    1
   110   106   104    1
   111   107   104    1
@<TRIPOS>SUBSTRUCTURE
     1 RES1        1 GROUP             0 ****  ****    0  
     2 RES2       93 GROUP             0 ****  ****    0  
@<TRIPOS>CRYSIN
   10.7910   11.5320   16.9760  106.5590  106.0430   91.5170     2     1
