@<TRIPOS>MOLECULE
DABHOD
    54    63     2     0     0
SMALL
USER_CHARGES
****
Generated from the CSD

@<TRIPOS>ATOM
     1 Fe1      3.4524   3.9131  -2.2399   Fe        1 RES1   1.0000
     2 O1       1.8723   4.3254  -3.1933   O.3       1 RES1   0.0000
     3 O2       5.1014   3.6575  -1.3397   O.3       1 RES1   0.0000
     4 N1       3.2397   2.0060  -2.6117   N.2       1 RES1   0.0000
     5 N2       4.5181   4.1172  -3.9435   N.2       1 RES1   0.0000
     6 N3       3.6543   5.9047  -2.1072   N.2       1 RES1   0.0000
     7 N4       2.5098   3.8760  -0.5231   N.2       1 RES1   0.0000
     8 C1       0.7761   3.5296  -3.1760   C.ar      1 RES1   0.0000
     9 C2      -0.4421   4.1110  -3.4535   C.ar      1 RES1   0.0000
    10 C3      -1.5656   3.4039  -3.5106   C.ar      1 RES1   0.0000
    11 C4      -1.5520   2.0473  -3.3606   C.ar      1 RES1   0.0000
    12 C5      -0.3537   1.4081  -3.0419   C.ar      1 RES1   0.0000
    13 C6       0.8212   2.1483  -2.9423   C.ar      1 RES1   0.0000
    14 C7       2.0970   1.4597  -2.8135   C.2       1 RES1   0.0000
    15 C8       4.3989   1.2267  -2.9609   C.3       1 RES1   0.0000
    16 C9       5.0293   1.6762  -4.2621   C.3       1 RES1   0.0000
    17 C10      5.5728   3.0781  -4.1958   C.3       1 RES1   0.0000
    18 C11      5.0998   5.3852  -3.9621   C.3       1 RES1   0.0000
    19 C12      4.1060   6.4078  -3.4256   C.3       1 RES1   0.0000
    20 C13      2.5131   6.6985  -1.5933   C.3       1 RES1   0.0000
    21 C14      1.9626   6.2531  -0.2788   C.3       1 RES1   0.0000
    22 C15      1.4222   4.8099  -0.2921   C.3       1 RES1   0.0000
    23 C16      2.9486   3.1647   0.4780   C.2       1 RES1   0.0000
    24 C17      4.1987   2.4864   0.5709   C.ar      1 RES1   0.0000
    25 C18      4.4596   1.6164   1.6066   C.ar      1 RES1   0.0000
    26 C19      5.7206   1.0721   1.7659   C.ar      1 RES1   0.0000
    27 C20      6.7591   1.4267   0.9294   C.ar      1 RES1   0.0000
    28 C21      6.5573   2.2947  -0.0797   C.ar      1 RES1   0.0000
    29 C22      5.2916   2.8060  -0.3187   C.ar      1 RES1   0.0000
    30 C23     12.7654   2.4658   2.7591   C.ar      2 RES2   0.0000
    31 C24     11.5264   2.2019   2.2572   C.ar      2 RES2   0.0000
    32 C25     11.2677   1.5586   1.0091   C.ar      2 RES2   0.0000
    33 C26     12.3524   1.2453   0.2257   C.ar      2 RES2   0.0000
    34 C27     13.5791   1.5174   0.6639   C.ar      2 RES2   0.0000
    35 C28     13.8681   2.1297   1.9385   C.ar      2 RES2   0.0000
    36 C29     13.1898   4.8883   3.7841   C.ar      2 RES2   0.0000
    37 C30     12.9023   5.4161   2.5360   C.ar      2 RES2   0.0000
    38 C31     12.9416   6.7211   2.2174   C.ar      2 RES2   0.0000
    39 C32     13.3017   7.6077   3.2265   C.ar      2 RES2   0.0000
    40 C33     13.6387   7.1541   4.4613   C.ar      2 RES2   0.0000
    41 C34     13.5229   5.8552   4.7003   C.ar      2 RES2   0.0000
    42 C35     11.7714   3.0204   5.1969   C.ar      2 RES2   0.0000
    43 C36     11.1559   4.0471   5.9683   C.ar      2 RES2   0.0000
    44 C37     10.0548   3.8162   6.7915   C.ar      2 RES2   0.0000
    45 C38      9.5751   2.5112   6.9084   C.ar      2 RES2   0.0000
    46 C39     10.1285   1.4535   6.1821   C.ar      2 RES2   0.0000
    47 C40     11.2260   1.7442   5.3722   C.ar      2 RES2   0.0000
    48 C41     14.4489   2.7318   4.8384   C.ar      2 RES2   0.0000
    49 C42     14.5343   1.5401   5.5235   C.ar      2 RES2   0.0000
    50 C43     15.7466   0.9690   5.9617   C.ar      2 RES2   0.0000
    51 C44     16.9148   1.5257   5.6297   C.ar      2 RES2   0.0000
    52 C45     16.9088   2.7421   4.8995   C.ar      2 RES2   0.0000
    53 C46     15.7363   3.2637   4.5277   C.ar      2 RES2   0.0000
    54 B1      13.0623   3.3358   4.1958   B         2 RES2  -1.0000
@<TRIPOS>BOND
     1     1     2    1
     2     2     8    1
     3     3     1    1
     4     4     1    1
     5     5     1    1
     6     6     1    1
     7     7     1    1
     8     8     9   ar
     9     9    10   ar
    10    10    11   ar
    11    11    12   ar
    12    12    13   ar
    13    13     8   ar
    14    14     4    2
    15    15     4    1
    16    16    15    1
    17    17     5    1
    18    18     5    1
    19    19     6    1
    20    20     6    1
    21    21    20    1
    22    22     7    1
    23    23     7    2
    24    24    23    1
    25    25    24   ar
    26    26    25   ar
    27    27    26   ar
    28    28    27   ar
    29    29     3    1
    30    13    14    1
    31    16    17    1
    32    18    19    1
    33    21    22    1
    34    24    29   ar
    35    28    29   ar
    36    30    31   ar
    37    31    32   ar
    38    32    33   ar
    39    33    34   ar
    40    34    35   ar
    41    35    30   ar
    42    36    37   ar
    43    37    38   ar
    44    38    39   ar
    45    39    40   ar
    46    40    41   ar
    47    41    36   ar
    48    42    43   ar
    49    43    44   ar
    50    44    45   ar
    51    45    46   ar
    52    46    47   ar
    53    47    42   ar
    54    48    49   ar
    55    49    50   ar
    56    50    51   ar
    57    51    52   ar
    58    52    53   ar
    59    53    48   ar
    60    54    30    1
    61    36    54    1
    62    42    54    1
    63    48    54    1
@<TRIPOS>SUBSTRUCTURE
     1 RES1        1 GROUP             0 ****  ****    0  
     2 RES2       30 GROUP             0 ****  ****    0  
@<TRIPOS>CRYSIN
   14.3900   20.6170   14.7540   90.0000  115.8500   90.0000   231     1
