@<TRIPOS>MOLECULE
DAKJUU
   106   115     2     0     0
SMALL
USER_CHARGES
****
Generated from the CSD

@<TRIPOS>ATOM
     1 Fe1      6.4099   2.0268   1.1679   Fe        1 RES1   1.0000
     2 O1       7.6256   1.4623  -0.5776   O.3       1 RES1   0.0000
     3 O2       4.8877   1.2711   0.3697   O.3       1 RES1   0.0000
     4 O3       2.8971  -0.2458  -0.1070   O.3       1 RES1   0.0000
     5 O4       7.0922   0.5306   2.0941   O.3       1 RES1   0.0000
     6 O5       7.3745  -1.7761   3.1715   O.3       1 RES1   0.0000
     7 N1       5.2706   2.7000   2.8346   N.2       1 RES1   0.0000
     8 N2       3.5329   2.9914   4.1845   N.2       1 RES1   0.0000
     9 N3       6.0940   3.7747   0.0912   N.2       1 RES1   0.0000
    10 N4       7.9927   3.1625   1.8229   N.2       1 RES1   0.0000
    11 C25      3.9377   2.5363   2.9490   C.2       1 RES1   0.0000
    12 C26      4.6161   3.4868   4.8472   C.2       1 RES1   0.0000
    13 C27      5.6817   3.3138   4.0240   C.2       1 RES1   0.0000
    14 C28      5.4478   5.0396   6.6044   C.ar      1 RES1   0.0000
    15 C29      5.4102   5.5403   7.9032   C.ar      1 RES1   0.0000
    16 C30      4.4616   5.0656   8.8055   C.ar      1 RES1   0.0000
    17 C31      3.5497   4.0898   8.4079   C.ar      1 RES1   0.0000
    18 C32      3.5878   3.5905   7.1091   C.ar      1 RES1   0.0000
    19 C33      4.7286   4.0655   6.2080   C.ar      1 RES1   0.0000
    20 C34      5.0825   4.0470  -0.6226   C.2       1 RES1   0.0000
    21 C35      2.8663   3.6264  -1.5821   C.ar      1 RES1   0.0000
    22 C36      1.7677   2.8162  -1.8557   C.ar      1 RES1   0.0000
    23 C37      1.7319   1.5092  -1.3766   C.ar      1 RES1   0.0000
    24 C38      2.7932   1.0134  -0.6251   C.ar      1 RES1   0.0000
    25 C39      3.8910   1.8249  -0.3514   C.ar      1 RES1   0.0000
    26 C40      3.9275   3.1305  -0.8306   C.ar      1 RES1   0.0000
    27 C41      1.8366  -1.1498  -0.3855   C.3       1 RES1   0.0000
    28 C42      7.2285   4.7092   0.1143   C.3       1 RES1   0.0000
    29 C43      7.9014   4.5946   1.4362   C.3       1 RES1   0.0000
    30 C44     10.1986   1.1653   3.9218   C.ar      1 RES1   0.0000
    31 C45     10.3785  -0.0878   4.5031   C.ar      1 RES1   0.0000
    32 C46      9.4528  -1.1012   4.2720   C.ar      1 RES1   0.0000
    33 C47      8.3461  -0.8642   3.4597   C.ar      1 RES1   0.0000
    34 C48      8.1675   0.3888   2.8784   C.ar      1 RES1   0.0000
    35 C49      9.0919   1.4022   3.1095   C.ar      1 RES1   0.0000
    36 C50      7.3499  -2.9850   3.9084   C.3       1 RES1   0.0000
    37 C51      8.9834   2.7469   2.5902   C.2       1 RES1   0.0000
    38 H21      6.5395   3.6155   4.3559   H         1 RES1   0.0000
    39 H22      6.1821   5.4074   5.9076   H         1 RES1   0.0000
    40 H23      6.1143   6.2949   8.2109   H         1 RES1   0.0000
    41 H24      4.4313   5.4524   9.8100   H         1 RES1   0.0000
    42 H25      2.8148   3.7224   9.1059   H         1 RES1   0.0000
    43 H26      2.8832   2.8346   6.8014   H         1 RES1   0.0000
    44 H27      4.3943   4.4552  -1.1674   H         1 RES1   0.0000
    45 H28      2.8940   4.6388  -1.9530   H         1 RES1   0.0000
    46 H29      0.9465   3.2001  -2.4382   H         1 RES1   0.0000
    47 H30      0.8818   0.8806  -1.5882   H         1 RES1   0.0000
    48 H31      2.0872  -1.9831   0.0377   H         1 RES1   0.0000
    49 H32      1.7027  -1.2963  -1.3328   H         1 RES1   0.0000
    50 H33      1.0157  -0.8215   0.0097   H         1 RES1   0.0000
    51 H34      7.8524   4.4814  -0.5898   H         1 RES1   0.0000
    52 H35      6.9121   5.6153  -0.0158   H         1 RES1   0.0000
    53 H36      7.3928   5.0787   2.1026   H         1 RES1   0.0000
    54 H37      8.7921   4.9694   1.3766   H         1 RES1   0.0000
    55 H38     10.9148   1.9502   4.0993   H         1 RES1   0.0000
    56 H39     11.2342  -0.2709   5.1318   H         1 RES1   0.0000
    57 H40      9.5910  -2.0709   4.7220   H         1 RES1   0.0000
    58 H41      6.5390  -3.4353   3.6360   H         1 RES1   0.0000
    59 H42      7.3080  -2.7895   4.8557   H         1 RES1   0.0000
    60 H43      8.1116  -3.5562   3.7309   H         1 RES1   0.0000
    61 H44      9.1052   3.6770   2.3482   H         1 RES1   0.0000
    62 C1      10.6530   5.1272   4.5043   C.ar      2 RES2   0.0000
    63 C2       9.3951   5.5786   4.8910   C.ar      2 RES2   0.0000
    64 C3       8.9071   6.7870   4.3985   C.ar      2 RES2   0.0000
    65 C4       9.6778   7.5426   3.5193   C.ar      2 RES2   0.0000
    66 C5      10.9371   7.0912   3.1326   C.ar      2 RES2   0.0000
    67 C6      11.4237   5.8828   3.6251   C.ar      2 RES2   0.0000
    68 C7      13.9366   7.3835   4.5797   C.ar      2 RES2   0.0000
    69 C8      14.9989   8.0801   5.1476   C.ar      2 RES2   0.0000
    70 C9      16.3101   7.7172   4.8484   C.ar      2 RES2   0.0000
    71 C10     16.5569   6.6573   3.9802   C.ar      2 RES2   0.0000
    72 C11     15.4933   5.9607   3.4123   C.ar      2 RES2   0.0000
    73 C12     14.1842   6.3240   3.7126   C.ar      2 RES2   0.0000
    74 C13     13.3609   3.4759   4.8472   C.ar      2 RES2   0.0000
    75 C14     13.6817   2.1838   5.2546   C.ar      2 RES2   0.0000
    76 C15     13.9749   1.2086   4.3049   C.ar      2 RES2   0.0000
    77 C16     13.9484   1.5247   2.9502   C.ar      2 RES2   0.0000
    78 C17     13.6263   2.8169   2.5428   C.ar      2 RES2   0.0000
    79 C18     13.3336   3.7934   3.4925   C.ar      2 RES2   0.0000
    80 C19     11.7615   4.9568   0.7333   C.ar      2 RES2   0.0000
    81 C20     11.6305   5.0508  -0.6494   C.ar      2 RES2   0.0000
    82 C21     12.6129   5.6900  -1.3997   C.ar      2 RES2   0.0000
    83 C22     13.7276   6.2350  -0.7673   C.ar      2 RES2   0.0000
    84 C23     13.8586   6.1410   0.6153   C.ar      2 RES2   0.0000
    85 C24     12.8762   5.5019   1.3656   C.ar      2 RES2   0.0000
    86 B1      12.9511   5.3968   3.0608   B         2 RES2  -1.0000
    87 H1      11.0309   4.1924   4.8861   H         2 RES2   0.0000
    88 H2       8.7975   4.9945   5.5720   H         2 RES2   0.0000
    89 H3       7.9324   7.1363   4.6977   H         2 RES2   0.0000
    90 H4       9.3007   8.4777   3.1387   H         2 RES2   0.0000
    91 H5      11.5341   7.6756   2.4528   H         2 RES2   0.0000
    92 H6      12.9224   7.6659   4.8120   H         2 RES2   0.0000
    93 H7      14.8092   8.9007   5.8201   H         2 RES2   0.0000
    94 H8      17.1331   8.2565   5.2874   H         2 RES2   0.0000
    95 H9      17.5712   6.3750   3.7479   H         2 RES2   0.0000
    96 H10     15.6844   5.1401   2.7398   H         2 RES2   0.0000
    97 H11     13.1336   4.2315   5.5817   H         2 RES2   0.0000
    98 H12     13.7043   1.9389   6.3041   H         2 RES2   0.0000
    99 H13     14.2234   0.2081   4.6198   H         2 RES2   0.0000
   100 H14     14.1754   0.7702   2.2145   H         2 RES2   0.0000
   101 H15     13.6055   3.0631   1.4933   H         2 RES2   0.0000
   102 H16     11.2662   4.4623   1.3146   H         2 RES2   0.0000
   103 H17     10.7679   4.6299  -1.1382   H         2 RES2   0.0000
   104 H18     12.5119   5.7632  -2.4710   H         2 RES2   0.0000
   105 H19     14.4879   6.7292  -1.3498   H         2 RES2   0.0000
   106 H20     14.7217   6.5633   1.1042   H         2 RES2   0.0000
@<TRIPOS>BOND
     1     1     2    1
     2     3     1    1
     3     4    24    1
     4     5     1    1
     5     6    33    1
     6     7     1    1
     7     8    11    1
     8     9     1    1
     9    10     1    1
    10    11     7    2
    11    12     8    1
    12    13     7    1
    13    14    15   ar
    14    15    16   ar
    15    16    17   ar
    16    17    18   ar
    17    18    19   ar
    18    19    12    1
    19    20     9    2
    20    21    22   ar
    21    22    23   ar
    22    23    24   ar
    23    24    25   ar
    24    25     3    1
    25    26    20    1
    26    27     4    1
    27    28     9    1
    28    29    10    1
    29    30    31   ar
    30    31    32   ar
    31    32    33   ar
    32    33    34   ar
    33    34     5    1
    34    35    30   ar
    35    36     6    1
    36    37    10    2
    37    38    13    1
    38    39    14    1
    39    40    15    1
    40    41    16    1
    41    42    17    1
    42    43    18    1
    43    44    20    1
    44    45    21    1
    45    46    22    1
    46    47    23    1
    47    48    27    1
    48    49    27    1
    49    50    27    1
    50    51    28    1
    51    52    28    1
    52    53    29    1
    53    54    29    1
    54    55    30    1
    55    56    31    1
    56    57    32    1
    57    58    36    1
    58    59    36    1
    59    60    36    1
    60    61    37    1
    61    12    13    2
    62    14    19   ar
    63    21    26   ar
    64    25    26   ar
    65    28    29    1
    66    34    35   ar
    67    35    37    1
    68    62    63   ar
    69    63    64   ar
    70    64    65   ar
    71    65    66   ar
    72    66    67   ar
    73    67    62   ar
    74    68    69   ar
    75    69    70   ar
    76    70    71   ar
    77    71    72   ar
    78    72    73   ar
    79    73    68   ar
    80    74    75   ar
    81    75    76   ar
    82    76    77   ar
    83    77    78   ar
    84    78    79   ar
    85    79    74   ar
    86    80    81   ar
    87    81    82   ar
    88    82    83   ar
    89    83    84   ar
    90    84    85   ar
    91    85    80   ar
    92    86    67    1
    93    87    62    1
    94    88    63    1
    95    89    64    1
    96    90    65    1
    97    91    66    1
    98    92    68    1
    99    93    69    1
   100    94    70    1
   101    95    71    1
   102    96    72    1
   103    97    74    1
   104    98    75    1
   105    99    76    1
   106   100    77    1
   107   101    78    1
   108   102    80    1
   109   103    81    1
   110   104    82    1
   111   105    83    1
   112   106    84    1
   113    73    86    1
   114    79    86    1
   115    85    86    1
@<TRIPOS>SUBSTRUCTURE
     1 RES1        1 GROUP             0 ****  ****    0  
     2 RES2       62 GROUP             0 ****  ****    0  
@<TRIPOS>CRYSIN
   13.2900   14.5360   14.6730   68.0000   58.6400   69.5400     2     1
