@<TRIPOS>MOLECULE
DAKWAQ
   107   118     1     0     0
SMALL
NO_CHARGES
****
Generated from the CSD

@<TRIPOS>ATOM
     1 Fe1      2.3434   0.1519   4.7366   Fe        1 RES1   0.0000
     2 P1       1.1394  -1.6990   4.4404   P.3       1 RES1   0.0000
     3 N1       4.0075   2.7792   4.4916   N.pl3     1 RES1   0.0000
     4 N2       3.4270   2.2524   6.5156   N.pl3     1 RES1   0.0000
     5 N3       4.0175  -1.7473   6.3473   N.pl3     1 RES1   0.0000
     6 N4       3.3104  -0.0283   7.4647   N.pl3     1 RES1   0.0000
     7 N5      -0.3762   1.1852   5.7247   N.pl3     1 RES1   0.0000
     8 N6       1.2316   1.3549   7.1772   N.pl3     1 RES1   0.0000
     9 N7       1.7132   0.8497   3.1663   N.1       1 RES1   0.0000
    10 N8       1.3455   1.2103   2.1817   N.1       1 RES1   0.0000
    11 C1       3.3531   1.8140   5.2224   C.3       1 RES1   0.0000
    12 C2       4.4386   3.8082   5.3279   C.2       1 RES1   0.0000
    13 C3       4.0702   3.4832   6.5771   C.2       1 RES1   0.0000
    14 C4       4.1375   2.8885   3.0607   C.ar      1 RES1   0.0000
    15 C5       3.1334   3.5635   2.3634   C.ar      1 RES1   0.0000
    16 C6       3.2497   3.6693   0.9739   C.ar      1 RES1   0.0000
    17 C7       4.3444   3.1481   0.2926   C.ar      1 RES1   0.0000
    18 C8       5.3550   2.5433   1.0394   C.ar      1 RES1   0.0000
    19 C9       5.2870   2.4150   2.4248   C.ar      1 RES1   0.0000
    20 C10      1.9643   4.1685   3.0861   C.3       1 RES1   0.0000
    21 C11      4.4103   3.2482  -1.2131   C.3       1 RES1   0.0000
    22 C12      6.4452   1.8295   3.1823   C.3       1 RES1   0.0000
    23 C13      3.2139  -0.6333   6.2591   C.3       1 RES1   0.0000
    24 C14      4.6399  -1.7789   7.6071   C.2       1 RES1   0.0000
    25 C15      4.1937  -0.7101   8.2871   C.2       1 RES1   0.0000
    26 C16      4.2379  -2.6485   5.2544   C.ar      1 RES1   0.0000
    27 C17      4.2422  -2.0740   3.9665   C.ar      1 RES1   0.0000
    28 C18      4.4482  -2.9373   2.8804   C.ar      1 RES1   0.0000
    29 C19      4.6498  -4.3039   3.0394   C.ar      1 RES1   0.0000
    30 C20      4.6368  -4.8247   4.3313   C.ar      1 RES1   0.0000
    31 C21      4.4197  -4.0239   5.4602   C.ar      1 RES1   0.0000
    32 C22      4.0303  -0.6207   3.7755   C.3       1 RES1   0.0000
    33 C23      4.8588  -5.2108   1.8557   C.3       1 RES1   0.0000
    34 C24      4.4465  -4.6940   6.8149   C.3       1 RES1   0.0000
    35 C25      0.9461   0.8947   5.9198   C.3       1 RES1   0.0000
    36 C26     -0.9070   1.8409   6.8429   C.2       1 RES1   0.0000
    37 C27      0.1019   1.9529   7.7247   C.2       1 RES1   0.0000
    38 C28     -1.1151   0.9401   4.5196   C.ar      1 RES1   0.0000
    39 C29     -1.2908  -0.3744   4.0908   C.ar      1 RES1   0.0000
    40 C30     -1.9850  -0.5989   2.9004   C.ar      1 RES1   0.0000
    41 C31     -2.4782   0.4571   2.1282   C.ar      1 RES1   0.0000
    42 C32     -2.2939   1.7553   2.5998   C.ar      1 RES1   0.0000
    43 C33     -1.6289   2.0222   3.7942   C.ar      1 RES1   0.0000
    44 C34     -0.6776  -1.5292   4.8430   C.3       1 RES1   0.0000
    45 C35     -3.1880   0.2110   0.8123   C.3       1 RES1   0.0000
    46 C36     -1.4707   3.4511   4.2498   C.3       1 RES1   0.0000
    47 C37      2.9270   1.9006   9.1569   C.ar      1 RES1   0.0000
    48 C38      1.9882   1.5577  10.1401   C.ar      1 RES1   0.0000
    49 C39      2.0798   2.0160  11.4507   C.ar      1 RES1   0.0000
    50 C40      3.1503   2.8196  11.8288   C.ar      1 RES1   0.0000
    51 C41      4.1414   3.0988  10.9177   C.ar      1 RES1   0.0000
    52 C42      4.0390   2.6273   9.6098   C.ar      1 RES1   0.0000
    53 C43      1.0549  -2.6140   2.8577   C.ar      1 RES1   0.0000
    54 C44      1.3549  -3.9841   2.8082   C.ar      1 RES1   0.0000
    55 C45      1.2681  -4.6926   1.6152   C.ar      1 RES1   0.0000
    56 C46      0.8645  -4.0430   0.4489   C.ar      1 RES1   0.0000
    57 C47      0.5664  -2.6985   0.4796   C.ar      1 RES1   0.0000
    58 C48      0.6715  -1.9828   1.6606   C.ar      1 RES1   0.0000
    59 B1       2.7203   1.4032   7.6445   B         1 RES1   0.0000
    60 H1       4.9076   4.5889   5.0594   H         1 RES1   0.0000
    61 H2       4.2186   4.0023   7.3586   H         1 RES1   0.0000
    62 H3       2.5617   4.1039   0.4836   H         1 RES1   0.0000
    63 H4       6.1204   2.2075   0.5878   H         1 RES1   0.0000
    64 H5       1.3843   4.5842   2.4609   H         1 RES1   0.0000
    65 H6       2.2786   4.8158   3.7074   H         1 RES1   0.0000
    66 H7       1.4927   3.4871   3.5511   H         1 RES1   0.0000
    67 H8       5.2176   2.8481  -1.5137   H         1 RES1   0.0000
    68 H9       4.3914   4.1603  -1.4749   H         1 RES1   0.0000
    69 H10      3.6697   2.7936  -1.5952   H         1 RES1   0.0000
    70 H11      6.2411   1.8119   4.1108   H         1 RES1   0.0000
    71 H12      7.2200   2.3605   3.0380   H         1 RES1   0.0000
    72 H13      6.6051   0.9449   2.8764   H         1 RES1   0.0000
    73 H14      5.2608  -2.4284   7.9171   H         1 RES1   0.0000
    74 H15      4.4345  -0.4672   9.1729   H         1 RES1   0.0000
    75 H16      4.4418  -2.5732   2.0026   H         1 RES1   0.0000
    76 H17      4.7822  -5.7557   4.4542   H         1 RES1   0.0000
    77 H18      4.7944  -0.1624   4.1028   H         1 RES1   0.0000
    78 H19      3.9396  -0.4573   2.8430   H         1 RES1   0.0000
    79 H20      4.9846  -6.1022   2.1576   H         1 RES1   0.0000
    80 H21      5.6250  -4.9311   1.3667   H         1 RES1   0.0000
    81 H22      4.0935  -5.1716   1.2946   H         1 RES1   0.0000
    82 H23      4.2878  -4.0454   7.4909   H         1 RES1   0.0000
    83 H24      5.2944  -5.0987   6.9578   H         1 RES1   0.0000
    84 H25      3.7686  -5.3582   6.8483   H         1 RES1   0.0000
    85 H26     -1.7988   2.1476   6.9525   H         1 RES1   0.0000
    86 H27      0.0526   2.3648   8.5784   H         1 RES1   0.0000
    87 H28     -2.1274  -1.4912   2.6078   H         1 RES1   0.0000
    88 H29     -2.6347   2.4817   2.0922   H         1 RES1   0.0000
    89 H30     -0.7742  -1.3760   5.7755   H         1 RES1   0.0000
    90 H31     -1.1274  -2.3304   4.6051   H         1 RES1   0.0000
    91 H32     -3.4513   1.0392   0.4289   H         1 RES1   0.0000
    92 H33     -3.9565  -0.3287   0.9606   H         1 RES1   0.0000
    93 H34     -2.5952  -0.2385   0.2218   H         1 RES1   0.0000
    94 H35     -1.8795   4.0354   3.6232   H         1 RES1   0.0000
    95 H36     -1.8839   3.5567   5.0981   H         1 RES1   0.0000
    96 H37     -0.5457   3.6583   4.3206   H         1 RES1   0.0000
    97 H38      1.2625   0.9929   9.8997   H         1 RES1   0.0000
    98 H39      1.4169   1.7720  12.0853   H         1 RES1   0.0000
    99 H40      3.1913   3.1792  12.7079   H         1 RES1   0.0000
   100 H41      4.8988   3.6088  11.1795   H         1 RES1   0.0000
   101 H42      4.7448   2.8065   9.0005   H         1 RES1   0.0000
   102 H43      1.6184  -4.4315   3.6045   H         1 RES1   0.0000
   103 H44      1.4915  -5.6156   1.5965   H         1 RES1   0.0000
   104 H45      0.7854  -4.5310  -0.3621   H         1 RES1   0.0000
   105 H46      0.2944  -2.2562  -0.3166   H         1 RES1   0.0000
   106 H47      0.4799  -1.0529   1.6686   H         1 RES1   0.0000
   107 H48      1.3815  -2.7985   5.2771   H         1 RES1   0.0000
@<TRIPOS>BOND
     1     1     2    1
     2     2    44    1
     3     3    11    1
     4     4    11    1
     5     5    23    1
     6     6    23    1
     7     7    35    1
     8     8    35    1
     9     9     1    1
    10    10     9    3
    11    11     1    1
    12    12     3    1
    13    13     4    1
    14    14     3    1
    15    15    14   ar
    16    16    15   ar
    17    17    16   ar
    18    18    17   ar
    19    19    14   ar
    20    20    15    1
    21    21    17    1
    22    22    19    1
    23    23     1    1
    24    24     5    1
    25    25     6    1
    26    26     5    1
    27    27    26   ar
    28    28    27   ar
    29    29    28   ar
    30    30    29   ar
    31    31    26   ar
    32    32     1    1
    33    33    29    1
    34    34    31    1
    35    35     1    1
    36    36     7    1
    37    37     8    1
    38    38     7    1
    39    39    38   ar
    40    40    39   ar
    41    41    40   ar
    42    42    41   ar
    43    43    38   ar
    44    44    39    1
    45    45    41    1
    46    46    43    1
    47    47    48   ar
    48    48    49   ar
    49    49    50   ar
    50    50    51   ar
    51    51    52   ar
    52    52    47   ar
    53    53     2    1
    54    54    53   ar
    55    55    54   ar
    56    56    55   ar
    57    57    56   ar
    58    58    53   ar
    59    59     4    1
    60    60    12    1
    61    61    13    1
    62    62    16    1
    63    63    18    1
    64    64    20    1
    65    65    20    1
    66    66    20    1
    67    67    21    1
    68    68    21    1
    69    69    21    1
    70    70    22    1
    71    71    22    1
    72    72    22    1
    73    73    24    1
    74    74    25    1
    75    75    28    1
    76    76    30    1
    77    77    32    1
    78    78    32    1
    79    79    33    1
    80    80    33    1
    81    81    33    1
    82    82    34    1
    83    83    34    1
    84    84    34    1
    85    85    36    1
    86    86    37    1
    87    87    40    1
    88    88    42    1
    89    89    44    1
    90    90    44    1
    91    91    45    1
    92    92    45    1
    93    93    45    1
    94    94    46    1
    95    95    46    1
    96    96    46    1
    97    97    48    1
    98    98    49    1
    99    99    50    1
   100   100    51    1
   101   101    52    1
   102   102    54    1
   103   103    55    1
   104   104    56    1
   105   105    57    1
   106   106    58    1
   107   107     2    1
   108     6    59    1
   109     8    59    1
   110    12    13    2
   111    18    19   ar
   112    24    25    2
   113    27    32    1
   114    30    31   ar
   115    36    37    2
   116    42    43   ar
   117    47    59    1
   118    57    58   ar
@<TRIPOS>SUBSTRUCTURE
     1 RES1        1 GROUP             0 ****  ****    0  
@<TRIPOS>CRYSIN
   12.2416   12.4664   13.9258  106.3844   90.0628   91.3197     2     1
