@<TRIPOS>MOLECULE
DANTES
   297   338     4     0     0
SMALL
NO_CHARGES
****
Generated from the CSD

@<TRIPOS>ATOM
     1 Fe1      9.7893   9.4619   8.9830   Fe        1 RES1   0.0000
     2 Fe2      8.6950   9.3058   6.1066   Fe        1 RES1   0.0000
     3 Fe3      7.6857   6.7733   5.0308   Fe        1 RES1   0.0000
     4 Fe4      9.9197   6.4053   7.5064   Fe        1 RES1   0.0000
     5 Fe5     11.2666   6.5846  10.1408   Fe        1 RES1   0.0000
     6 Fe6     11.2107   4.7025  12.7003   Fe        1 RES1   0.0000
     7 O1       7.9141   9.5179   8.0400   O.3       1 RES1   0.0000
     8 O2       8.8528   9.8702  10.6872   O.3       1 RES1   0.0000
     9 O3      10.3887   9.6834   7.1121   O.3       1 RES1   0.0000
    10 O4       9.0370   7.4039   6.2179   O.3       1 RES1   0.0000
    11 O5       9.9673   7.5976   9.0620   O.3       1 RES1   0.0000
    12 O6       8.0951   5.0114   4.4129   O.3       1 RES1   0.0000
    13 O7       6.9894   8.6158   5.3594   O.3       1 RES1   0.0000
    14 O8      10.0224   4.8808  14.1987   O.3       1 RES1   0.0000
    15 O9      12.4288   5.4069  11.2713   O.3       1 RES1   0.0000
    16 O10     12.3028   3.1478  13.0954   O.3       1 RES1   0.0000
    17 O11     10.0508   5.9454  11.5762   O.3       1 RES1   0.0000
    18 O12     10.7767   5.1728   8.8557   O.3       1 RES1   0.0000
    19 O13      9.5110   9.4862   4.2731   O.co2     1 RES1   0.0000
    20 O14      8.7881   7.5321   3.4174   O.co2     1 RES1   0.0000
    21 O15     11.6068   9.9703   9.7134   O.co2     1 RES1   0.0000
    22 O16     11.8348   8.2666  11.1467   O.co2     1 RES1   0.0000
    23 O17      6.5450   5.9270   6.5182   O.co2     1 RES1   0.0000
    24 O18      8.1531   5.3659   7.9903   O.co2     1 RES1   0.0000
    25 O19     11.8559   6.9631   6.9376   O.co2     1 RES1   0.0000
    26 O20     12.8733   7.0633   8.9335   O.co2     1 RES1   0.0000
    27 N1       6.0335   6.7890   3.7071   N.2       1 RES1   0.0000
    28 N2      12.5697   5.9086  13.8854   N.2       1 RES1   0.0000
    29 N3       9.9087   3.2986  11.7008   N.2       1 RES1   0.0000
    30 N4      10.3855   4.6843   6.2824   N.3       1 RES1   0.0000
    31 C1       5.5389   8.0318  10.5909   C.3       1 RES1   0.0000
    32 C2       6.5645   9.0504  10.0721   C.3       1 RES1   0.0000
    33 C3       6.9343   8.6627   8.6438   C.3       1 RES1   0.0000
    34 C4       7.7831   8.9887  11.0254   C.3       1 RES1   0.0000
    35 C5      11.2753  10.7136   6.7035   C.3       1 RES1   0.0000
    36 C6       7.2219   4.0936   4.0238   C.ar      1 RES1   0.0000
    37 C7       7.5486   2.7439   4.2646   C.ar      1 RES1   0.0000
    38 C8       6.6790   1.7349   3.8773   C.ar      1 RES1   0.0000
    39 C9       5.4966   2.0389   3.2238   C.ar      1 RES1   0.0000
    40 C10      5.1878   3.3333   2.9728   C.ar      1 RES1   0.0000
    41 C11      5.9942   4.4034   3.3619   C.ar      1 RES1   0.0000
    42 C12      5.5878   5.7836   3.0267   C.2       1 RES1   0.0000
    43 C13      5.6079   8.1650   3.4494   C.3       1 RES1   0.0000
    44 C14      5.8117   8.9663   4.7026   C.3       1 RES1   0.0000
    45 C15      4.6322   5.9890   1.8645   C.3       1 RES1   0.0000
    46 C16     10.2036   5.1394  15.4551   C.ar      1 RES1   0.0000
    47 C17      9.1633   4.8279  16.3647   C.ar      1 RES1   0.0000
    48 C18      9.2773   5.0479  17.6986   C.ar      1 RES1   0.0000
    49 C19     10.4314   5.6239  18.2275   C.ar      1 RES1   0.0000
    50 C20     11.4470   5.9694  17.3685   C.ar      1 RES1   0.0000
    51 C21     11.3837   5.7729  15.9790   C.ar      1 RES1   0.0000
    52 C22     12.4965   6.2247  15.1250   C.2       1 RES1   0.0000
    53 C23     13.6999   6.3905  13.0567   C.3       1 RES1   0.0000
    54 C24     13.7587   5.5997  11.7598   C.3       1 RES1   0.0000
    55 C25     13.5428   7.1058  15.7886   C.3       1 RES1   0.0000
    56 C26     12.0634   1.8720  13.1123   C.ar      1 RES1   0.0000
    57 C27     12.9770   1.0451  13.7809   C.ar      1 RES1   0.0000
    58 C28     12.8300  -0.3230  13.8416   C.ar      1 RES1   0.0000
    59 C29     11.7327  -0.9321  13.2538   C.ar      1 RES1   0.0000
    60 C30     10.8235  -0.1348  12.5497   C.ar      1 RES1   0.0000
    61 C31     10.9792   1.2489  12.4402   C.ar      1 RES1   0.0000
    62 C32     10.0139   2.0130  11.6250   C.2       1 RES1   0.0000
    63 C33      8.8587   3.9645  10.9261   C.3       1 RES1   0.0000
    64 C34      8.7456   5.4136  11.3758   C.3       1 RES1   0.0000
    65 C35      9.1250   1.2446  10.6667   C.3       1 RES1   0.0000
    66 C36     11.4394   4.0268   8.3609   C.3       1 RES1   0.0000
    67 C37     10.6406   3.5374   7.1448   C.3       1 RES1   0.0000
    68 C38      9.4157   8.6030   3.3484   C.2       1 RES1   0.0000
    69 C39     10.1375   8.9244   2.0700   C.3       1 RES1   0.0000
    70 C40     12.2587   9.3099  10.5825   C.2       1 RES1   0.0000
    71 C41     13.5987   9.8123  10.9850   C.3       1 RES1   0.0000
    72 C42      6.9533   5.4029   7.5844   C.2       1 RES1   0.0000
    73 C43      5.9342   4.7175   8.4922   C.3       1 RES1   0.0000
    74 C44     12.8414   7.1939   7.6754   C.2       1 RES1   0.0000
    75 C45     14.1149   7.6564   7.0033   C.3       1 RES1   0.0000
    76 H1       4.7976   7.9602   9.9525   H         1 RES1   0.0000
    77 H2       5.9692   7.1556  10.6886   H         1 RES1   0.0000
    78 H3       5.1954   8.3256  11.4583   H         1 RES1   0.0000
    79 H4       9.8684   4.4238   5.6593   H         1 RES1   0.0000
    80 H5      10.9876   4.9765   5.7603   H         1 RES1   0.0000
    81 H6       7.2796   7.7347   8.6455   H         1 RES1   0.0000
    82 H7       6.1152   8.6768   8.0880   H         1 RES1   0.0000
    83 H8       7.4771   9.2019  11.9434   H         1 RES1   0.0000
    84 H9       8.1297   8.0615  11.0355   H         1 RES1   0.0000
    85 H10     11.5688  10.5380   5.7738   H         1 RES1   0.0000
    86 H11     12.0788  10.6959   7.2812   H         1 RES1   0.0000
    87 H12      8.3670   2.5237   4.6941   H         1 RES1   0.0000
    88 H13      6.8976   0.8291   4.0608   H         1 RES1   0.0000
    89 H14      4.9067   1.3446   2.9526   H         1 RES1   0.0000
    90 H15      4.3802   3.5227   2.5096   H         1 RES1   0.0000
    91 H16      4.6523   8.1809   3.1884   H         1 RES1   0.0000
    92 H17      6.1396   8.5522   2.7084   H         1 RES1   0.0000
    93 H18      5.8422   9.9296   4.4735   H         1 RES1   0.0000
    94 H19      5.0442   8.8230   5.3106   H         1 RES1   0.0000
    95 H20      4.7986   5.3068   1.1807   H         1 RES1   0.0000
    96 H21      3.7093   5.9140   2.1829   H         1 RES1   0.0000
    97 H22      4.7743   6.8783   1.4788   H         1 RES1   0.0000
    98 H23      8.3582   4.4522  16.0278   H         1 RES1   0.0000
    99 H24      8.5638   4.8064  18.2780   H         1 RES1   0.0000
   100 H25     10.5139   5.7743  19.1606   H         1 RES1   0.0000
   101 H26     12.2327   6.3614  17.7340   H         1 RES1   0.0000
   102 H27     14.5492   6.2827  13.5536   H         1 RES1   0.0000
   103 H28     13.5802   7.3537  12.8563   H         1 RES1   0.0000
   104 H29     14.2957   6.0938  11.0894   H         1 RES1   0.0000
   105 H30     14.1902   4.7232  11.9198   H         1 RES1   0.0000
   106 H31     13.1095   7.6824  16.4523   H         1 RES1   0.0000
   107 H32     14.2112   6.5439  16.2316   H         1 RES1   0.0000
   108 H33     13.9804   7.6614  15.1099   H         1 RES1   0.0000
   109 H34     13.7264   1.4454  14.2104   H         1 RES1   0.0000
   110 H35     13.4828  -0.8501  14.2862   H         1 RES1   0.0000
   111 H36     11.5997  -1.8685  13.3296   H         1 RES1   0.0000
   112 H37     10.0769  -0.5498  12.1320   H         1 RES1   0.0000
   113 H38      7.9939   3.5026  11.0642   H         1 RES1   0.0000
   114 H39      9.0787   3.9294   9.9610   H         1 RES1   0.0000
   115 H40      8.2296   5.4634  12.2196   H         1 RES1   0.0000
   116 H41      8.2690   5.9423  10.6886   H         1 RES1   0.0000
   117 H42      9.5566   0.3977  10.4292   H         1 RES1   0.0000
   118 H43      8.2632   1.0620  11.0962   H         1 RES1   0.0000
   119 H44      8.9804   1.7759   9.8565   H         1 RES1   0.0000
   120 H45     11.4743   3.3238   9.0565   H         1 RES1   0.0000
   121 H46     12.3665   4.2547   8.0964   H         1 RES1   0.0000
   122 H47      9.7847   3.1359   7.4379   H         1 RES1   0.0000
   123 H48     11.1561   2.8507   6.6530   H         1 RES1   0.0000
   124 H49      9.8408   9.7958   1.7365   H         1 RES1   0.0000
   125 H50     11.1027   8.9488   2.2368   H         1 RES1   0.0000
   126 H51      9.9409   8.2351   1.4013   H         1 RES1   0.0000
   127 H52     14.2892   9.1935  10.6684   H         1 RES1   0.0000
   128 H53     13.7477  10.6981  10.5926   H         1 RES1   0.0000
   129 H54     13.6430   9.8769  11.9619   H         1 RES1   0.0000
   130 H55      5.0456   5.0999   8.3339   H         1 RES1   0.0000
   131 H56      5.9154   3.7560   8.2952   H         1 RES1   0.0000
   132 H57      6.1860   4.8541   9.4287   H         1 RES1   0.0000
   133 H58     13.9174   7.9323   6.0837   H         1 RES1   0.0000
   134 H59     14.7633   6.9211   6.9915   H         1 RES1   0.0000
   135 H60     14.4892   8.4144   7.4985   H         1 RES1   0.0000
   136 Fe1A     7.4168  11.6967   7.8600   Fe        1 RES1   0.0000
   137 Fe2A     8.5111  11.8528  10.7364   Fe        1 RES1   0.0000
   138 Fe3A     9.5204  14.3853  11.8122   Fe        1 RES1   0.0000
   139 Fe4A     7.2864  14.7533   9.3366   Fe        1 RES1   0.0000
   140 Fe5A     5.9396  14.5740   6.7022   Fe        1 RES1   0.0000
   141 Fe6A     5.9954  16.4561   4.1427   Fe        1 RES1   0.0000
   142 O1A      9.2921  11.6407   8.8030   O.3       1 RES1   0.0000
   143 O2A      8.3533  11.2884   6.1558   O.3       1 RES1   0.0000
   144 O3A      6.8175  11.4752   9.7309   O.3       1 RES1   0.0000
   145 O4A      8.1692  13.7547  10.6251   O.3       1 RES1   0.0000
   146 O5A      7.2389  13.5610   7.7810   O.3       1 RES1   0.0000
   147 O6A      9.1111  16.1472  12.4301   O.3       1 RES1   0.0000
   148 O7A     10.2167  12.5428  11.4836   O.3       1 RES1   0.0000
   149 O8A      7.1837  16.2778   2.6444   O.3       1 RES1   0.0000
   150 O9A      4.7773  15.7517   5.5717   O.3       1 RES1   0.0000
   151 O10A     4.9034  18.0108   3.7476   O.3       1 RES1   0.0000
   152 O11A     7.1554  15.2132   5.2668   O.3       1 RES1   0.0000
   153 O12A     6.4294  15.9858   7.9873   O.3       1 RES1   0.0000
   154 O13A     7.6952  11.6724  12.5699   O.co2     1 RES1   0.0000
   155 O14A     8.4181  13.6266  13.4256   O.co2     1 RES1   0.0000
   156 O15A     5.5994  11.1883   7.1296   O.co2     1 RES1   0.0000
   157 O16A     5.3713  12.8920   5.6963   O.co2     1 RES1   0.0000
   158 O17A    10.6611  15.2316  10.3248   O.co2     1 RES1   0.0000
   159 O18A     9.0531  15.7927   8.8527   O.co2     1 RES1   0.0000
   160 O19A     5.3503  14.1955   9.9054   O.co2     1 RES1   0.0000
   161 O20A     4.3329  14.0953   7.9095   O.co2     1 RES1   0.0000
   162 N1A     11.1727  14.3696  13.1359   N.2       1 RES1   0.0000
   163 N2A      4.6364  15.2500   2.9576   N.2       1 RES1   0.0000
   164 N3A      7.2974  17.8600   5.1422   N.2       1 RES1   0.0000
   165 N4A      6.8206  16.4743  10.5606   N.3       1 RES1   0.0000
   166 C1A     11.6672  13.1268   6.2521   C.3       1 RES1   0.0000
   167 C2A     10.6416  12.1083   6.7709   C.3       1 RES1   0.0000
   168 C3A     10.2718  12.4959   8.1992   C.3       1 RES1   0.0000
   169 C4A      9.4230  12.1699   5.8176   C.3       1 RES1   0.0000
   170 C5A      5.9308  10.4450  10.1395   C.3       1 RES1   0.0000
   171 C6A      9.9843  17.0650  12.8192   C.ar      1 RES1   0.0000
   172 C7A      9.6575  18.4147  12.5784   C.ar      1 RES1   0.0000
   173 C8A     10.5271  19.4237  12.9657   C.ar      1 RES1   0.0000
   174 C9A     11.7096  19.1197  13.6193   C.ar      1 RES1   0.0000
   175 C10A    12.0184  17.8253  13.8702   C.ar      1 RES1   0.0000
   176 C11A    11.2119  16.7552  13.4811   C.ar      1 RES1   0.0000
   177 C12A    11.6183  15.3750  13.8163   C.2       1 RES1   0.0000
   178 C13A    11.5982  12.9936  13.3936   C.3       1 RES1   0.0000
   179 C14A    11.3945  12.1923  12.1404   C.3       1 RES1   0.0000
   180 C15A    12.5740  15.1696  14.9785   C.3       1 RES1   0.0000
   181 C16A     7.0025  16.0192   1.3879   C.ar      1 RES1   0.0000
   182 C17A     8.0428  16.3307   0.4783   C.ar      1 RES1   0.0000
   183 C18A     7.9289  16.1107  -0.8556   C.ar      1 RES1   0.0000
   184 C19A     6.7747  15.5347  -1.3845   C.ar      1 RES1   0.0000
   185 C20A     5.7592  15.1892  -0.5255   C.ar      1 RES1   0.0000
   186 C21A     5.8225  15.3857   0.8640   C.ar      1 RES1   0.0000
   187 C22A     4.7096  14.9339   1.7180   C.2       1 RES1   0.0000
   188 C23A     3.5062  14.7681   3.7863   C.3       1 RES1   0.0000
   189 C24A     3.4475  15.5589   5.0832   C.3       1 RES1   0.0000
   190 C25A     3.6633  14.0528   1.0544   C.3       1 RES1   0.0000
   191 C26A     5.1427  19.2866   3.7307   C.ar      1 RES1   0.0000
   192 C27A     4.2291  20.1135   3.0621   C.ar      1 RES1   0.0000
   193 C28A     4.3762  21.4816   3.0014   C.ar      1 RES1   0.0000
   194 C29A     5.4734  22.0907   3.5892   C.ar      1 RES1   0.0000
   195 C30A     6.3826  21.2934   4.2933   C.ar      1 RES1   0.0000
   196 C31A     6.2270  19.9097   4.4028   C.ar      1 RES1   0.0000
   197 C32A     7.1923  19.1457   5.2180   C.2       1 RES1   0.0000
   198 C33A     8.3475  17.1941   5.9169   C.3       1 RES1   0.0000
   199 C34A     8.4606  15.7450   5.4672   C.3       1 RES1   0.0000
   200 C35A     8.0811  19.9140   6.1763   C.3       1 RES1   0.0000
   201 C36A     5.7668  17.1318   8.4821   C.3       1 RES1   0.0000
   202 C37A     6.5656  17.6213   9.6982   C.3       1 RES1   0.0000
   203 C38A     7.7904  12.5556  13.4946   C.2       1 RES1   0.0000
   204 C39A     7.0686  12.2342  14.7730   C.3       1 RES1   0.0000
   205 C40A     4.9474  11.8487   6.2605   C.2       1 RES1   0.0000
   206 C41A     3.6075  11.3463   5.8580   C.3       1 RES1   0.0000
   207 C42A    10.2529  15.7557   9.2586   C.2       1 RES1   0.0000
   208 C43A    11.2720  16.4411   8.3508   C.3       1 RES1   0.0000
   209 C44A     4.3647  13.9647   9.1676   C.2       1 RES1   0.0000
   210 C45A     3.0912  13.5022   9.8397   C.3       1 RES1   0.0000
   211 H1A     12.4086  13.1984   6.8905   H         1 RES1   0.0000
   212 H2A     11.2370  14.0030   6.1544   H         1 RES1   0.0000
   213 H3A     12.0107  12.8330   5.3847   H         1 RES1   0.0000
   214 H4A      7.3377  16.7348  11.1838   H         1 RES1   0.0000
   215 H5A      6.2185  16.1821  11.0827   H         1 RES1   0.0000
   216 H6A      9.9266  13.4239   8.1975   H         1 RES1   0.0000
   217 H7A     11.0910  12.4818   8.7550   H         1 RES1   0.0000
   218 H8A      9.7291  11.9567   4.8996   H         1 RES1   0.0000
   219 H9A      9.0764  13.0971   5.8075   H         1 RES1   0.0000
   220 H10A     5.6373  10.6206  11.0692   H         1 RES1   0.0000
   221 H11A     5.1274  10.4627   9.5618   H         1 RES1   0.0000
   222 H12A     8.8391  18.6349  12.1489   H         1 RES1   0.0000
   223 H13A    10.3086  20.3295  12.7822   H         1 RES1   0.0000
   224 H14A    12.2994  19.8140  13.8904   H         1 RES1   0.0000
   225 H15A    12.8260  17.6359  14.3334   H         1 RES1   0.0000
   226 H16A    12.5539  12.9777  13.6546   H         1 RES1   0.0000
   227 H17A    11.0665  12.6064  14.1347   H         1 RES1   0.0000
   228 H18A    11.3639  11.2290  12.3695   H         1 RES1   0.0000
   229 H19A    12.1620  12.3356  11.5324   H         1 RES1   0.0000
   230 H20A    12.4075  15.8518  15.6623   H         1 RES1   0.0000
   231 H21A    13.4969  15.2446  14.6602   H         1 RES1   0.0000
   232 H22A    12.4319  14.2803  15.3642   H         1 RES1   0.0000
   233 H23A     8.8479  16.7064   0.8152   H         1 RES1   0.0000
   234 H24A     8.6423  16.3522  -1.4350   H         1 RES1   0.0000
   235 H25A     6.6923  15.3843  -2.3176   H         1 RES1   0.0000
   236 H26A     4.9735  14.7972  -0.8910   H         1 RES1   0.0000
   237 H27A     2.6569  14.8759   3.2894   H         1 RES1   0.0000
   238 H28A     3.6260  13.8049   3.9867   H         1 RES1   0.0000
   239 H29A     2.9104  15.0648   5.7536   H         1 RES1   0.0000
   240 H30A     3.0160  16.4354   4.9232   H         1 RES1   0.0000
   241 H31A     4.0967  13.4762   0.3908   H         1 RES1   0.0000
   242 H32A     2.9949  14.6147   0.6114   H         1 RES1   0.0000
   243 H33A     3.2257  13.4972   1.7331   H         1 RES1   0.0000
   244 H34A     3.4797  19.7132   2.6326   H         1 RES1   0.0000
   245 H35A     3.7233  22.0087   2.5568   H         1 RES1   0.0000
   246 H36A     5.6064  23.0271   3.5135   H         1 RES1   0.0000
   247 H37A     7.1292  21.7085   4.7110   H         1 RES1   0.0000
   248 H38A     9.2123  17.6560   5.7788   H         1 RES1   0.0000
   249 H39A     8.1274  17.2292   6.8821   H         1 RES1   0.0000
   250 H40A     8.9766  15.6952   4.6234   H         1 RES1   0.0000
   251 H41A     8.9371  15.2164   6.1544   H         1 RES1   0.0000
   252 H42A     7.6495  20.7609   6.4138   H         1 RES1   0.0000
   253 H43A     8.9430  20.0966   5.7468   H         1 RES1   0.0000
   254 H44A     8.2258  19.3827   6.9865   H         1 RES1   0.0000
   255 H45A     5.7319  17.8348   7.7865   H         1 RES1   0.0000
   256 H46A     4.8397  16.9039   8.7466   H         1 RES1   0.0000
   257 H47A     7.4214  18.0227   9.4051   H         1 RES1   0.0000
   258 H48A     6.0500  18.3079  10.1900   H         1 RES1   0.0000
   259 H49A     7.3653  11.3628  15.1065   H         1 RES1   0.0000
   260 H50A     6.1034  12.2098  14.6063   H         1 RES1   0.0000
   261 H51A     7.2652  12.9235  15.4417   H         1 RES1   0.0000
   262 H52A     2.9169  11.9651   6.1746   H         1 RES1   0.0000
   263 H53A     3.4584  10.4605   6.2504   H         1 RES1   0.0000
   264 H54A     3.5631  11.2817   4.8811   H         1 RES1   0.0000
   265 H55A    12.1605  16.0587   8.5091   H         1 RES1   0.0000
   266 H56A    11.2907  17.4026   8.5478   H         1 RES1   0.0000
   267 H57A    11.0201  16.3045   7.4143   H         1 RES1   0.0000
   268 H58A     3.2887  13.2263  10.7593   H         1 RES1   0.0000
   269 H59A     2.4429  14.2375   9.8515   H         1 RES1   0.0000
   270 H60A     2.7169  12.7442   9.3445   H         1 RES1   0.0000
   271 O21      7.7222   9.0191  16.1946   O.3       2 RES2   0.0000
   272 C46      5.8317   8.3069  14.9785   C.3       2 RES2   0.0000
   273 C47      6.9513   7.8789  15.8240   C.3       2 RES2   0.0000
   274 C48      8.8604   8.6685  16.9895   C.3       2 RES2   0.0000
   275 C49      9.6018   9.9470  17.3803   C.3       2 RES2   0.0000
   276 H61     10.3927   9.7166  17.9125   H         2 RES2   0.0000
   277 H62      9.8810  10.4243  16.5702   H         2 RES2   0.0000
   278 H63      6.1754   8.8114  14.2121   H         2 RES2   0.0000
   279 H64      5.2288   8.8772  15.4989   H         2 RES2   0.0000
   280 H65      5.3438   7.5189  14.6602   H         2 RES2   0.0000
   281 H66      6.6052   7.4278  16.6342   H         2 RES2   0.0000
   282 H67      7.5185   7.2356  15.3288   H         2 RES2   0.0000
   283 H68      8.5682   8.1851  17.8014   H         2 RES2   0.0000
   284 H69      9.4611   8.0729  16.4725   H         2 RES2   0.0000
   285 H70      9.0087  10.5197  17.9092   H         2 RES2   0.0000
   286 N5      14.9056  12.2354  14.7831   N.1       3 RES3   0.0000
   287 C50     14.0740  10.9136  16.7824   C.3       3 RES3   0.0000
   288 C51     14.5213  11.6264  15.6943   C.1       3 RES3   0.0000
   289 H71     13.1121  10.7544  16.6948   H         3 RES3   0.0000
   290 H72     14.2474  11.4244  17.6009   H         3 RES3   0.0000
   291 H73     14.5457  10.0565  16.8262   H         3 RES3   0.0000
   292 N6      12.0656   9.6956  14.5810   N.1       4 RES4   0.0000
   293 C52      9.8834   8.6414  13.6310   C.3       4 RES4   0.0000
   294 C53     11.1006   9.2102  14.1751   C.1       4 RES4   0.0000
   295 H74      9.1124   8.9840  14.1279   H         4 RES4   0.0000
   296 H75      9.9148   7.6646  13.7085   H         4 RES4   0.0000
   297 H76      9.8004   8.8905  12.6862   H         4 RES4   0.0000
@<TRIPOS>BOND
     1     1     7    1
     2     2     7    1
     3     3    10    1
     4     4    10    1
     5     5    11    1
     6     6    14    1
     7     7    33    1
     8     8     1    1
     9     9     1    1
    10    10     2    1
    11    11     1    1
    12    12     3    1
    13    13     2    1
    14    14    46    1
    15    15     5    1
    16    16     6    1
    17    17     5    1
    18    18     4    1
    19    19     2    1
    20    20     3    1
    21    21     1    1
    22    22     5    1
    23    23     3    1
    24    24     4    1
    25    25     4    1
    26    26     5    1
    27    27     3    1
    28    28     6    1
    29    29     6    1
    30    30     4    1
    31    31    32    1
    32    32    33    1
    33    33    81    1
    34    34     8    1
    35    35     9    1
    36    36    12    1
    37    37    36   ar
    38    38    37   ar
    39    39    38   ar
    40    40    39   ar
    41    41    36   ar
    42    42    27    2
    43    43    27    1
    44    44    13    1
    45    45    42    1
    46    46    47   ar
    47    47    48   ar
    48    48    49   ar
    49    49    50   ar
    50    50    51   ar
    51    51    46   ar
    52    52    28    2
    53    53    28    1
    54    54    15    1
    55    55    52    1
    56    56    16    1
    57    57    56   ar
    58    58    57   ar
    59    59    58   ar
    60    60    59   ar
    61    61    56   ar
    62    62    29    2
    63    63    29    1
    64    64    17    1
    65    65    62    1
    66    66    18    1
    67    67    30    1
    68    68    19   un
    69    69    68    1
    70    70    21   un
    71    71    70    1
    72    72    23   un
    73    73    72    1
    74    74    25   un
    75    75    74    1
    76    76    31    1
    77    77    31    1
    78    78    31    1
    79    79    30    1
    80    80    30    1
    81    82    33    1
    82    83    34    1
    83    84    34    1
    84    85    35    1
    85    86    35    1
    86    87    37    1
    87    88    38    1
    88    89    39    1
    89    90    40    1
    90    91    43    1
    91    92    43    1
    92    93    44    1
    93    94    44    1
    94    95    45    1
    95    96    45    1
    96    97    45    1
    97    98    47    1
    98    99    48    1
    99   100    49    1
   100   101    50    1
   101   102    53    1
   102   103    53    1
   103   104    54    1
   104   105    54    1
   105   106    55    1
   106   107    55    1
   107   108    55    1
   108   109    57    1
   109   110    58    1
   110   111    59    1
   111   112    60    1
   112   113    63    1
   113   114    63    1
   114   115    64    1
   115   116    64    1
   116   117    65    1
   117   118    65    1
   118   119    65    1
   119   120    66    1
   120   121    66    1
   121   122    67    1
   122   123    67    1
   123   124    69    1
   124   125    69    1
   125   126    69    1
   126   127    71    1
   127   128    71    1
   128   129    71    1
   129   130    73    1
   130   131    73    1
   131   132    73    1
   132   133    75    1
   133   134    75    1
   134   135    75    1
   135   136     7    1
   136   137     8    1
   137   138   145    1
   138   139   145    1
   139   140   146    1
   140   141   149    1
   141   142     1    1
   142   143     2    1
   143   144   136    1
   144   145   137    1
   145   146   136    1
   146   147   138    1
   147   148   137    1
   148   149   181    1
   149   150   140    1
   150   151   141    1
   151   152   140    1
   152   153   139    1
   153   154   137    1
   154   155   138    1
   155   156   136    1
   156   157   140    1
   157   158   138    1
   158   159   139    1
   159   160   139    1
   160   161   140    1
   161   162   138    1
   162   163   141    1
   163   164   141    1
   164   165   139    1
   165   166   167    1
   166   167    35    1
   167   168   142    1
   168   169   143    1
   169   170    32    1
   170   171   147    1
   171   172   171   ar
   172   173   172   ar
   173   174   173   ar
   174   175   174   ar
   175   176   171   ar
   176   177   162    2
   177   178   162    1
   178   179   148    1
   179   180   177    1
   180   181   182   ar
   181   182   183   ar
   182   183   184   ar
   183   184   185   ar
   184   185   186   ar
   185   186   181   ar
   186   187   163    2
   187   188   163    1
   188   189   150    1
   189   190   187    1
   190   191   151    1
   191   192   191   ar
   192   193   192   ar
   193   194   193   ar
   194   195   194   ar
   195   196   191   ar
   196   197   164    2
   197   198   164    1
   198   199   152    1
   199   200   197    1
   200   201   153    1
   201   202   165    1
   202   203   154   un
   203   204   203    1
   204   205   156   un
   205   206   205    1
   206   207   158   un
   207   208   207    1
   208   209   160   un
   209   210   209    1
   210   211   166    1
   211   212   166    1
   212   213   166    1
   213   214   165    1
   214   215   165    1
   215   216   168    1
   216   217   168    1
   217   218   169    1
   218   219   169    1
   219   220   170    1
   220   221   170    1
   221   222   172    1
   222   223   173    1
   223   224   174    1
   224   225   175    1
   225   226   178    1
   226   227   178    1
   227   228   179    1
   228   229   179    1
   229   230   180    1
   230   231   180    1
   231   232   180    1
   232   233   182    1
   233   234   183    1
   234   235   184    1
   235   236   185    1
   236   237   188    1
   237   238   188    1
   238   239   189    1
   239   240   189    1
   240   241   190    1
   241   242   190    1
   242   243   190    1
   243   244   192    1
   244   245   193    1
   245   246   194    1
   246   247   195    1
   247   248   198    1
   248   249   198    1
   249   250   199    1
   250   251   199    1
   251   252   200    1
   252   253   200    1
   253   254   200    1
   254   255   201    1
   255   256   201    1
   256   257   202    1
   257   258   202    1
   258   259   204    1
   259   260   204    1
   260   261   204    1
   261   262   206    1
   262   263   206    1
   263   264   206    1
   264   265   208    1
   265   266   208    1
   266   267   208    1
   267   268   210    1
   268   269   210    1
   269   270   210    1
   270     2     9    1
   271     3    13    1
   272     4    11    1
   273     5    18    1
   274     6    15    1
   275     6    17    1
   276    20    68   un
   277    22    70   un
   278    24    72   un
   279    26    74   un
   280    32    34    1
   281    40    41   ar
   282    41    42    1
   283    43    44    1
   284    51    52    1
   285    53    54    1
   286    60    61   ar
   287    61    62    1
   288    63    64    1
   289    66    67    1
   290   136   142    1
   291   136   143    1
   292   137   142    1
   293   137   144    1
   294   138   148    1
   295   139   146    1
   296   140   153    1
   297   141   150    1
   298   141   152    1
   299   144   170    1
   300   155   203   un
   301   157   205   un
   302   159   207   un
   303   161   209   un
   304   167   168    1
   305   167   169    1
   306   175   176   ar
   307   176   177    1
   308   178   179    1
   309   186   187    1
   310   188   189    1
   311   195   196   ar
   312   196   197    1
   313   198   199    1
   314   201   202    1
   315   271   273    1
   316   272   273    1
   317   273   281    1
   318   274   271    1
   319   275   274    1
   320   276   275    1
   321   277   275    1
   322   278   272    1
   323   279   272    1
   324   280   272    1
   325   282   273    1
   326   283   274    1
   327   284   274    1
   328   285   275    1
   329   286   288    3
   330   287   288    1
   331   289   287    1
   332   290   287    1
   333   291   287    1
   334   292   294    3
   335   293   294    1
   336   295   293    1
   337   296   293    1
   338   297   293    1
@<TRIPOS>SUBSTRUCTURE
     1 RES1        1 GROUP             0 ****  ****    0  
     2 RES2      271 GROUP             0 ****  ****    0  
     3 RES3      286 GROUP             0 ****  ****    0  
     4 RES4      292 GROUP             0 ****  ****    0  
@<TRIPOS>CRYSIN
   11.3921   16.9719   17.5613   73.5570   85.5830   74.7590     2     1
