@<TRIPOS>MOLECULE
DAQHUC01
    98   103     2     0     0
SMALL
USER_CHARGES
****
Generated from the CSD

@<TRIPOS>ATOM
     1 Fe1      1.8994   2.6639  14.1009   Fe        1 RES1   1.0000
     2 P1       3.7056   2.5108  12.6299   P.3       1 RES1   0.0000
     3 N1       0.6691   2.6905  12.6232   N.2       1 RES1   0.0000
     4 N2       0.1325   1.7084  11.9262   N.2       1 RES1   0.0000
     5 N3       1.8994   0.7484  14.1009   N.2       1 RES1   0.0000
     6 N4       1.8994   4.5933  14.1009   N.1       1 RES1   0.0000
     7 C1      -2.3027  -3.1669   8.5187   C.3       1 RES1   0.0000
     8 H1      -2.5616  -3.9461   9.0163   H         1 RES1   0.0000
     9 H2      -1.7262  -3.4257   7.7961   H         1 RES1   0.0000
    10 H3      -3.0858  -2.7382   8.1656   H         1 RES1   0.0000
    11 C2      -1.5698  -2.2068   9.4303   C.ar      1 RES1   0.0000
    12 C3      -2.2625  -1.2561  10.1549   C.ar      1 RES1   0.0000
    13 H4      -3.1828  -1.1868  10.0433   H         1 RES1   0.0000
    14 C4      -1.6248  -0.3993  11.0465   C.ar      1 RES1   0.0000
    15 H5      -2.1138   0.2431  11.5079   H         1 RES1   0.0000
    16 C5      -0.2509  -0.5084  11.2443   C.ar      1 RES1   0.0000
    17 C6       0.4613  -1.4362  10.5016   C.ar      1 RES1   0.0000
    18 H6       1.3824  -1.5118  10.6111   H         1 RES1   0.0000
    19 C7      -0.2031  -2.2577   9.5888   C.ar      1 RES1   0.0000
    20 H7       0.2902  -2.8550   9.0743   H         1 RES1   0.0000
    21 C8       0.4236   0.4215  12.1870   C.2       1 RES1   0.0000
    22 C9       1.2377  -0.0625  13.2152   C.2       1 RES1   0.0000
    23 C10      1.4910  -1.4427  13.5608   C.2       1 RES1   0.0000
    24 H8       1.1555  -2.1915  13.1230   H         1 RES1   0.0000
    25 C11      0.1327   3.9342  12.0697   C.ar      1 RES1   0.0000
    26 C12     -1.1429   4.3450  12.4254   C.ar      1 RES1   0.0000
    27 H9      -1.6533   3.8349  13.0120   H         1 RES1   0.0000
    28 C13     -1.6527   5.5272  11.8971   C.ar      1 RES1   0.0000
    29 H10     -2.4992   5.8172  12.1506   H         1 RES1   0.0000
    30 C14     -0.9137   6.2746  10.9993   C.ar      1 RES1   0.0000
    31 H11     -1.2572   7.0692  10.6596   H         1 RES1   0.0000
    32 C15      0.3328   5.8380  10.6095   C.ar      1 RES1   0.0000
    33 H12      0.8186   6.3214   9.9808   H         1 RES1   0.0000
    34 C16      0.8679   4.6712  11.1569   C.ar      1 RES1   0.0000
    35 H13      1.7183   4.3887  10.9084   H         1 RES1   0.0000
    36 C17      4.5711   4.0622  12.2381   C.3       1 RES1   0.0000
    37 H14      3.9753   4.6516  11.7698   H         1 RES1   0.0000
    38 H15      5.3333   3.8728  11.6861   H         1 RES1   0.0000
    39 H16      4.8614   4.4810  13.0518   H         1 RES1   0.0000
    40 C18      3.3265   1.8047  10.9861   C.3       1 RES1   0.0000
    41 H17      2.9769   0.9169  11.0920   H         1 RES1   0.0000
    42 H18      4.1283   1.7721  10.4592   H         1 RES1   0.0000
    43 H19      2.6753   2.3544  10.5441   H         1 RES1   0.0000
    44 C19      5.0215   1.3742  13.1626   C.3       1 RES1   0.0000
    45 H20      5.3577   1.6521  14.0177   H         1 RES1   0.0000
    46 H21      5.7340   1.3858  12.5193   H         1 RES1   0.0000
    47 H22      4.6673   0.4846  13.2317   H         1 RES1   0.0000
    48 C20      1.8994   5.7342  14.1009   C.1       1 RES1   0.0000
    49 C21      1.8994   7.1885  14.1009   C.3       1 RES1   0.0000
    50 N1A      3.1297   2.6905  15.5787   N.2       1 RES1   0.0000
    51 N2A      3.6663   1.7084  16.2757   N.2       1 RES1   0.0000
    52 C1A      6.1015  -3.1669  19.6832   C.3       1 RES1   0.0000
    53 H1A      6.3604  -3.9461  19.1856   H         1 RES1   0.0000
    54 H2A      5.5250  -3.4257  20.4058   H         1 RES1   0.0000
    55 H3A      6.8846  -2.7382  20.0363   H         1 RES1   0.0000
    56 C2A      5.3686  -2.2068  18.7715   C.ar      1 RES1   0.0000
    57 C3A      6.0613  -1.2561  18.0469   C.ar      1 RES1   0.0000
    58 H4A      6.9816  -1.1868  18.1585   H         1 RES1   0.0000
    59 C4A      5.4236  -0.3993  17.1554   C.ar      1 RES1   0.0000
    60 H5A      5.9126   0.2431  16.6940   H         1 RES1   0.0000
    61 C5A      4.0497  -0.5084  16.9576   C.ar      1 RES1   0.0000
    62 C6A      3.3375  -1.4362  17.7003   C.ar      1 RES1   0.0000
    63 H6A      2.4164  -1.5118  17.5907   H         1 RES1   0.0000
    64 C7A      4.0019  -2.2577  18.6131   C.ar      1 RES1   0.0000
    65 H7A      3.5086  -2.8550  19.1275   H         1 RES1   0.0000
    66 C8A      3.3752   0.4215  16.0149   C.2       1 RES1   0.0000
    67 C9A      2.5611  -0.0625  14.9867   C.2       1 RES1   0.0000
    68 C10A     2.3078  -1.4427  14.6411   C.2       1 RES1   0.0000
    69 H8A      2.6433  -2.1915  15.0789   H         1 RES1   0.0000
    70 C11A     3.6660   3.9342  16.1322   C.ar      1 RES1   0.0000
    71 C12A     4.9417   4.3450  15.7765   C.ar      1 RES1   0.0000
    72 H9A      5.4521   3.8349  15.1899   H         1 RES1   0.0000
    73 C13A     5.4515   5.5272  16.3048   C.ar      1 RES1   0.0000
    74 H10A     6.2980   5.8172  16.0513   H         1 RES1   0.0000
    75 C14A     4.7125   6.2746  17.2026   C.ar      1 RES1   0.0000
    76 H11A     5.0560   7.0692  17.5422   H         1 RES1   0.0000
    77 C15A     3.4659   5.8380  17.5923   C.ar      1 RES1   0.0000
    78 H12A     2.9802   6.3214  18.2211   H         1 RES1   0.0000
    79 C16A     2.9309   4.6712  17.0450   C.ar      1 RES1   0.0000
    80 H13A     2.0805   4.3887  17.2935   H         1 RES1   0.0000
    81 P1A      0.0932   2.5108  15.5720   P.3       1 RES1   0.0000
    82 C17A    -0.7723   4.0622  15.9638   C.3       1 RES1   0.0000
    83 H14A    -0.1765   4.6516  16.4320   H         1 RES1   0.0000
    84 H15A    -1.5345   3.8728  16.5157   H         1 RES1   0.0000
    85 H16A    -1.0626   4.4810  15.1501   H         1 RES1   0.0000
    86 C18A     0.4723   1.8047  17.2157   C.3       1 RES1   0.0000
    87 H17A     0.8219   0.9169  17.1099   H         1 RES1   0.0000
    88 H18A    -0.3295   1.7721  17.7427   H         1 RES1   0.0000
    89 H19A     1.1235   2.3544  17.6577   H         1 RES1   0.0000
    90 C19A    -1.2227   1.3742  15.0393   C.3       1 RES1   0.0000
    91 H20A    -1.5589   1.6521  14.1842   H         1 RES1   0.0000
    92 H21A    -1.9352   1.3858  15.6825   H         1 RES1   0.0000
    93 H22A    -0.8685   0.4846  14.9702   H         1 RES1   0.0000
    94 F1       2.8190  11.6594  14.7674   F         2 RES2   0.0000
    95 F2       1.2336  10.0413  15.0160   F         2 RES2   0.0000
    96 B1       1.8994  10.8506  14.1009   B         2 RES2  -1.0000
    97 F1A      0.9798  11.6594  13.4344   F         2 RES2   0.0000
    98 F2A      2.5652  10.0413  13.1859   F         2 RES2   0.0000
@<TRIPOS>BOND
     1     1     2    1
     2     2    36    1
     3     3     1    1
     4     4     3    2
     5     5     1    1
     6     6     1    1
     7     7     8    1
     8     9     7    1
     9    10     7    1
    10    11     7    1
    11    12    11   ar
    12    13    12    1
    13    14    12   ar
    14    15    14    1
    15    16    14   ar
    16    17    16   ar
    17    18    17    1
    18    19    11   ar
    19    20    19    1
    20    21     4    1
    21    22     5    1
    22    23    22    1
    23    24    23    1
    24    25     3    1
    25    26    25   ar
    26    27    26    1
    27    28    26   ar
    28    29    28    1
    29    30    28   ar
    30    31    30    1
    31    32    30   ar
    32    33    32    1
    33    34    25   ar
    34    35    34    1
    35    36    37    1
    36    38    36    1
    37    39    36    1
    38    40     2    1
    39    41    40    1
    40    42    40    1
    41    43    40    1
    42    44     2    1
    43    45    44    1
    44    46    44    1
    45    47    44    1
    46    48     6    3
    47    49    48    1
    48    50     1    1
    49    51    50    2
    50    52    53    1
    51    54    52    1
    52    55    52    1
    53    56    52    1
    54    57    56   ar
    55    58    57    1
    56    59    57   ar
    57    60    59    1
    58    61    59   ar
    59    62    61   ar
    60    63    62    1
    61    64    56   ar
    62    65    64    1
    63    66    51    1
    64    67     5    1
    65    68    23    2
    66    69    68    1
    67    70    50    1
    68    71    70   ar
    69    72    71    1
    70    73    71   ar
    71    74    73    1
    72    75    73   ar
    73    76    75    1
    74    77    75   ar
    75    78    77    1
    76    79    70   ar
    77    80    79    1
    78    81     1    1
    79    82    81    1
    80    83    82    1
    81    84    82    1
    82    85    82    1
    83    86    81    1
    84    87    86    1
    85    88    86    1
    86    89    86    1
    87    90    81    1
    88    91    90    1
    89    92    90    1
    90    93    90    1
    91    16    21    1
    92    17    19   ar
    93    21    22    2
    94    32    34   ar
    95    61    66    1
    96    62    64   ar
    97    66    67    2
    98    67    68    1
    99    77    79   ar
   100    94    96    1
   101    95    96    1
   102    96    97    1
   103    98    96    1
@<TRIPOS>SUBSTRUCTURE
     1 RES1        1 GROUP             0 ****  ****    0  
     2 RES2       94 GROUP             0 ****  ****    0  
@<TRIPOS>CRYSIN
   12.8518   16.3260   19.7462   90.0000  107.7970   90.0000    15     1
