@<TRIPOS>MOLECULE
DASFEB
    59    64     3     0     0
SMALL
USER_CHARGES
****
Generated from the CSD

@<TRIPOS>ATOM
     1 Fe1     -3.7878   4.8038   0.6907   Fe        1 RES1   1.0000
     2 As1     -3.4113   6.6191  -0.8078   As        1 RES1   0.0000
     3 As2     -4.3303   6.4847   2.2844   As        1 RES1   0.0000
     4 As3     -4.3997   3.0162   2.1131   As        1 RES1   0.0000
     5 As4     -3.5067   3.1430  -0.9943   As        1 RES1   0.0000
     6 S1      -8.3358   4.7285  -0.7264   S.2       1 RES1   0.0000
     7 O1      -1.3020   4.7226   1.8823   O.2       1 RES1   0.0000
     8 N1      -2.1529   4.7867   1.2013   N.2       1 RES1   0.0000
     9 N2      -5.6898   4.7883   0.1031   N.2       1 RES1   0.0000
    10 C1      -3.3206   8.2376   0.2233   C.ar      1 RES1   0.0000
    11 C2      -2.9506   9.4691  -0.3706   C.ar      1 RES1   0.0000
    12 C3      -2.8958  10.5868   0.4258   C.ar      1 RES1   0.0000
    13 C4      -3.2119  10.5289   1.8283   C.ar      1 RES1   0.0000
    14 C5      -3.5826   9.3099   2.4492   C.ar      1 RES1   0.0000
    15 C6      -3.6536   8.1657   1.5743   C.ar      1 RES1   0.0000
    16 C7      -4.6101   1.4342   1.0307   C.ar      1 RES1   0.0000
    17 C8      -5.1393   0.2449   1.6062   C.ar      1 RES1   0.0000
    18 C9      -5.3142  -0.8694   0.7865   C.ar      1 RES1   0.0000
    19 C10     -4.9533  -0.8146  -0.5571   C.ar      1 RES1   0.0000
    20 C11     -4.4296   0.3580  -1.1632   C.ar      1 RES1   0.0000
    21 C12     -4.2749   1.4889  -0.3129   C.ar      1 RES1   0.0000
    22 C13     -4.7521   7.0831  -2.1621   C.3       1 RES1   0.0000
    23 C14     -6.2444   6.8913   2.5621   C.3       1 RES1   0.0000
    24 C15     -6.1195   3.1480   3.0529   C.3       1 RES1   0.0000
    25 C16     -4.3582   3.4136  -2.7474   C.3       1 RES1   0.0000
    26 C17     -1.6952   6.6121  -1.7927   C.3       1 RES1   0.0000
    27 C18     -3.6152   6.3554   4.1315   C.3       1 RES1   0.0000
    28 C19     -3.1266   2.4407   3.4946   C.3       1 RES1   0.0000
    29 C20     -1.6771   2.6070  -1.4933   C.3       1 RES1   0.0000
    30 C21     -6.7838   4.7747  -0.2503   C.1       1 RES1   0.0000
    31 O2      -3.3192   1.3674  -5.4248   O.2       2 RES2   0.0000
    32 C22     -2.8312   1.2880  -6.6040   C.2       2 RES2   0.0000
    33 C23     -2.4965  -0.0621  -7.1954   C.3       2 RES2   0.0000
    34 C24     -2.4911   2.4392  -7.2764   C.2       2 RES2   0.0000
    35 B1      -2.1250  -1.4992   5.3782   B         3 RES3  -1.0000
    36 C25     -1.6659  -0.6636   6.7905   C.ar      3 RES3   0.0000
    37 C26     -1.3472  -1.3476   7.9611   C.ar      3 RES3   0.0000
    38 C27     -0.9101  -0.6451   9.0790   C.ar      3 RES3   0.0000
    39 C28     -0.7914   0.7398   9.0262   C.ar      3 RES3   0.0000
    40 C29     -1.1097   1.4242   7.8568   C.ar      3 RES3   0.0000
    41 C30     -1.5473   0.7228   6.7377   C.ar      3 RES3   0.0000
    42 C31     -1.3724  -0.8231   4.0223   C.ar      3 RES3   0.0000
    43 C32     -2.0077  -0.8613   2.7866   C.ar      3 RES3   0.0000
    44 C33     -1.4225  -0.2443   1.6762   C.ar      3 RES3   0.0000
    45 C34     -0.2009   0.4090   1.8001   C.ar      3 RES3   0.0000
    46 C35      0.4343   0.4472   3.0357   C.ar      3 RES3   0.0000
    47 C36     -0.1509  -0.1698   4.1462   C.ar      3 RES3   0.0000
    48 C37     -1.6218  -3.1230   5.5696   C.ar      3 RES3   0.0000
    49 C38     -2.4341  -4.0163   6.2715   C.ar      3 RES3   0.0000
    50 C39     -1.9796  -5.3029   6.5426   C.ar      3 RES3   0.0000
    51 C40     -0.7114  -5.6962   6.1119   C.ar      3 RES3   0.0000
    52 C41      0.1012  -4.8026   5.4113   C.ar      3 RES3   0.0000
    53 C42     -0.3533  -3.5160   5.1401   C.ar      3 RES3   0.0000
    54 C43     -3.8064  -1.4146   5.1880   C.ar      3 RES3   0.0000
    55 C44     -4.5113  -0.3046   5.6506   C.ar      3 RES3   0.0000
    56 C45     -5.8797  -0.2053   5.4248   C.ar      3 RES3   0.0000
    57 C46     -6.5421  -1.2145   4.7364   C.ar      3 RES3   0.0000
    58 C47     -5.8361  -2.3230   4.2738   C.ar      3 RES3   0.0000
    59 C48     -4.4675  -2.4238   4.4996   C.ar      3 RES3   0.0000
@<TRIPOS>BOND
     1     1     2    1
     2     2    10    1
     3     3     1    1
     4     4     1    1
     5     5     1    1
     6     6    30    2
     7     7     8    2
     8     8     1    1
     9     9     1    1
    10    10    11   ar
    11    11    12   ar
    12    12    13   ar
    13    13    14   ar
    14    14    15   ar
    15    15     3    1
    16    16     4    1
    17    17    16   ar
    18    18    17   ar
    19    19    18   ar
    20    20    19   ar
    21    21     5    1
    22    22     2    1
    23    23     3    1
    24    24     4    1
    25    25     5    1
    26    26     2    1
    27    27     3    1
    28    28     4    1
    29    29     5    1
    30    30     9    2
    31    10    15   ar
    32    16    21   ar
    33    20    21   ar
    34    31    32    2
    35    32    33    1
    36    34    32    1
    37    35    36    1
    38    36    37   ar
    39    37    38   ar
    40    38    39   ar
    41    39    40   ar
    42    40    41   ar
    43    41    36   ar
    44    42    35    1
    45    43    42   ar
    46    44    43   ar
    47    45    44   ar
    48    46    45   ar
    49    47    42   ar
    50    48    35    1
    51    49    48   ar
    52    50    49   ar
    53    51    50   ar
    54    52    51   ar
    55    53    48   ar
    56    54    35    1
    57    55    54   ar
    58    56    55   ar
    59    57    56   ar
    60    58    57   ar
    61    59    54   ar
    62    46    47   ar
    63    52    53   ar
    64    58    59   ar
@<TRIPOS>SUBSTRUCTURE
     1 RES1        1 GROUP             0 ****  ****    0  
     2 RES2       31 GROUP             0 ****  ****    0  
     3 RES3       35 GROUP             0 ****  ****    0  
@<TRIPOS>CRYSIN
   13.5090   14.9880   13.1600   75.1400   76.7800   95.5400     2     1
