@<TRIPOS>MOLECULE
DAXCEM
   284   323     7     0     0
SMALL
USER_CHARGES
****
Generated from the CSD

@<TRIPOS>ATOM
     1 Eu1      6.8847   9.6445   7.5462   Eu        1 RES1   3.0000
     2 O16      9.0251   9.6445   8.6323   O.3       1 RES1   0.0000
     3 O21      8.2953   8.1824   6.1424   O.3       1 RES1   0.0000
     4 O23      4.6159   9.6445   8.3561   O.3       1 RES1   0.0000
     5 O24      6.8796   7.5073   8.6994   O.3       1 RES1   0.0000
     6 O25      5.5535   8.1727   6.1462   O.3       1 RES1   0.0000
     7 O35      6.5526   9.6445  10.1919   O.3       1 RES1   0.0000
     8 O21E     8.2953  11.1066   6.1424   O.3       1 RES1   0.0000
     9 O24E     6.8796  11.7817   8.6994   O.3       1 RES1   0.0000
    10 O25E     5.5535  11.1163   6.1462   O.3       1 RES1   0.0000
    11 Eu2     13.6245   4.3614   0.0000   Eu        2 RES2   0.0000
    12 Fe3     12.2912   7.8001   4.8527   Fe        2 RES2   0.0000
    13 Fe4      9.8830   7.8057   2.4050   Fe        2 RES2   0.0000
    14 O2      13.0058   9.6445   5.3328   O.3       2 RES2   0.0000
    15 O4       9.5287   9.6445   1.6133   O.3       2 RES2   0.0000
    16 O5       8.1188   7.9181   3.4318   O.co2     2 RES2   0.0000
    17 O8      11.5851   5.8639   4.7036   O.co2     2 RES2   0.0000
    18 O9      13.9881   7.1041   3.9306   O.co2     2 RES2   0.0000
    19 O12     11.0252   7.9606   6.4244   O.co2     2 RES2   0.0000
    20 O13      9.9645   5.8851   3.1863   O.co2     2 RES2   0.0000
    21 N2      13.6091   7.2102   6.5184   N.3       2 RES2   0.0000
    22 O15     10.6681   7.5073   8.5537   O.co2     2 RES2   0.0000
    23 O18     11.2711   8.4254   3.4548   O.3       2 RES2  -1.0000
    24 C4      12.7844   6.8785   7.6655   C.3       2 RES2   0.0000
    25 H6      13.2158   7.1948   8.4750   H         2 RES2   0.0000
    26 H7      12.6989   5.9140   7.7326   H         2 RES2   0.0000
    27 O20     11.0750   7.0752   0.8882   O.co2     2 RES2   0.0000
    28 C5      11.3882   7.5073   7.5542   C.2       2 RES2   0.0000
    29 C6      13.6322   9.6445   6.6085   C.3       2 RES2   0.0000
    30 H8      12.9425   9.6445   7.3068   H         2 RES2   0.0000
    31 C8      14.4855   8.3907   6.7447   C.3       2 RES2   0.0000
    32 H11     15.2018   8.4042   6.0906   H         2 RES2   0.0000
    33 H12     14.8791   8.3502   7.6310   H         2 RES2   0.0000
    34 N4       8.4582   7.1987   0.8345   N.3       2 RES2   0.0000
    35 O26     11.2841   5.1077  -0.0422   O.co2     2 RES2   0.0000
    36 O27     13.7135   6.2438  -1.4656   O.3       2 RES2   0.0000
    37 O28      5.9590   7.4610   3.4241   O.co2     2 RES2   0.0000
    38 C13     10.7722   5.3315   3.9344   C.2       2 RES2   0.0000
    39 C17     14.3916   6.0606   6.0177   C.3       2 RES2   0.0000
    40 H19     13.9116   5.2370   6.1999   H         2 RES2   0.0000
    41 H20     15.2439   6.0220   6.4800   H         2 RES2   0.0000
    42 C18      7.1780   6.9595   1.4080   C.3       2 RES2   0.0000
    43 H21      7.0091   6.0047   1.4080   H         2 RES2   0.0000
    44 H22      6.5021   7.3780   0.8517   H         2 RES2   0.0000
    45 C19      8.3860   9.6445   0.7654   C.3       2 RES2   0.0000
    46 H23      7.5746   9.6445   1.3179   H         2 RES2   0.0000
    47 C20      7.0223   7.5015   2.8832   C.2       2 RES2   0.0000
    48 C21      9.0832   6.0220   0.1707   C.3       2 RES2   0.0000
    49 H24      8.8526   6.0220  -0.7712   H         2 RES2   0.0000
    50 H25      8.7375   5.2061   0.5659   H         2 RES2   0.0000
    51 C22     14.6194   6.1879   4.5732   C.2       2 RES2   0.0000
    52 C23      8.4132   8.3637  -0.0902   C.3       2 RES2   0.0000
    53 H26      7.6232   8.3174  -0.6484   H         2 RES2   0.0000
    54 H27      9.1948   8.3618  -0.6637   H         2 RES2   0.0000
    55 O32     15.4530   5.4530   3.9785   O.co2     2 RES2   0.0000
    56 C27     10.7088   3.8096   3.9996   C.3       2 RES2   0.0000
    57 C28     10.6075   6.0529   0.3223   C.2       2 RES2   0.0000
    58 O33     12.4142   3.7671  -1.9068   O.3       2 RES2   0.0000
    59 O34     12.2021   2.5732   0.7961   O.3       2 RES2   0.0000
    60 Eu2D    13.6245  14.9276   0.0000   Eu        2 RES2   0.0000
    61 Fe3E    12.2912  11.4889   4.8527   Fe        2 RES2   0.0000
    62 Fe3A    14.9578   7.8001  -4.8527   Fe        2 RES2   0.0000
    63 Fe3D    14.9578  11.4889  -4.8527   Fe        2 RES2   0.0000
    64 Fe4E     9.8830  11.4833   2.4050   Fe        2 RES2   0.0000
    65 Fe4D    17.3660  11.4833  -2.4050   Fe        2 RES2   0.0000
    66 Fe4A    17.3660   7.8057  -2.4050   Fe        2 RES2   0.0000
    67 O2A     14.2432   9.6445  -5.3328   O.3       2 RES2   0.0000
    68 O4A     17.7203   9.6445  -1.6133   O.3       2 RES2   0.0000
    69 O5E      8.1188  11.3709   3.4318   O.co2     2 RES2   0.0000
    70 O5A     19.1302   7.9181  -3.4318   O.co2     2 RES2   0.0000
    71 O5D     19.1302  11.3709  -3.4318   O.co2     2 RES2   0.0000
    72 O8E     11.5851  13.4251   4.7036   O.co2     2 RES2   0.0000
    73 O8A     15.6639   5.8639  -4.7036   O.co2     2 RES2   0.0000
    74 O8D     15.6639  13.4251  -4.7036   O.co2     2 RES2   0.0000
    75 O9E     13.9881  12.1849   3.9306   O.co2     2 RES2   0.0000
    76 O9D     13.2609  12.1849  -3.9306   O.co2     2 RES2   0.0000
    77 O9A     13.2609   7.1041  -3.9306   O.co2     2 RES2   0.0000
    78 O12E    11.0252  11.3284   6.4244   O.co2     2 RES2   0.0000
    79 O12D    16.2238  11.3284  -6.4244   O.co2     2 RES2   0.0000
    80 O12A    16.2238   7.9606  -6.4244   O.co2     2 RES2   0.0000
    81 O13E     9.9645  13.4039   3.1863   O.co2     2 RES2   0.0000
    82 O13A    17.2845   5.8851  -3.1863   O.co2     2 RES2   0.0000
    83 O13D    17.2845  13.4039  -3.1863   O.co2     2 RES2   0.0000
    84 N2E     13.6091  12.0788   6.5184   N.3       2 RES2   0.0000
    85 N2D     13.6399  12.0788  -6.5184   N.3       2 RES2   0.0000
    86 N2A     13.6399   7.2102  -6.5184   N.3       2 RES2   0.0000
    87 O15D    16.5809  11.7817  -8.5537   O.co2     2 RES2   0.0000
    88 O15A    16.5809   7.5073  -8.5537   O.co2     2 RES2   0.0000
    89 O15E    10.6681  11.7817   8.5537   O.co2     2 RES2   0.0000
    90 O18E    11.2711  10.8636   3.4548   O.3       2 RES2   0.0000
    91 O18D    15.9779  10.8636  -3.4548   O.3       2 RES2  -1.0000
    92 O18A    15.9779   8.4254  -3.4548   O.3       2 RES2   0.0000
    93 C4E     12.7844  12.4105   7.6655   C.3       2 RES2   0.0000
    94 C4D     14.4646  12.4105  -7.6655   C.3       2 RES2   0.0000
    95 C4A     14.4646   6.8785  -7.6655   C.3       2 RES2   0.0000
    96 H6E     13.2158  12.0942   8.4750   H         2 RES2   0.0000
    97 H6A     14.0332   7.1948  -8.4750   H         2 RES2   0.0000
    98 H6D     14.0332  12.0942  -8.4750   H         2 RES2   0.0000
    99 H7E     12.6989  13.3750   7.7326   H         2 RES2   0.0000
   100 H7A     14.5501   5.9140  -7.7326   H         2 RES2   0.0000
   101 H7D     14.5501  13.3750  -7.7326   H         2 RES2   0.0000
   102 O20E    11.0750  12.2138   0.8882   O.co2     2 RES2   0.0000
   103 O20D    16.1740  12.2138  -0.8882   O.co2     2 RES2   0.0000
   104 O20A    16.1740   7.0752  -0.8882   O.co2     2 RES2   0.0000
   105 C5E     11.3882  11.7817   7.5542   C.2       2 RES2   0.0000
   106 C5D     15.8608  11.7817  -7.5542   C.2       2 RES2   0.0000
   107 C5A     15.8608   7.5073  -7.5542   C.2       2 RES2   0.0000
   108 C6A     13.6168   9.6445  -6.6085   C.3       2 RES2   0.0000
   109 H8A     14.3065   9.6445  -7.3068   H         2 RES2   0.0000
   110 C8E     14.4855  10.8983   6.7447   C.3       2 RES2   0.0000
   111 C8D     12.7635  10.8983  -6.7447   C.3       2 RES2   0.0000
   112 C8A     12.7635   8.3907  -6.7447   C.3       2 RES2   0.0000
   113 H11A    12.0472   8.4042  -6.0906   H         2 RES2   0.0000
   114 H11D    12.0472  10.8848  -6.0906   H         2 RES2   0.0000
   115 H11E    15.2018  10.8848   6.0906   H         2 RES2   0.0000
   116 H12A    12.3699   8.3502  -7.6310   H         2 RES2   0.0000
   117 H12D    12.3699  10.9388  -7.6310   H         2 RES2   0.0000
   118 H12E    14.8791  10.9388   7.6310   H         2 RES2   0.0000
   119 N4E      8.4582  12.0903   0.8345   N.3       2 RES2   0.0000
   120 N4A     18.7908   7.1987  -0.8345   N.3       2 RES2   0.0000
   121 N4D     18.7908  12.0903  -0.8345   N.3       2 RES2   0.0000
   122 O26E    11.2841  14.1813  -0.0422   O.co2     2 RES2   0.0000
   123 O26D    15.9649  14.1813   0.0422   O.co2     2 RES2   0.0000
   124 O26A    15.9649   5.1077   0.0422   O.co2     2 RES2   0.0000
   125 O27A    13.5355   6.2438   1.4656   O.3       2 RES2   0.0000
   126 O27E    13.7135  13.0452  -1.4656   O.3       2 RES2   0.0000
   127 O27D    13.5355  13.0452   1.4656   O.3       2 RES2   0.0000
   128 O28E     5.9590  11.8280   3.4241   O.co2     2 RES2   0.0000
   129 O28A    21.2900   7.4610  -3.4241   O.co2     2 RES2   0.0000
   130 O28D    21.2900  11.8280  -3.4241   O.co2     2 RES2   0.0000
   131 C13E    10.7722  13.9575   3.9344   C.2       2 RES2   0.0000
   132 C13A    16.4768   5.3315  -3.9344   C.2       2 RES2   0.0000
   133 C13D    16.4768  13.9575  -3.9344   C.2       2 RES2   0.0000
   134 C17E    14.3916  13.2284   6.0177   C.3       2 RES2   0.0000
   135 C17D    12.8574  13.2284  -6.0177   C.3       2 RES2   0.0000
   136 C17A    12.8574   6.0606  -6.0177   C.3       2 RES2   0.0000
   137 H19A    13.3374   5.2370  -6.1999   H         2 RES2   0.0000
   138 H19D    13.3374  14.0520  -6.1999   H         2 RES2   0.0000
   139 H19E    13.9116  14.0520   6.1999   H         2 RES2   0.0000
   140 H20A    12.0051   6.0220  -6.4800   H         2 RES2   0.0000
   141 H20D    12.0051  13.2670  -6.4800   H         2 RES2   0.0000
   142 H20E    15.2439  13.2670   6.4800   H         2 RES2   0.0000
   143 C18E     7.1780  12.3295   1.4080   C.3       2 RES2   0.0000
   144 C18A    20.0710   6.9595  -1.4080   C.3       2 RES2   0.0000
   145 C18D    20.0710  12.3295  -1.4080   C.3       2 RES2   0.0000
   146 H21D    20.2399  13.2843  -1.4080   H         2 RES2   0.0000
   147 H21A    20.2399   6.0047  -1.4080   H         2 RES2   0.0000
   148 H21E     7.0091  13.2843   1.4080   H         2 RES2   0.0000
   149 H22D    20.7469  11.9110  -0.8517   H         2 RES2   0.0000
   150 H22A    20.7469   7.3780  -0.8517   H         2 RES2   0.0000
   151 H22E     6.5021  11.9110   0.8517   H         2 RES2   0.0000
   152 C19A    18.8630   9.6445  -0.7654   C.3       2 RES2   0.0000
   153 H23A    19.6744   9.6445  -1.3179   H         2 RES2   0.0000
   154 C20E     7.0223  11.7875   2.8832   C.2       2 RES2   0.0000
   155 C20A    20.2267   7.5015  -2.8832   C.2       2 RES2   0.0000
   156 C20D    20.2267  11.7875  -2.8832   C.2       2 RES2   0.0000
   157 C21A    18.1658   6.0220  -0.1707   C.3       2 RES2   0.0000
   158 C21D    18.1658  13.2670  -0.1707   C.3       2 RES2   0.0000
   159 C21E     9.0832  13.2670   0.1707   C.3       2 RES2   0.0000
   160 H24D    18.3964  13.2670   0.7712   H         2 RES2   0.0000
   161 H24A    18.3964   6.0220   0.7712   H         2 RES2   0.0000
   162 H24E     8.8526  13.2670  -0.7712   H         2 RES2   0.0000
   163 H25D    18.5115  14.0829  -0.5659   H         2 RES2   0.0000
   164 H25A    18.5115   5.2061  -0.5659   H         2 RES2   0.0000
   165 H25E     8.7375  14.0829   0.5659   H         2 RES2   0.0000
   166 C22E    14.6194  13.1011   4.5732   C.2       2 RES2   0.0000
   167 C22D    12.6296  13.1011  -4.5732   C.2       2 RES2   0.0000
   168 C22A    12.6296   6.1879  -4.5732   C.2       2 RES2   0.0000
   169 C23A    18.8358   8.3637   0.0902   C.3       2 RES2   0.0000
   170 C23D    18.8358  10.9253   0.0902   C.3       2 RES2   0.0000
   171 C23E     8.4132  10.9253  -0.0902   C.3       2 RES2   0.0000
   172 H26D    19.6258  10.9716   0.6484   H         2 RES2   0.0000
   173 H26A    19.6258   8.3174   0.6484   H         2 RES2   0.0000
   174 H26E     7.6232  10.9716  -0.6484   H         2 RES2   0.0000
   175 H27D    18.0542  10.9272   0.6637   H         2 RES2   0.0000
   176 H27A    18.0542   8.3618   0.6637   H         2 RES2   0.0000
   177 H27E     9.1948  10.9272  -0.6637   H         2 RES2   0.0000
   178 O32A    11.7960   5.4530  -3.9785   O.co2     2 RES2   0.0000
   179 O32D    11.7960  13.8360  -3.9785   O.co2     2 RES2   0.0000
   180 O32E    15.4530  13.8360   3.9785   O.co2     2 RES2   0.0000
   181 C27D    16.5402  15.4794  -3.9996   C.3       2 RES2   0.0000
   182 C27A    16.5402   3.8096  -3.9996   C.3       2 RES2   0.0000
   183 C27E    10.7088  15.4794   3.9996   C.3       2 RES2   0.0000
   184 C28E    10.6075  13.2361   0.3223   C.2       2 RES2   0.0000
   185 C28D    16.6415  13.2361  -0.3223   C.2       2 RES2   0.0000
   186 C28A    16.6415   6.0529  -0.3223   C.2       2 RES2   0.0000
   187 O33A    14.8348   3.7671   1.9068   O.3       2 RES2   0.0000
   188 O33E    12.4142  15.5219  -1.9068   O.3       2 RES2   0.0000
   189 O33D    14.8348  15.5219   1.9068   O.3       2 RES2   0.0000
   190 O34A    15.0469   2.5732  -0.7961   O.3       2 RES2   0.0000
   191 O34E    12.2021  16.7158   0.7961   O.3       2 RES2   0.0000
   192 O34D    15.0469  16.7158  -0.7961   O.3       2 RES2   0.0000
   193 Fe1      8.9276   1.7190   8.0656   Fe        3 RES3   0.0000
   194 Fe2      6.4709   1.7077   5.3633   Fe        3 RES3   0.0000
   195 O1       7.8219   2.5712   6.6143   O.3       3 RES3   0.0000
   196 O3       7.3987   2.0639   9.3862   O.co2     3 RES3  -1.0000
   197 O6      10.7023   2.1527   7.1706   O.co2     3 RES3   0.0000
   198 O7       8.6811   0.0000   7.4238   O.3       3 RES3   0.0000
   199 O10      7.3424   2.2722   3.6294   O.co2     3 RES3   0.0000
   200 N1       9.2507   3.8173   8.6170   N.3       3 RES3   0.0000
   201 O11      5.1727   1.8112   6.9174   O.co2     3 RES3   0.0000
   202 O14      7.2273   0.0000   5.4844   O.3       3 RES3   0.0000
   203 O17      4.8575   1.1072   4.2452   O.co2     3 RES3   0.0000
   204 O19     10.0008   1.1149   9.6854   O.co2     3 RES3   0.0000
   205 C1       8.7060   4.6101   7.5005   C.3       3 RES3   0.0000
   206 H1       9.3714   4.6969   6.8003   H         3 RES3   0.0000
   207 H2       8.4730   5.4993   7.8094   H         3 RES3   0.0000
   208 N3       5.8192   3.7826   5.1813   N.3       3 RES3   0.0000
   209 C2       6.9087   4.6120   5.7414   C.3       3 RES3   0.0000
   210 H3       6.5667   5.4839   5.9908   H         3 RES3   0.0000
   211 H4       7.6046   4.7354   5.0777   H         3 RES3   0.0000
   212 C3       7.4730   3.9118   6.9538   C.3       3 RES3   0.0000
   213 H5       6.7858   3.8906   7.6540   H         3 RES3   0.0000
   214 O22     12.5319   3.4296   7.3010   O.co2     3 RES3   0.0000
   215 C7      10.7234   3.9697   8.7071   C.3       3 RES3   0.0000
   216 H9      11.0319   3.6746   9.5780   H         3 RES3   0.0000
   217 H10     10.9640   4.9033   8.6016   H         3 RES3   0.0000
   218 C9      10.3137   0.0000  10.1669   C.2       3 RES3   0.0000
   219 C10     11.3852   3.1402   7.6156   C.2       3 RES3   0.0000
   220 O29      7.1452   3.6090   1.8665   O.co2     3 RES3   0.0000
   221 O30      6.4165   3.4855  10.7482   O.co2     3 RES3   0.0000
   222 C11      4.5304   3.9388   5.9563   C.3       3 RES3   0.0000
   223 H13      3.7777   3.9176   5.3444   H         3 RES3   0.0000
   224 H14      4.5254   4.7972   6.4109   H         3 RES3   0.0000
   225 C12      5.6962   4.0121   3.7119   C.3       3 RES3   0.0000
   226 H15      5.7639   4.9611   3.5162   H         3 RES3   0.0000
   227 H16      4.8344   3.6996   3.3992   H         3 RES3   0.0000
   228 C14      7.3758   3.1306  10.0307   C.2       3 RES3   0.0000
   229 C15      6.7941   3.2676   3.0175   C.2       3 RES3   0.0000
   230 C16      8.5779   4.0526   9.9080   C.3       3 RES3   0.0000
   231 H17      8.2872   4.9766   9.9617   H         3 RES3   0.0000
   232 H18      9.1950   3.8848  10.6350   H         3 RES3   0.0000
   233 O31      3.5161   2.9242   7.8516   O.co2     3 RES3   0.0000
   234 C24     11.2354   0.0000  11.3352   C.2       3 RES3   0.0000
   235 H28     11.5538   0.8044  11.6766   H         3 RES3   0.0000
   236 C25      3.0019   0.0000   3.2899   C.2       3 RES3   0.0000
   237 H29      2.6155   0.8044   3.0271   H         3 RES3   0.0000
   238 C26      4.3343   0.0000   4.0265   C.2       3 RES3   0.0000
   239 C29      4.3888   2.8085   6.9903   C.2       3 RES3   0.0000
   240 Fe1E     8.9276  -1.7190   8.0656   Fe        3 RES3   0.0000
   241 Fe2E     6.4709  -1.7077   5.3633   Fe        3 RES3   0.0000
   242 O1E      7.8219  -2.5712   6.6143   O.3       3 RES3   0.0000
   243 O3E      7.3987  -2.0639   9.3862   O.co2     3 RES3   0.0000
   244 O6E     10.7023  -2.1527   7.1706   O.co2     3 RES3   0.0000
   245 O10E     7.3424  -2.2722   3.6294   O.co2     3 RES3   0.0000
   246 N1E      9.2507  -3.8173   8.6170   N.3       3 RES3   0.0000
   247 O11E     5.1727  -1.8112   6.9174   O.co2     3 RES3  -1.0000
   248 O17E     4.8575  -1.1072   4.2452   O.co2     3 RES3   0.0000
   249 O19E    10.0008  -1.1149   9.6854   O.co2     3 RES3   0.0000
   250 C1E      8.7060  -4.6101   7.5005   C.3       3 RES3   0.0000
   251 H1E      9.3714  -4.6969   6.8003   H         3 RES3   0.0000
   252 H2E      8.4730  -5.4993   7.8094   H         3 RES3   0.0000
   253 N3E      5.8192  -3.7826   5.1813   N.3       3 RES3   0.0000
   254 C2E      6.9087  -4.6120   5.7414   C.3       3 RES3   0.0000
   255 H3E      6.5667  -5.4839   5.9908   H         3 RES3   0.0000
   256 H4E      7.6046  -4.7354   5.0777   H         3 RES3   0.0000
   257 C3E      7.4730  -3.9118   6.9538   C.3       3 RES3   0.0000
   258 H5E      6.7858  -3.8906   7.6540   H         3 RES3   0.0000
   259 O22E    12.5319  -3.4296   7.3010   O.co2     3 RES3   0.0000
   260 C7E     10.7234  -3.9697   8.7071   C.3       3 RES3   0.0000
   261 H9E     11.0319  -3.6746   9.5780   H         3 RES3   0.0000
   262 H10E    10.9640  -4.9033   8.6016   H         3 RES3   0.0000
   263 C10E    11.3852  -3.1402   7.6156   C.2       3 RES3   0.0000
   264 O29E     7.1452  -3.6090   1.8665   O.co2     3 RES3   0.0000
   265 O30E     6.4165  -3.4855  10.7482   O.co2     3 RES3   0.0000
   266 C11E     4.5304  -3.9388   5.9563   C.3       3 RES3   0.0000
   267 H13E     3.7777  -3.9176   5.3444   H         3 RES3   0.0000
   268 H14E     4.5254  -4.7972   6.4109   H         3 RES3   0.0000
   269 C12E     5.6962  -4.0121   3.7119   C.3       3 RES3   0.0000
   270 H15E     5.7639  -4.9611   3.5162   H         3 RES3   0.0000
   271 H16E     4.8344  -3.6996   3.3992   H         3 RES3   0.0000
   272 C14E     7.3758  -3.1306  10.0307   C.2       3 RES3   0.0000
   273 C15E     6.7941  -3.2676   3.0175   C.2       3 RES3   0.0000
   274 C16E     8.5779  -4.0526   9.9080   C.3       3 RES3   0.0000
   275 H17E     8.2872  -4.9766   9.9617   H         3 RES3   0.0000
   276 H18E     9.1950  -3.8848  10.6350   H         3 RES3   0.0000
   277 O31E     3.5161  -2.9242   7.8516   O.co2     3 RES3   0.0000
   278 H28E    11.5538  -0.8044  11.6766   H         3 RES3   0.0000
   279 H29E     2.6155  -0.8044   3.0271   H         3 RES3   0.0000
   280 C29E     4.3888  -2.8085   6.9903   C.2       3 RES3   0.0000
   281 O36     11.1182   0.0000   5.2676   O.3       4 RES4   0.0000
   282 O37      9.3874   0.0000   3.0232   O.3       5 RES5   0.0000
   283 O38      9.4315   2.0523   1.0301   O.3       6 RES6   0.0000
   284 O39     14.3593   2.6079   5.3981   O.3       7 RES7   0.0000
@<TRIPOS>BOND
     1     1     2    1
     2     3     1    1
     3     4     1    1
     4     5     1    1
     5     6     1    1
     6     7     1    1
     7     8     1    1
     8     9     1    1
     9    10     1    1
    10    11    35    1
    11    12    14    1
    12    13    15    1
    13    14    29    1
    14    15    45    1
    15    16    13    1
    16    17    12    1
    17    18    12    1
    18    19    12    1
    19    20    13    1
    20    21    12    1
    21    22    28    2
    22    23    12    1
    23    24    21    1
    24    25    24    1
    25    26    24    1
    26    27    13    1
    27    28    19    1
    28    29    30    1
    29    31    21    1
    30    32    31    1
    31    33    31    1
    32    34    13    1
    33    35    57    2
    34    36    11    1
    35    37    47    2
    36    38    17   un
    37    39    21    1
    38    40    39    1
    39    41    39    1
    40    42    34    1
    41    43    42    1
    42    44    42    1
    43    45    46    1
    44    47    16    1
    45    48    34    1
    46    49    48    1
    47    50    48    1
    48    51    18    1
    49    52    34    1
    50    53    52    1
    51    54    52    1
    52    55    51    2
    53    56    38    1
    54    57    27    1
    55    58    11    1
    56    59    11    1
    57    60   122    1
    58    61    14    1
    59    62    67    1
    60    63    67    1
    61    64    15    1
    62    65    68    1
    63    66    68    1
    64    67   108    1
    65    68   152    1
    66    69    64    1
    67    70    66    1
    68    71    65    1
    69    72    61    1
    70    73    62    1
    71    74    63    1
    72    75    61    1
    73    76    63    1
    74    77    62    1
    75    78    61    1
    76    79    63    1
    77    80    62    1
    78    81    64    1
    79    82    66    1
    80    83    65    1
    81    84    61    1
    82    85    63    1
    83    86    62    1
    84    87   106    2
    85    88   107    2
    86    89   105    2
    87    90    61    1
    88    91    63    1
    89    92    62    1
    90    93    84    1
    91    94    85    1
    92    95    86    1
    93    96    93    1
    94    97    95    1
    95    98    94    1
    96    99    93    1
    97   100    95    1
    98   101    94    1
    99   102    64    1
   100   103    65    1
   101   104    66    1
   102   105    78    1
   103   106    79    1
   104   107    80    1
   105   108   109    1
   106   110    29    1
   107   111    85    1
   108   112    86    1
   109   113   112    1
   110   114   111    1
   111   115   110    1
   112   116   112    1
   113   117   111    1
   114   118   110    1
   115   119    64    1
   116   120    66    1
   117   121    65    1
   118   122   184    2
   119   123    60    1
   120   124    11    1
   121   125    11    1
   122   126    60    1
   123   127    60    1
   124   128   154    2
   125   129   155    2
   126   130   156    2
   127   131    72   un
   128   132    73   un
   129   133    74   un
   130   134    84    1
   131   135    85    1
   132   136    86    1
   133   137   136    1
   134   138   135    1
   135   139   134    1
   136   140   136    1
   137   141   135    1
   138   142   134    1
   139   143   119    1
   140   144   120    1
   141   145   121    1
   142   146   145    1
   143   147   144    1
   144   148   143    1
   145   149   145    1
   146   150   144    1
   147   151   143    1
   148   152   153    1
   149   154    69    1
   150   155    70    1
   151   156    71    1
   152   157   120    1
   153   158   121    1
   154   159   119    1
   155   160   158    1
   156   161   157    1
   157   162   159    1
   158   163   158    1
   159   164   157    1
   160   165   159    1
   161   166    75    1
   162   167    76    1
   163   168    77    1
   164   169   120    1
   165   170   121    1
   166   171    45    1
   167   172   170    1
   168   173   169    1
   169   174   171    1
   170   175   170    1
   171   176   169    1
   172   177   171    1
   173   178   168    2
   174   179   167    2
   175   180   166    2
   176   181   133    1
   177   182   132    1
   178   183   131    1
   179   184   102    1
   180   185   103    1
   181   186   104    1
   182   187    11    1
   183   188    60    1
   184   189    60    1
   185   190    11    1
   186   191    60    1
   187   192    60    1
   188    13    23    1
   189    20    38   un
   190    24    28    1
   191    29    31    1
   192    39    51    1
   193    42    47    1
   194    45    52    1
   195    48    57    1
   196    64    90    1
   197    65    91    1
   198    66    92    1
   199    81   131   un
   200    82   132   un
   201    83   133   un
   202    84   110    1
   203    93   105    1
   204    94   106    1
   205    95   107    1
   206   108   111    1
   207   108   112    1
   208   119   171    1
   209   123   185    2
   210   124   186    2
   211   134   166    1
   212   135   167    1
   213   136   168    1
   214   143   154    1
   215   144   155    1
   216   145   156    1
   217   152   169    1
   218   152   170    1
   219   157   186    1
   220   158   185    1
   221   159   184    1
   222   193   195    1
   223   194   195    1
   224   195   212    1
   225   196   193    1
   226   197   193    1
   227   198   193    1
   228   199   194    1
   229   200   193    1
   230   201   194    1
   231   202   194    1
   232   203   194    1
   233   204   193    1
   234   205   200    1
   235   206   205    1
   236   207   205    1
   237   208   194    1
   238   209   208    1
   239   210   209    1
   240   211   209    1
   241   212   205    1
   242   213   212    1
   243   214   219    2
   244   215   200    1
   245   216   215    1
   246   217   215    1
   247   218   204   un
   248   219   197    1
   249   220   229    2
   250   221   228    2
   251   222   208    1
   252   223   222    1
   253   224   222    1
   254   225   208    1
   255   226   225    1
   256   227   225    1
   257   228   196    1
   258   229   199    1
   259   230   200    1
   260   231   230    1
   261   232   230    1
   262   233   239    2
   263   234   218    1
   264   235   234    1
   265   236   237    1
   266   238   203   un
   267   239   201    1
   268   240   198    1
   269   241   202    1
   270   242   240    1
   271   243   240    1
   272   244   240    1
   273   245   241    1
   274   246   240    1
   275   247   241    1
   276   248   238   un
   277   249   218   un
   278   250   246    1
   279   251   250    1
   280   252   250    1
   281   253   241    1
   282   254   253    1
   283   255   254    1
   284   256   254    1
   285   257   242    1
   286   258   257    1
   287   259   263    2
   288   260   246    1
   289   261   260    1
   290   262   260    1
   291   263   244    1
   292   264   273    2
   293   265   272    2
   294   266   253    1
   295   267   266    1
   296   268   266    1
   297   269   253    1
   298   270   269    1
   299   271   269    1
   300   272   243    1
   301   273   245    1
   302   274   246    1
   303   275   274    1
   304   276   274    1
   305   277   280    2
   306   278   234    1
   307   279   236    1
   308   280   247    1
   309   209   212    1
   310   215   219    1
   311   222   239    1
   312   225   229    1
   313   228   230    1
   314   236   238    1
   315   240   249    1
   316   241   242    1
   317   241   248    1
   318   250   257    1
   319   254   257    1
   320   260   263    1
   321   266   280    1
   322   269   273    1
   323   272   274    1
@<TRIPOS>SUBSTRUCTURE
     1 RES1        1 GROUP             0 ****  ****    0  
     2 RES2       11 GROUP             0 ****  ****    0  
     3 RES3      193 GROUP             0 ****  ****    0  
     4 RES4      281 GROUP             0 ****  ****    0  
     5 RES5      282 GROUP             0 ****  ****    0  
     6 RES6      283 GROUP             0 ****  ****    0  
     7 RES7      284 GROUP             0 ****  ****    0  
@<TRIPOS>CRYSIN
   27.2490   19.2890   19.3620   90.0000   97.7990   90.0000    12     1
