@<TRIPOS>MOLECULE
DEDTFE10
   121   126     2     0     0
SMALL
USER_CHARGES
****
Generated from the CSD

@<TRIPOS>ATOM
     1 Fe1     -0.7932   2.8726   6.0250   Fe        1 RES1  -2.0000
     2 S1      -0.6642   1.5563   7.8925   S.3       1 RES1   0.0000
     3 S2       1.4536   2.4478   6.3173   S.3       1 RES1   0.0000
     4 S3      -1.0035   4.7228   7.3770   S.3       1 RES1   0.0000
     5 O1       0.4650  -0.1650  10.0425   O.2       1 RES1   0.0000
     6 O2       2.6246  -0.7882  10.0160   O.3       1 RES1   0.0000
     7 O3       4.1818   1.5979   8.3362   O.2       1 RES1   0.0000
     8 O4       3.6910  -0.2900   7.3168   O.3       1 RES1   0.0000
     9 C1       1.5686  -0.0910   9.5436   C.2       1 RES1   0.0000
    10 C2       1.9608   0.7604   8.4374   C.2       1 RES1   0.0000
    11 C3       3.3910   0.7650   8.0277   C.2       1 RES1   0.0000
    12 C4       1.0608   1.4884   7.7096   C.2       1 RES1   0.0000
    13 C5       2.3875  -1.6966  11.1053   C.3       1 RES1   0.0000
    14 C6       3.6854  -2.0036  11.7295   C.3       1 RES1   0.0000
    15 C7       5.0660  -0.4550   6.8613   C.3       1 RES1   0.0000
    16 C8       5.1609  -1.7259   6.1552   C.3       1 RES1   0.0000
    17 O5      -0.2547   9.0292   7.3939   O.2       1 RES1   0.0000
    18 O6      -1.4123   7.3912   8.2591   O.3       1 RES1   0.0000
    19 C9      -0.7763   7.9588   7.2758   C.2       1 RES1   0.0000
    20 C10     -0.7932   7.1598   6.0250   C.2       1 RES1   0.0000
    21 C11     -0.7932   5.7963   6.0250   C.2       1 RES1   0.0000
    22 C12     -1.2424   7.9665   9.6111   C.3       1 RES1   0.0000
    23 C13     -2.4453   8.0513  10.1678   C.3       1 RES1   0.0000
    24 H1       1.9891  -2.4956  10.7775   H         1 RES1   0.0000
    25 H2       1.8106  -1.2925  11.7415   H         1 RES1   0.0000
    26 H3       3.5536  -2.6036  12.4549   H         1 RES1   0.0000
    27 H4       4.0790  -1.2000  12.0500   H         1 RES1   0.0000
    28 H5       4.2575  -2.4031  11.0860   H         1 RES1   0.0000
    29 H6       5.6538  -0.4566   7.6084   H         1 RES1   0.0000
    30 H7       5.2995   0.2560   6.2781   H         1 RES1   0.0000
    31 H8       6.0514  -1.8540   5.8515   H         1 RES1   0.0000
    32 H9       4.5686  -1.7198   5.4129   H         1 RES1   0.0000
    33 H10      4.9226  -2.4324   6.7456   H         1 RES1   0.0000
    34 H11     -0.8557   8.8318   9.5484   H         1 RES1   0.0000
    35 H12     -0.6843   7.4035  10.1341   H         1 RES1   0.0000
    36 H13     -2.3671   8.4169  11.0402   H         1 RES1   0.0000
    37 H14     -2.8314   7.1830  10.2256   H         1 RES1   0.0000
    38 H15     -3.0047   8.6097   9.6400   H         1 RES1   0.0000
    39 S1B     -0.9222   1.5563   4.1575   S.3       1 RES1   0.0000
    40 S2B     -3.0400   2.4478   5.7327   S.3       1 RES1   0.0000
    41 S3B     -0.5829   4.7228   4.6730   S.3       1 RES1   0.0000
    42 C9B     -0.8101   7.9588   4.7742   C.2       1 RES1   0.0000
    43 C4B     -2.6472   1.4884   4.3404   C.2       1 RES1   0.0000
    44 O5B     -1.3317   9.0292   4.6561   O.2       1 RES1   0.0000
    45 O6B     -0.1741   7.3912   3.7909   O.3       1 RES1   0.0000
    46 C2B     -3.5472   0.7604   3.6126   C.2       1 RES1   0.0000
    47 C12B    -0.3440   7.9665   2.4389   C.3       1 RES1   0.0000
    48 C1B     -3.1550  -0.0910   2.5064   C.2       1 RES1   0.0000
    49 C3B     -4.9774   0.7650   4.0223   C.2       1 RES1   0.0000
    50 C13B     0.8589   8.0513   1.8822   C.3       1 RES1   0.0000
    51 H11B    -0.7307   8.8318   2.5016   H         1 RES1   0.0000
    52 H12B    -0.9021   7.4035   1.9160   H         1 RES1   0.0000
    53 O1B     -2.0515  -0.1650   2.0075   O.2       1 RES1   0.0000
    54 O2B     -4.2110  -0.7882   2.0340   O.3       1 RES1   0.0000
    55 O3B     -5.7682   1.5979   3.7138   O.2       1 RES1   0.0000
    56 O4B     -5.2774  -0.2900   4.7332   O.3       1 RES1   0.0000
    57 H13B     0.7807   8.4169   1.0098   H         1 RES1   0.0000
    58 H14B     1.2450   7.1830   1.8244   H         1 RES1   0.0000
    59 H15B     1.4183   8.6097   2.4100   H         1 RES1   0.0000
    60 C5B     -3.9739  -1.6966   0.9447   C.3       1 RES1   0.0000
    61 C7B     -6.6524  -0.4550   5.1887   C.3       1 RES1   0.0000
    62 C6B     -5.2718  -2.0036   0.3205   C.3       1 RES1   0.0000
    63 H1B     -3.5756  -2.4956   1.2725   H         1 RES1   0.0000
    64 H2B     -3.3970  -1.2925   0.3085   H         1 RES1   0.0000
    65 C8B     -6.7473  -1.7259   5.8949   C.3       1 RES1   0.0000
    66 H6B     -7.2402  -0.4566   4.4416   H         1 RES1   0.0000
    67 H7B     -6.8859   0.2560   5.7720   H         1 RES1   0.0000
    68 H3B     -5.1400  -2.6036  -0.4049   H         1 RES1   0.0000
    69 H4B     -5.6654  -1.2000   0.0000   H         1 RES1   0.0000
    70 H5B     -5.8439  -2.4031   0.9640   H         1 RES1   0.0000
    71 H8B     -7.6378  -1.8540   6.1985   H         1 RES1   0.0000
    72 H9B     -6.1550  -1.7198   6.6372   H         1 RES1   0.0000
    73 H10B    -6.5090  -2.4324   5.3044   H         1 RES1   0.0000
    74 P1       4.1581   1.0411  -9.5475   P.3       2 RES2   1.0000
    75 C14      2.7088   0.8159 -10.6305   C.3       2 RES2   0.0000
    76 C15      2.0546   2.0992 -11.1053   C.ar      2 RES2   0.0000
    77 C16      2.1982   2.5203 -12.3995   C.ar      2 RES2   0.0000
    78 C17      1.5500   3.6647 -12.8477   C.ar      2 RES2   0.0000
    79 C18      0.7942   4.3758 -11.9560   C.ar      2 RES2   0.0000
    80 C19      0.6133   3.9809 -10.6980   C.ar      2 RES2   0.0000
    81 C20      1.2491   2.8010 -10.2425   C.ar      2 RES2   0.0000
    82 C21      5.5003   1.8941 -10.3606   C.ar      2 RES2   0.0000
    83 C22      5.7171   1.6612 -11.7030   C.ar      2 RES2   0.0000
    84 C23      6.8754   2.1038 -12.3272   C.ar      2 RES2   0.0000
    85 C24      7.8328   2.7578 -11.5849   C.ar      2 RES2   0.0000
    86 C25      7.6220   3.0216 -10.2594   C.ar      2 RES2   0.0000
    87 C26      6.4576   2.5928  -9.6328   C.ar      2 RES2   0.0000
    88 C27      3.6372   1.9295  -8.0856   C.ar      2 RES2   0.0000
    89 C28      3.6599   3.3239  -8.0542   C.ar      2 RES2   0.0000
    90 C29      3.1103   3.9732  -6.9721   C.ar      2 RES2   0.0000
    91 C30      2.5390   3.2822  -5.9431   C.ar      2 RES2   0.0000
    92 C31      2.5454   1.9079  -5.9624   C.ar      2 RES2   0.0000
    93 C32      3.0790   1.2324  -7.0252   C.ar      2 RES2   0.0000
    94 C33      4.7698  -0.6015  -9.1387   C.ar      2 RES2   0.0000
    95 C34      3.9768  -1.7367  -9.2424   C.ar      2 RES2   0.0000
    96 C35      4.4947  -2.9737  -8.9363   C.ar      2 RES2   0.0000
    97 C36      5.7695  -3.1079  -8.5145   C.ar      2 RES2   0.0000
    98 C37      6.5727  -2.0067  -8.4013   C.ar      2 RES2   0.0000
    99 C38      6.0822  -0.7558  -8.7266   C.ar      2 RES2   0.0000
   100 H16      2.0592   0.3085 -10.1533   H         2 RES2   0.0000
   101 H17      2.9875   0.3270 -11.3969   H         2 RES2   0.0000
   102 H18      2.7429   2.0205 -12.9947   H         2 RES2   0.0000
   103 H19      1.6454   3.9563 -13.7467   H         2 RES2   0.0000
   104 H20      0.3621   5.1701 -12.2452   H         2 RES2   0.0000
   105 H21      0.0628   4.4915 -10.1172   H         2 RES2   0.0000
   106 H22      1.1371   2.4987  -9.3484   H         2 RES2   0.0000
   107 H23      5.0609   1.1938 -12.2067   H         2 RES2   0.0000
   108 H24      7.0164   1.9434 -13.2526   H         2 RES2   0.0000
   109 H25      8.6335   3.0462 -12.0042   H         2 RES2   0.0000
   110 H26      8.2814   3.4920  -9.7653   H         2 RES2   0.0000
   111 H27      6.3151   2.7686  -8.7098   H         2 RES2   0.0000
   112 H28      4.0449   3.8144  -8.7724   H         2 RES2   0.0000
   113 H29      3.1189   4.9218  -6.9505   H         2 RES2   0.0000
   114 H30      2.1574   3.7480  -5.2080   H         2 RES2   0.0000
   115 H31      2.1654   1.4221  -5.2393   H         2 RES2   0.0000
   116 H32      3.0676   0.2838  -7.0396   H         2 RES2   0.0000
   117 H33      3.0761  -1.6488  -9.5292   H         2 RES2   0.0000
   118 H34      3.9486  -3.7480  -9.0134   H         2 RES2   0.0000
   119 H35      6.1098  -3.9671  -8.2976   H         2 RES2   0.0000
   120 H36      7.4683  -2.1069  -8.1048   H         2 RES2   0.0000
   121 H37      6.6410   0.0108  -8.6591   H         2 RES2   0.0000
@<TRIPOS>BOND
     1     1     2    1
     2     2    12    1
     3     3     1    1
     4     4     1    1
     5     5     9    2
     6     6     9    1
     7     7    11    2
     8     8    11    1
     9     9    10    1
    10    10    11    1
    11    12     3    1
    12    13     6    1
    13    14    13    1
    14    15     8    1
    15    16    15    1
    16    17    19    2
    17    18    19    1
    18    19    20    1
    19    20    21    2
    20    21     4    1
    21    22    18    1
    22    23    22    1
    23    24    13    1
    24    25    13    1
    25    26    14    1
    26    27    14    1
    27    28    14    1
    28    29    15    1
    29    30    15    1
    30    31    16    1
    31    32    16    1
    32    33    16    1
    33    34    22    1
    34    35    22    1
    35    36    23    1
    36    37    23    1
    37    38    23    1
    38    39     1    1
    39    40     1    1
    40    41     1    1
    41    42    20    1
    42    43    39    1
    43    44    42    2
    44    45    42    1
    45    46    43    2
    46    47    45    1
    47    48    46    1
    48    49    46    1
    49    50    47    1
    50    51    47    1
    51    52    47    1
    52    53    48    2
    53    54    48    1
    54    55    49    2
    55    56    49    1
    56    57    50    1
    57    58    50    1
    58    59    50    1
    59    60    54    1
    60    61    56    1
    61    62    60    1
    62    63    60    1
    63    64    60    1
    64    65    61    1
    65    66    61    1
    66    67    61    1
    67    68    62    1
    68    69    62    1
    69    70    62    1
    70    71    65    1
    71    72    65    1
    72    73    65    1
    73    10    12    2
    74    21    41    1
    75    40    43    1
    76    74    75    1
    77    75    76    1
    78    76    77   ar
    79    77    78   ar
    80    78    79   ar
    81    79    80   ar
    82    80    81   ar
    83    81    76   ar
    84    82    74    1
    85    83    82   ar
    86    84    83   ar
    87    85    84   ar
    88    86    85   ar
    89    87    82   ar
    90    88    74    1
    91    89    88   ar
    92    90    89   ar
    93    91    90   ar
    94    92    91   ar
    95    93    88   ar
    96    94    74    1
    97    95    94   ar
    98    96    95   ar
    99    97    96   ar
   100    98    97   ar
   101    99    94   ar
   102   100    75    1
   103   101    75    1
   104   102    77    1
   105   103    78    1
   106   104    79    1
   107   105    80    1
   108   106    81    1
   109   107    83    1
   110   108    84    1
   111   109    85    1
   112   110    86    1
   113   111    87    1
   114   112    89    1
   115   113    90    1
   116   114    91    1
   117   115    92    1
   118   116    93    1
   119   117    95    1
   120   118    96    1
   121   119    97    1
   122   120    98    1
   123   121    99    1
   124    86    87   ar
   125    92    93   ar
   126    98    99   ar
@<TRIPOS>SUBSTRUCTURE
     1 RES1        1 GROUP             0 ****  ****    0  
     2 RES2       74 GROUP             0 ****  ****    0  
@<TRIPOS>CRYSIN
   19.1140   15.4240   24.3080   90.0000   97.5000   90.0000    15     1
