@<TRIPOS>MOLECULE
DEFNAH
   104   114     2     0     0
SMALL
USER_CHARGES
****
Generated from the CSD

@<TRIPOS>ATOM
     1 Fe1     -6.1378   7.3506  24.9935   Fe        1 RES1   1.0000
     2 O1      -6.7549   6.2830  23.3561   O.co2     1 RES1   0.0000
     3 O2      -7.9063   6.3354  21.4180   O.co2     1 RES1   0.0000
     4 O3      -7.2063   8.7897  23.8575   O.3       1 RES1   0.0000
     5 H1      -6.8782   9.5411  23.6494   H         1 RES1   0.0000
     6 N1      -7.6969   7.3725  26.4664   N.ar      1 RES1   0.0000
     7 N2      -5.1989   8.2935  26.8134   N.3       1 RES1   0.0000
     8 N3      -4.9406   5.7201  25.7273   N.ar      1 RES1   0.0000
     9 N4      -4.2299   8.1402  24.2698   N.ar      1 RES1   0.0000
    10 C1      -4.6729   4.6001  25.0475   C.ar      1 RES1   0.0000
    11 H2      -5.2403   4.3553  24.3529   H         1 RES1   0.0000
    12 C2      -3.5901   3.7925  25.3295   C.ar      1 RES1   0.0000
    13 H3      -3.4332   3.0153  24.8397   H         1 RES1   0.0000
    14 C3      -2.7529   4.1629  26.3417   C.ar      1 RES1   0.0000
    15 H4      -1.9988   3.6563  26.5406   H         1 RES1   0.0000
    16 C4      -3.0397   5.2915  27.0631   C.ar      1 RES1   0.0000
    17 H5      -2.4923   5.5439  27.7696   H         1 RES1   0.0000
    18 C5      -4.1386   6.0487  26.7395   C.ar      1 RES1   0.0000
    19 C6      -4.5642   7.2144  27.5915   C.3       1 RES1   0.0000
    20 H6      -5.1883   6.9020  28.2653   H         1 RES1   0.0000
    21 H7      -3.7881   7.5706  28.0516   H         1 RES1   0.0000
    22 C7      -6.2444   8.9583  27.5974   C.3       1 RES1   0.0000
    23 H8      -6.4063   9.8459  27.2412   H         1 RES1   0.0000
    24 H9      -5.9548   9.0488  28.5176   H         1 RES1   0.0000
    25 C8      -7.5302   8.1421  27.5410   C.ar      1 RES1   0.0000
    26 C9      -8.5052   8.2840  28.5176   C.ar      1 RES1   0.0000
    27 H10     -8.3730   8.8392  29.2508   H         1 RES1   0.0000
    28 C10     -9.6725   7.5782  28.3662   C.ar      1 RES1   0.0000
    29 H11    -10.3404   7.6554  29.0074   H         1 RES1   0.0000
    30 C11     -9.8667   6.7658  27.2857   C.ar      1 RES1   0.0000
    31 H12    -10.6527   6.2801  27.1818   H         1 RES1   0.0000
    32 C12     -8.8360   6.6944  26.3507   C.ar      1 RES1   0.0000
    33 H13     -8.9482   6.1468  25.6056   H         1 RES1   0.0000
    34 C13     -4.2366   9.3173  26.3714   C.3       1 RES1   0.0000
    35 H14     -3.5829   9.4669  27.0720   H         1 RES1   0.0000
    36 H15     -4.7054  10.1526  26.2171   H         1 RES1   0.0000
    37 C14     -3.5314   8.9068  25.1188   C.ar      1 RES1   0.0000
    38 C15     -2.2572   9.3364  24.8219   C.ar      1 RES1   0.0000
    39 H16     -1.7772   9.8459  25.4364   H         1 RES1   0.0000
    40 C16     -1.7014   8.9992  23.6049   C.ar      1 RES1   0.0000
    41 H17     -0.8510   9.2992  23.3793   H         1 RES1   0.0000
    42 C17     -2.4050   8.2316  22.7440   C.ar      1 RES1   0.0000
    43 H18     -2.0462   7.9887  21.9218   H         1 RES1   0.0000
    44 C18     -3.6653   7.8163  23.1121   C.ar      1 RES1   0.0000
    45 H19     -4.1447   7.2840  22.5184   H         1 RES1   0.0000
    46 C19     -7.5024   6.8173  22.4947   C.2       1 RES1   0.0000
    47 C20     -7.9991   8.2164  22.8123   C.3       1 RES1   0.0000
    48 H20     -7.8897   8.7678  22.0079   H         1 RES1   0.0000
    49 C21     -9.4689   8.2668  23.2249   C.ar      1 RES1   0.0000
    50 C22     -9.9730   9.4240  23.7948   C.ar      1 RES1   0.0000
    51 H21     -9.4216  10.1669  23.8839   H         1 RES1   0.0000
    52 C23    -11.2723   9.4907  24.2253   C.ar      1 RES1   0.0000
    53 H22    -11.5924  10.2821  24.5963   H         1 RES1   0.0000
    54 C24    -12.1127   8.4040  24.1214   C.ar      1 RES1   0.0000
    55 H23    -12.9899   8.4506  24.4212   H         1 RES1   0.0000
    56 C25    -11.6241   7.2573  23.5633   C.ar      1 RES1   0.0000
    57 H24    -12.1749   6.5106  23.4950   H         1 RES1   0.0000
    58 C26    -10.3171   7.1906  23.0952   C.ar      1 RES1   0.0000
    59 H25    -10.0113   6.4116  22.6906   H         1 RES1   0.0000
    60 C27      1.8557   4.2391  28.3781   C.ar      2 RES2   0.0000
    61 C28      2.9207   4.3734  29.2567   C.ar      2 RES2   0.0000
    62 H26      3.7049   3.9134  29.0638   H         2 RES2   0.0000
    63 C29      2.8895   5.1487  30.4085   C.ar      2 RES2   0.0000
    64 H27      3.6410   5.2039  30.9547   H         2 RES2   0.0000
    65 C30      1.7434   5.8363  30.7409   C.ar      2 RES2   0.0000
    66 H28      1.7120   6.3544  31.5127   H         2 RES2   0.0000
    67 C31      0.6466   5.7496  29.9157   C.ar      2 RES2   0.0000
    68 H29     -0.1320   6.2116  30.1235   H         2 RES2   0.0000
    69 C32      0.7092   4.9658  28.7669   C.ar      2 RES2   0.0000
    70 H30     -0.0462   4.9191  28.2237   H         2 RES2   0.0000
    71 C33      0.9441   3.7658  25.8520   C.ar      2 RES2   0.0000
    72 C34      0.7078   5.1211  25.5996   C.ar      2 RES2   0.0000
    73 H31      1.0672   5.7477  26.1874   H         2 RES2   0.0000
    74 C35     -0.0425   5.5830  24.5132   C.ar      2 RES2   0.0000
    75 H32     -0.1841   6.4935  24.3915   H         2 RES2   0.0000
    76 C36     -0.5633   4.6791  23.6316   C.ar      2 RES2   0.0000
    77 H33     -1.0790   4.9677  22.9132   H         2 RES2   0.0000
    78 C37     -0.3207   3.3391  23.8186   C.ar      2 RES2   0.0000
    79 H34     -0.6471   2.7239  23.2012   H         2 RES2   0.0000
    80 C38      0.4002   2.8962  24.9050   C.ar      2 RES2   0.0000
    81 H35      0.5290   1.9819  25.0119   H         2 RES2   0.0000
    82 C39      1.1635   1.7943  27.5825   C.ar      2 RES2   0.0000
    83 C40     -0.1025   1.8258  28.1703   C.ar      2 RES2   0.0000
    84 H36     -0.4894   2.6534  28.3514   H         2 RES2   0.0000
    85 C41     -0.8115   0.6781  28.4998   C.ar      2 RES2   0.0000
    86 H37     -1.6686   0.7457  28.8560   H         2 RES2   0.0000
    87 C42     -0.2471  -0.5600  28.3009   C.ar      2 RES2   0.0000
    88 H38     -0.7090  -1.3343  28.5235   H         2 RES2   0.0000
    89 C43      1.0057  -0.6286  27.7636   C.ar      2 RES2   0.0000
    90 H39      1.4028  -1.4581  27.6330   H         2 RES2   0.0000
    91 C44      1.6978   0.5362  27.4133   C.ar      2 RES2   0.0000
    92 H40      2.5509   0.4572  27.0512   H         2 RES2   0.0000
    93 C45      3.3896   3.0229  26.5644   C.ar      2 RES2   0.0000
    94 C46      4.3754   2.2572  27.1907   C.ar      2 RES2   0.0000
    95 H41      4.1414   1.7953  27.9625   H         2 RES2   0.0000
    96 C47      5.6833   2.1400  26.7336   C.ar      2 RES2   0.0000
    97 H42      6.2932   1.6229  27.2085   H         2 RES2   0.0000
    98 C48      6.0747   2.7905  25.5848   C.ar      2 RES2   0.0000
    99 H43      6.9439   2.7134  25.2642   H         2 RES2   0.0000
   100 C49      5.1519   3.5486  24.9317   C.ar      2 RES2   0.0000
   101 H44      5.3947   4.0048  24.1600   H         2 RES2   0.0000
   102 C50      3.8457   3.6486  25.4067   C.ar      2 RES2   0.0000
   103 H45      3.2425   4.1648  24.9199   H         2 RES2   0.0000
   104 B1       1.8662   3.2144  27.0987   B         2 RES2  -1.0000
@<TRIPOS>BOND
     1     1     2    1
     2     2    46    1
     3     3    46    2
     4     4     1    1
     5     5     4    1
     6     6     1    1
     7     7     1    1
     8     8     1    1
     9     9     1    1
    10    10     8   ar
    11    11    10    1
    12    12    10   ar
    13    13    12    1
    14    14    12   ar
    15    15    14    1
    16    16    14   ar
    17    17    16    1
    18    18     8   ar
    19    19     7    1
    20    20    19    1
    21    21    19    1
    22    22     7    1
    23    23    22    1
    24    24    22    1
    25    25     6   ar
    26    26    25   ar
    27    27    26    1
    28    28    26   ar
    29    29    28    1
    30    30    28   ar
    31    31    30    1
    32    32     6   ar
    33    33    32    1
    34    34     7    1
    35    35    34    1
    36    36    34    1
    37    37     9   ar
    38    38    37   ar
    39    39    38    1
    40    40    38   ar
    41    41    40    1
    42    42    40   ar
    43    43    42    1
    44    44     9   ar
    45    45    44    1
    46    46    47    1
    47    47     4    1
    48    48    47    1
    49    49    47    1
    50    50    49   ar
    51    51    50    1
    52    52    50   ar
    53    53    52    1
    54    54    52   ar
    55    55    54    1
    56    56    54   ar
    57    57    56    1
    58    58    49   ar
    59    59    58    1
    60    16    18   ar
    61    18    19    1
    62    22    25    1
    63    30    32   ar
    64    34    37    1
    65    42    44   ar
    66    56    58   ar
    67    60    61   ar
    68    61    62    1
    69    63    61   ar
    70    64    63    1
    71    65    63   ar
    72    66    65    1
    73    67    65   ar
    74    68    67    1
    75    69    60   ar
    76    70    69    1
    77    71    72   ar
    78    72    73    1
    79    74    72   ar
    80    75    74    1
    81    76    74   ar
    82    77    76    1
    83    78    76   ar
    84    79    78    1
    85    80    71   ar
    86    81    80    1
    87    82    83   ar
    88    83    84    1
    89    85    83   ar
    90    86    85    1
    91    87    85   ar
    92    88    87    1
    93    89    87   ar
    94    90    89    1
    95    91    82   ar
    96    92    91    1
    97    93    94   ar
    98    94    95    1
    99    96    94   ar
   100    97    96    1
   101    98    96   ar
   102    99    98    1
   103   100    98   ar
   104   101   100    1
   105   102    93   ar
   106   103   102    1
   107   104    60    1
   108    67    69   ar
   109    71   104    1
   110    78    80   ar
   111    82   104    1
   112    89    91   ar
   113    93   104    1
   114   100   102   ar
@<TRIPOS>SUBSTRUCTURE
     1 RES1        1 GROUP             0 ****  ****    0  
     2 RES2       60 GROUP             0 ****  ****    0  
@<TRIPOS>CRYSIN
   14.6830    9.5240   31.1700   90.0000  107.7620   90.0000    14     1
