@<TRIPOS>MOLECULE
DEGREN
   131   139     3     0     0
SMALL
USER_CHARGES
****
Generated from the CSD

@<TRIPOS>ATOM
     1 Fe1     -0.0970   4.8027  11.4651   Fe        1 RES1   1.0000
     2 P1       0.5413   5.8550  13.3562   P.3       1 RES1   0.0000
     3 P2      -1.0176   2.9711  12.4536   P.3       1 RES1   0.0000
     4 P3       0.8126   6.6314  10.4640   P.3       1 RES1   0.0000
     5 P4      -1.2001   4.0626   9.6788   P.3       1 RES1   0.0000
     6 C1      -3.1916   3.9693  15.7407   C.ar      1 RES1   0.0000
     7 C2      -0.0425   7.4619  15.5513   C.ar      1 RES1   0.0000
     8 C3      -0.2639   0.2734  11.8444   C.ar      1 RES1   0.0000
     9 C4      -2.7696   3.0971  16.7177   C.ar      1 RES1   0.0000
    10 N1       1.5187   3.9034  11.1247   N.1       1 RES1   0.0000
    11 C5      -1.6793   2.9700  14.1746   C.ar      1 RES1   0.0000
    12 C6       2.0970   0.4557  13.2420   C.ar      1 RES1   0.0000
    13 C7       1.2527   1.5382  13.1636   C.ar      1 RES1   0.0000
    14 C8       3.0357   3.2893  16.2123   C.ar      1 RES1   0.0000
    15 C9       0.5858  -0.8010  11.9202   C.ar      1 RES1   0.0000
    16 C10      0.0524   1.4788  12.4753   C.ar      1 RES1   0.0000
    17 C11     -0.5850   6.8012  14.4372   C.ar      1 RES1   0.0000
    18 C12     -2.7498   3.2783  10.2679   C.3       1 RES1   0.0000
    19 C13      2.8484   4.6015  14.2491   C.ar      1 RES1   0.0000
    20 C14      1.6143   6.4965   8.8284   C.ar      1 RES1   0.0000
    21 C15     -0.7962   8.3302  16.2750   C.ar      1 RES1   0.0000
    22 C16      3.6304   3.8055  15.0589   C.ar      1 RES1   0.0000
    23 C17     -1.2765   2.0719  15.1543   C.ar      1 RES1   0.0000
    24 C18     -2.6430   3.9066  14.4672   C.ar      1 RES1   0.0000
    25 C19     -1.9285   5.1829   8.4157   C.ar      1 RES1   0.0000
    26 C20      0.9823   0.9007   7.1069   C.ar      1 RES1   0.0000
    27 C21      2.2103   7.1020  11.5192   C.3       1 RES1   0.0000
    28 C22     -1.9444   9.6046  11.0267   C.ar      1 RES1   0.0000
    29 C23     -0.0773   8.2152  10.3619   C.ar      1 RES1   0.0000
    30 C24     -0.3635   2.7878   8.6626   C.ar      1 RES1   0.0000
    31 C25     -2.5620   2.4919  11.5414   C.3       1 RES1   0.0000
    32 C26      0.9816   4.3701  15.7264   C.ar      1 RES1   0.0000
    33 C27      1.5290   4.8867  14.5495   C.ar      1 RES1   0.0000
    34 C28      1.7374   3.5670  16.5506   C.ar      1 RES1   0.0000
    35 C29     -1.2866   8.3732  10.9967   C.ar      1 RES1   0.0000
    36 C30      0.4589   9.3294   9.7075   C.ar      1 RES1   0.0000
    37 C31     -1.8342   2.1324  16.4226   C.ar      1 RES1   0.0000
    38 C32     -1.3855  10.6833  10.4011   C.ar      1 RES1   0.0000
    39 C33     -1.8981   7.0465  14.1172   C.ar      1 RES1   0.0000
    40 C34      2.8842   5.9664   8.6900   C.ar      1 RES1   0.0000
    41 C35     -0.8294   1.4816   8.5750   C.ar      1 RES1   0.0000
    42 C36     -0.1309   0.5482   7.8083   C.ar      1 RES1   0.0000
    43 C37      1.6963   7.2504  12.9364   C.3       1 RES1   0.0000
    44 C38      1.4300   2.1893   7.1683   C.ar      1 RES1   0.0000
    45 C39     -1.6884   5.0622   7.0468   C.ar      1 RES1   0.0000
    46 C40     -2.6644   7.9350  14.8564   C.ar      1 RES1   0.0000
    47 C41     -0.2042  10.5444   9.7402   C.ar      1 RES1   0.0000
    48 C42      3.5477   2.4570  10.4246   C.ar      1 RES1   0.0000
    49 C43      3.3056   1.2556   9.7898   C.ar      1 RES1   0.0000
    50 C44      2.4539   3.2687  10.8530   C.1       1 RES1   0.0000
    51 C45      0.7771   3.1220   7.9533   C.ar      1 RES1   0.0000
    52 C46      1.7740  -0.7298  12.6137   C.ar      1 RES1   0.0000
    53 C47     -3.1488   6.8599   6.5779   C.ar      1 RES1   0.0000
    54 C48     -2.0944   8.5722  15.9262   C.ar      1 RES1   0.0000
    55 C49     -2.8171   6.1586   8.8415   C.ar      1 RES1   0.0000
    56 C50      0.8985   6.8670   7.6751   C.ar      1 RES1   0.0000
    57 C51     -3.4378   6.9916   7.9337   C.ar      1 RES1   0.0000
    58 C52      1.5169   6.6392   6.4172   C.ar      1 RES1   0.0000
    59 C53      5.6339   1.0174   9.4789   C.ar      1 RES1   0.0000
    60 N2       6.7671   0.2485   8.9042   N.pl3     1 RES1   0.0000
    61 C54      4.3708   0.5233   9.2856   C.ar      1 RES1   0.0000
    62 C55      4.8440   2.8978  10.6284   C.ar      1 RES1   0.0000
    63 C56      5.9138   2.1715  10.1490   C.ar      1 RES1   0.0000
    64 C57      2.7136   6.1301   6.2762   C.ar      1 RES1   0.0000
    65 C58     -2.3034   5.9166   6.1495   C.ar      1 RES1   0.0000
    66 C59      3.4380   5.7991   7.4073   C.ar      1 RES1   0.0000
    67 O1       7.9025   0.5831   9.2190   O.2       1 RES1   0.0000
    68 O2       6.5175  -0.6540   8.1349   O.2       1 RES1   0.0000
    69 H1       2.9225   0.6052  13.6495   H         1 RES1   0.0000
    70 H2      -1.3676   5.4680  11.6903   H         1 RES1   0.0000
    71 H3      -3.4490   2.5987  12.1213   H         1 RES1   0.0000
    72 H4      -2.3672   6.6570  13.4144   H         1 RES1   0.0000
    73 H5      -0.4277   8.7253  16.9672   H         1 RES1   0.0000
    74 H6      -3.0756   6.2120   9.8878   H         1 RES1   0.0000
    75 H7      -3.1598   3.0758  17.6334   H         1 RES1   0.0000
    76 H8       0.8421   7.2658  15.7917   H         1 RES1   0.0000
    77 H9       2.9458   6.3722  11.4944   H         1 RES1   0.0000
    78 H10     -2.5455   9.2095  16.4970   H         1 RES1   0.0000
    79 H11      2.6525   7.8781  11.2331   H         1 RES1   0.0000
    80 H12     -2.5242   1.5343  11.4421   H         1 RES1   0.0000
    81 H13      0.9232   4.0476   7.9154   H         1 RES1   0.0000
    82 H14     -3.0046   4.5246  13.7932   H         1 RES1   0.0000
    83 H15      3.2710   5.0195  13.5059   H         1 RES1   0.0000
    84 H16      2.2295   2.4741   6.5962   H         1 RES1   0.0000
    85 H17      0.0921   4.4926  15.9484   H         1 RES1   0.0000
    86 H18     -0.6611   1.4133  14.9296   H         1 RES1   0.0000
    87 H19     -1.6940   7.6787  11.4029   H         1 RES1   0.0000
    88 H20      2.4401   7.2551  13.6234   H         1 RES1   0.0000
    89 H21      4.2458  -0.2990   8.8689   H         1 RES1   0.0000
    90 H22     -3.5612   7.3014   6.0737   H         1 RES1   0.0000
    91 H23     -0.9900   4.3929   6.8182   H         1 RES1   0.0000
    92 H24      1.1868   8.0489  12.9834   H         1 RES1   0.0000
    93 H25     -3.6105   8.1415  14.6553   H         1 RES1   0.0000
    94 H26      0.2409  11.2671   9.2347   H         1 RES1   0.0000
    95 H27      1.3526   9.2771   9.3783   H         1 RES1   0.0000
    96 H28      6.8663   2.4599  10.2143   H         1 RES1   0.0000
    97 H29     -3.8656   4.5816  15.8831   H         1 RES1   0.0000
    98 H30      2.4381   0.8971   9.6788   H         1 RES1   0.0000
    99 H31      1.2503   3.1327  17.3068   H         1 RES1   0.0000
   100 H32      2.4248  -1.5664  12.6699   H         1 RES1   0.0000
   101 H33     -3.1171   2.6664   9.6135   H         1 RES1   0.0000
   102 H34     -3.3133   4.0939  10.4886   H         1 RES1   0.0000
   103 H35     -1.6198   1.4952  17.0064   H         1 RES1   0.0000
   104 H36      1.4673   2.2712  13.5450   H         1 RES1   0.0000
   105 H37     -0.5216  -0.3560   7.8240   H         1 RES1   0.0000
   106 H38      4.2263   5.5534   7.1187   H         1 RES1   0.0000
   107 H39     -1.6448   1.2994   8.8689   H         1 RES1   0.0000
   108 H40      3.5098   2.7126  16.7060   H         1 RES1   0.0000
   109 H41     -1.1368   0.1780  11.4290   H         1 RES1   0.0000
   110 H42     -4.1006   7.5114   8.2550   H         1 RES1   0.0000
   111 H43      0.4395  -1.7799  11.4813   H         1 RES1   0.0000
   112 H44      3.4090   5.9237   9.4698   H         1 RES1   0.0000
   113 H45      4.9235   3.7023  11.0111   H         1 RES1   0.0000
   114 H46     -1.8765  11.5341  10.5539   H         1 RES1   0.0000
   115 H47      1.3631   0.3204   6.4786   H         1 RES1   0.0000
   116 H48     -2.0802   5.9094   5.2770   H         1 RES1   0.0000
   117 H49     -2.7479   9.6829  11.5858   H         1 RES1   0.0000
   118 H50      4.5870   3.5243  14.8904   H         1 RES1   0.0000
   119 H51      0.0368   7.2266   7.6934   H         1 RES1   0.0000
   120 H52      0.9681   6.9418   5.9300   H         1 RES1   0.0000
   121 H53      3.3951   5.8026   5.4468   H         1 RES1   0.0000
   122 P5      -5.7738   6.1291  12.3593   P.3       2 RES2  -1.0000
   123 F1      -5.1380   4.7610  12.0795   F         2 RES2   0.0000
   124 F2      -7.0635   5.4288  12.7731   F         2 RES2   0.0000
   125 F3      -6.2762   6.1547  10.8778   F         2 RES2   0.0000
   126 F4      -5.2690   6.1017  13.8638   F         2 RES2   0.0000
   127 F5      -4.4728   6.8101  11.9228   F         2 RES2   0.0000
   128 F6      -6.3891   7.5007  12.6059   F         2 RES2   0.0000
   129 Cl1     -6.2308   2.6956  18.1689   Cl        3 RES3   0.0000
   130 Cl2     -8.5375   2.9177  19.7389   Cl        3 RES3   0.0000
   131 C60     -7.0566   3.5492  19.4137   C.3       3 RES3   0.0000
@<TRIPOS>BOND
     1     1     2    1
     2     2    17    1
     3     3     1    1
     4     4     1    1
     5     5     1    1
     6     6     9   ar
     7     7    17   ar
     8     8    15   ar
     9     9    37   ar
    10    10     1    1
    11    11     3    1
    12    12    13   ar
    13    13    16   ar
    14    14    22   ar
    15    15    52   ar
    16    16     3    1
    17    17    39   ar
    18    18     5    1
    19    19    22   ar
    20    20     4    1
    21    21     7   ar
    22    22   118    1
    23    23    11   ar
    24    24     6   ar
    25    25     5    1
    26    26    42   ar
    27    27     4    1
    28    28    35   ar
    29    29     4    1
    30    30     5    1
    31    31     3    1
    32    32    33   ar
    33    33     2    1
    34    34    14   ar
    35    35    29   ar
    36    36    29   ar
    37    37    23   ar
    38    38    28   ar
    39    39    46   ar
    40    40    20   ar
    41    41    30   ar
    42    42    41   ar
    43    43     2    1
    44    44    26   ar
    45    45    25   ar
    46    46    54   ar
    47    47    36   ar
    48    48    49   ar
    49    49    61   ar
    50    50    10    3
    51    51    30   ar
    52    52    12   ar
    53    53    57   ar
    54    54    21   ar
    55    55    25   ar
    56    56    20   ar
    57    57    55   ar
    58    58    56   ar
    59    59    60    1
    60    60    67    2
    61    61    59   ar
    62    62    48   ar
    63    63    59   ar
    64    64    58   ar
    65    65    45   ar
    66    66    40   ar
    67    68    60    2
    68    69    12    1
    69    70     1    1
    70    71    31    1
    71    72    39    1
    72    73    21    1
    73    74    55    1
    74    75     9    1
    75    76     7    1
    76    77    27    1
    77    78    54    1
    78    79    27    1
    79    80    31    1
    80    81    51    1
    81    82    24    1
    82    83    19    1
    83    84    44    1
    84    85    32    1
    85    86    23    1
    86    87    35    1
    87    88    43    1
    88    89    61    1
    89    90    53    1
    90    91    45    1
    91    92    43    1
    92    93    46    1
    93    94    47    1
    94    95    36    1
    95    96    63    1
    96    97     6    1
    97    98    49    1
    98    99    34    1
    99   100    52    1
   100   101    18    1
   101   102    18    1
   102   103    37    1
   103   104    13    1
   104   105    42    1
   105   106    66    1
   106   107    41    1
   107   108    14    1
   108   109     8    1
   109   110    57    1
   110   111    15    1
   111   112    40    1
   112   113    62    1
   113   114    38    1
   114   115    26    1
   115   116    65    1
   116   117    28    1
   117   119    56    1
   118   120    58    1
   119   121    64    1
   120     8    16   ar
   121    11    24   ar
   122    18    31    1
   123    19    33   ar
   124    27    43    1
   125    32    34   ar
   126    38    47   ar
   127    44    51   ar
   128    48    50    1
   129    53    65   ar
   130    62    63   ar
   131    64    66   ar
   132   122   123    1
   133   124   122    1
   134   125   122    1
   135   126   122    1
   136   127   122    1
   137   128   122    1
   138   129   131    1
   139   130   131    1
@<TRIPOS>SUBSTRUCTURE
     1 RES1        1 GROUP             0 ****  ****    0  
     2 RES2      122 GROUP             0 ****  ****    0  
     3 RES3      129 GROUP             0 ****  ****    0  
@<TRIPOS>CRYSIN
   12.4800   35.5990   13.2430   90.0000   99.4900   90.0000   231     1
