@<TRIPOS>MOLECULE
DEQPAT
   108   122     2     0     0
SMALL
USER_CHARGES
****
Generated from the CSD

@<TRIPOS>ATOM
     1 P1      16.1460  16.1460   1.8975   P.3       1 RES1   1.0000
     2 C19     17.5178  15.7738   0.8098   C.ar      1 RES1   0.0000
     3 C20     18.6618  16.5507   0.7992   C.ar      1 RES1   0.0000
     4 H11     18.7677  17.2568   1.4258   H         1 RES1   0.0000
     5 C21     19.6598  16.2881  -0.1419   C.ar      1 RES1   0.0000
     6 H12     20.4504  16.8156  -0.1503   H         1 RES1   0.0000
     7 C22     19.5067  15.2827  -1.0474   C.ar      1 RES1   0.0000
     8 H13     20.1971  15.1045  -1.6753   H         1 RES1   0.0000
     9 C23     18.3636  14.5221  -1.0603   C.ar      1 RES1   0.0000
    10 H14     18.2606  13.8308  -1.7036   H         1 RES1   0.0000
    11 C24     17.3604  14.7620  -0.1366   C.ar      1 RES1   0.0000
    12 H15     16.5674  14.2389  -0.1475   H         1 RES1   0.0000
    13 C19A    14.7742  16.5182   0.8098   C.ar      1 RES1   0.0000
    14 C20A    13.6302  15.7413   0.7992   C.ar      1 RES1   0.0000
    15 H11A    13.5243  15.0352   1.4258   H         1 RES1   0.0000
    16 C21A    12.6322  16.0039  -0.1419   C.ar      1 RES1   0.0000
    17 H12A    11.8416  15.4764  -0.1503   H         1 RES1   0.0000
    18 C22A    12.7853  17.0093  -1.0474   C.ar      1 RES1   0.0000
    19 H13A    12.0949  17.1875  -1.6753   H         1 RES1   0.0000
    20 C23A    13.9284  17.7699  -1.0603   C.ar      1 RES1   0.0000
    21 H14A    14.0314  18.4612  -1.7036   H         1 RES1   0.0000
    22 C24A    14.9316  17.5300  -0.1366   C.ar      1 RES1   0.0000
    23 H15A    15.7246  18.0531  -0.1475   H         1 RES1   0.0000
    24 C19F    15.7738  14.7742   2.9851   C.ar      1 RES1   0.0000
    25 C20F    16.5507  13.6302   2.9957   C.ar      1 RES1   0.0000
    26 H11F    17.2568  13.5243   2.3691   H         1 RES1   0.0000
    27 C21F    16.2881  12.6322   3.9368   C.ar      1 RES1   0.0000
    28 H12F    16.8156  11.8416   3.9452   H         1 RES1   0.0000
    29 C22F    15.2827  12.7853   4.8423   C.ar      1 RES1   0.0000
    30 H13F    15.1045  12.0949   5.4702   H         1 RES1   0.0000
    31 C23F    14.5221  13.9284   4.8552   C.ar      1 RES1   0.0000
    32 H14F    13.8308  14.0314   5.4985   H         1 RES1   0.0000
    33 C24F    14.7620  14.9316   3.9315   C.ar      1 RES1   0.0000
    34 H15F    14.2389  15.7246   3.9424   H         1 RES1   0.0000
    35 C19G    16.5182  17.5178   2.9851   C.ar      1 RES1   0.0000
    36 C20G    15.7413  18.6618   2.9957   C.ar      1 RES1   0.0000
    37 H11G    15.0352  18.7677   2.3691   H         1 RES1   0.0000
    38 C21G    16.0039  19.6598   3.9368   C.ar      1 RES1   0.0000
    39 H12G    15.4764  20.4504   3.9452   H         1 RES1   0.0000
    40 C22G    17.0093  19.5067   4.8423   C.ar      1 RES1   0.0000
    41 H13G    17.1875  20.1971   5.4702   H         1 RES1   0.0000
    42 C23G    17.7699  18.3636   4.8552   C.ar      1 RES1   0.0000
    43 H14G    18.4612  18.2606   5.4985   H         1 RES1   0.0000
    44 C24G    17.5300  17.3604   3.9315   C.ar      1 RES1   0.0000
    45 H15G    18.0531  16.5674   3.9424   H         1 RES1   0.0000
    46 Fe1     10.7640  10.7640   0.0000   Fe        2 RES2   0.0000
    47 Br1     12.8705  12.0441   0.7704   Br        2 RES2  -1.0000
    48 N1      11.0312   9.2013   1.3267   N.2       2 RES2   0.0000
    49 N2       9.5599  11.7351   1.3760   N.2       2 RES2   0.0000
    50 C1      12.4283   7.7695  -0.0873   C.2       2 RES2   0.0000
    51 H1      12.8764   6.9323  -0.1141   H         2 RES2   0.0000
    52 C2      11.7106   8.0429   1.0595   C.2       2 RES2   0.0000
    53 C3      11.5097   7.1113   2.1585   C.ar      2 RES2   0.0000
    54 C4      11.9321   5.8037   2.3566   C.ar      2 RES2   0.0000
    55 H2      12.4956   5.3690   1.7275   H         2 RES2   0.0000
    56 C5      11.5039   5.1536   3.5050   C.ar      2 RES2   0.0000
    57 H3      11.7596   4.2505   3.6527   H         2 RES2   0.0000
    58 C6      10.7065   5.8007   4.4446   C.ar      2 RES2   0.0000
    59 H4      10.4414   5.3361   5.2295   H         2 RES2   0.0000
    60 C7      10.2908   7.1111   4.2564   C.ar      2 RES2   0.0000
    61 H5       9.7529   7.5540   4.9023   H         2 RES2   0.0000
    62 C8      10.6897   7.7522   3.0906   C.ar      2 RES2   0.0000
    63 C9      10.3894   9.0631   2.5320   C.2       2 RES2   0.0000
    64 C10      9.5393  10.0008   3.1080   C.2       2 RES2   0.0000
    65 H6       9.1868   9.7822   3.9630   H         2 RES2   0.0000
    66 C11      9.1509  11.2139   2.5760   C.2       2 RES2   0.0000
    67 C12      8.2373  12.1541   3.2204   C.ar      2 RES2   0.0000
    68 C13      7.5533  12.1235   4.4309   C.ar      2 RES2   0.0000
    69 H7       7.6217  11.3777   5.0152   H         2 RES2   0.0000
    70 C14      6.7727  13.2130   4.7527   C.ar      2 RES2   0.0000
    71 H8       6.3034  13.2178   5.5788   H         2 RES2   0.0000
    72 C15      6.6526  14.3204   3.8883   C.ar      2 RES2   0.0000
    73 H9       6.1101  15.0591   4.1389   H         2 RES2   0.0000
    74 C16      7.3152  14.3361   2.6875   C.ar      2 RES2   0.0000
    75 H10      7.2281  15.0748   2.0966   H         2 RES2   0.0000
    76 C17      8.1204  13.2462   2.3506   C.ar      2 RES2   0.0000
    77 C18      8.9595  12.9556   1.1969   C.2       2 RES2   0.0000
    78 N1D     10.4968  12.3267  -1.3267   N.2       2 RES2   0.0000
    79 N2D     11.9681   9.7929  -1.3760   N.2       2 RES2   0.0000
    80 C1D      9.0997  13.7585   0.0873   C.2       2 RES2   0.0000
    81 H1D      8.6516  14.5957   0.1141   H         2 RES2   0.0000
    82 C2D      9.8174  13.4851  -1.0595   C.2       2 RES2   0.0000
    83 C3D     10.0183  14.4167  -2.1585   C.2       2 RES2   0.0000
    84 C4D      9.5959  15.7243  -2.3566   C.2       2 RES2   0.0000
    85 H2D      9.0324  16.1590  -1.7275   H         2 RES2   0.0000
    86 C5D     10.0241  16.3744  -3.5050   C.2       2 RES2   0.0000
    87 H3D      9.7684  17.2775  -3.6527   H         2 RES2   0.0000
    88 C6D     10.8215  15.7273  -4.4446   C.2       2 RES2   0.0000
    89 H4D     11.0866  16.1919  -5.2295   H         2 RES2   0.0000
    90 C7D     11.2372  14.4169  -4.2564   C.2       2 RES2   0.0000
    91 H5D     11.7751  13.9740  -4.9023   H         2 RES2   0.0000
    92 C8D     10.8383  13.7758  -3.0906   C.2       2 RES2   0.0000
    93 C9D     11.1386  12.4649  -2.5320   C.2       2 RES2   0.0000
    94 C10D    11.9887  11.5272  -3.1080   C.2       2 RES2   0.0000
    95 H6D     12.3412  11.7458  -3.9630   H         2 RES2   0.0000
    96 C11D    12.3771  10.3141  -2.5760   C.2       2 RES2   0.0000
    97 C12D    13.2907   9.3739  -3.2204   C.ar      2 RES2   0.0000
    98 C13D    13.9747   9.4045  -4.4309   C.ar      2 RES2   0.0000
    99 H7D     13.9063  10.1503  -5.0152   H         2 RES2   0.0000
   100 C14D    14.7553   8.3150  -4.7527   C.ar      2 RES2   0.0000
   101 H8D     15.2246   8.3102  -5.5788   H         2 RES2   0.0000
   102 C15D    14.8754   7.2076  -3.8883   C.ar      2 RES2   0.0000
   103 H9D     15.4179   6.4689  -4.1389   H         2 RES2   0.0000
   104 C16D    14.2128   7.1919  -2.6875   C.ar      2 RES2   0.0000
   105 H10D    14.2999   6.4532  -2.0966   H         2 RES2   0.0000
   106 C17D    13.4076   8.2818  -2.3506   C.ar      2 RES2   0.0000
   107 C18D    12.5685   8.5724  -1.1969   C.2       2 RES2   0.0000
   108 Br1D     8.6575   9.4839  -0.7704   Br        2 RES2   0.0000
@<TRIPOS>BOND
     1     1     2    1
     2     2     3   ar
     3     3     4    1
     4     5     3   ar
     5     6     5    1
     6     7     5   ar
     7     8     7    1
     8     9     7   ar
     9    10     9    1
    10    11     2   ar
    11    12    11    1
    12    13     1    1
    13    14    13   ar
    14    15    14    1
    15    16    14   ar
    16    17    16    1
    17    18    16   ar
    18    19    18    1
    19    20    18   ar
    20    21    20    1
    21    22    13   ar
    22    23    22    1
    23    24     1    1
    24    25    24   ar
    25    26    25    1
    26    27    25   ar
    27    28    27    1
    28    29    27   ar
    29    30    29    1
    30    31    29   ar
    31    32    31    1
    32    33    24   ar
    33    34    33    1
    34    35     1    1
    35    36    35   ar
    36    37    36    1
    37    38    36   ar
    38    39    38    1
    39    40    38   ar
    40    41    40    1
    41    42    40   ar
    42    43    42    1
    43    44    35   ar
    44    45    44    1
    45     9    11   ar
    46    20    22   ar
    47    31    33   ar
    48    42    44   ar
    49    46    47    1
    50    48    46    1
    51    49    46    1
    52    50    51    1
    53    52    48    1
    54    53    52    1
    55    54    53   ar
    56    55    54    1
    57    56    54   ar
    58    57    56    1
    59    58    56   ar
    60    59    58    1
    61    60    58   ar
    62    61    60    1
    63    62    53   ar
    64    63    48    1
    65    64    63    2
    66    65    64    1
    67    66    49    2
    68    67    66    1
    69    68    67   ar
    70    69    68    1
    71    70    68   ar
    72    71    70    1
    73    72    70   ar
    74    73    72    1
    75    74    72   ar
    76    75    74    1
    77    76    67   ar
    78    77    49    1
    79    78    46    1
    80    79    46    1
    81    80    77    2
    82    81    80    1
    83    82    78    1
    84    83    82    2
    85    84    83    1
    86    85    84    1
    87    86    84    2
    88    87    86    1
    89    88    86    1
    90    89    88    1
    91    90    88    2
    92    91    90    1
    93    92    83    1
    94    93    78    1
    95    94    93    1
    96    95    94    1
    97    96    79    1
    98    97    96    1
    99    98    97   ar
   100    99    98    1
   101   100    98   ar
   102   101   100    1
   103   102   100   ar
   104   103   102    1
   105   104   102   ar
   106   105   104    1
   107   106    97   ar
   108   107    50    1
   109   108    46    1
   110    50    52    2
   111    60    62   ar
   112    62    63    1
   113    64    66    1
   114    74    76   ar
   115    76    77    1
   116    79   107    2
   117    80    82    1
   118    90    92    1
   119    92    93    2
   120    94    96    2
   121   104   106   ar
   122   106   107    1
@<TRIPOS>SUBSTRUCTURE
     1 RES1        1 GROUP             0 ****  ****    0  
     2 RES2       46 GROUP             0 ****  ****    0  
