@<TRIPOS>MOLECULE
DETBEJ
   108   117     2     0     0
SMALL
USER_CHARGES
****
Generated from the CSD

@<TRIPOS>ATOM
     1 Fe1      2.0036   3.5386   3.7354   Fe        1 RES1   1.0000
     2 O1       0.7265   2.1763   4.0150   O.3       1 RES1   0.0000
     3 O2       3.2617   4.8942   3.3865   O.3       1 RES1   0.0000
     4 N1       0.8911   4.2272   2.2370   N.2       1 RES1   0.0000
     5 N2       1.0077   4.8106   4.9752   N.3       1 RES1   0.0000
     6 N3       3.0827   2.9318   5.2882   N.2       1 RES1   0.0000
     7 N4       3.0150   2.3100   2.5068   N.ar      1 RES1   0.0000
     8 C1       0.0519   1.5712   3.0796   C.ar      1 RES1   0.0000
     9 C2      -0.4405   0.2708   3.3098   C.ar      1 RES1   0.0000
    10 C3      -1.1453  -0.4212   2.3830   C.ar      1 RES1   0.0000
    11 C4      -1.3795   0.1354   1.1433   C.ar      1 RES1   0.0000
    12 C5      -0.9856   1.4158   0.8624   C.ar      1 RES1   0.0000
    13 C6      -0.2466   2.1663   1.8188   C.ar      1 RES1   0.0000
    14 C7       0.0641   3.5135   1.5528   C.2       1 RES1   0.0000
    15 C8       0.9351   5.6513   1.9475   C.3       1 RES1   0.0000
    16 C9       0.5367   6.4102   3.1130   C.3       1 RES1   0.0000
    17 C10      0.2139   5.8803   4.2749   C.3       1 RES1   0.0000
    18 C11      0.6589   4.3275   6.1630   C.3       1 RES1   0.0000
    19 C12      1.4351   3.4750   6.9969   C.3       1 RES1   0.0000
    20 C13      2.3295   2.3368   6.4339   C.3       1 RES1   0.0000
    21 C14      4.3592   3.1658   5.4280   C.2       1 RES1   0.0000
    22 C15      5.1301   3.9631   4.5619   C.ar      1 RES1   0.0000
    23 C16      6.5423   4.0534   4.7562   C.ar      1 RES1   0.0000
    24 C17      7.3061   4.9443   4.0596   C.ar      1 RES1   0.0000
    25 C18      6.7155   5.8335   3.1922   C.ar      1 RES1   0.0000
    26 C19      5.3746   5.7800   2.9769   C.ar      1 RES1   0.0000
    27 C20      4.5655   4.8724   3.6327   C.ar      1 RES1   0.0000
    28 C21      3.1456   0.9962   2.8210   C.ar      1 RES1   0.0000
    29 C22      3.8305   0.1120   1.9760   C.ar      1 RES1   0.0000
    30 C23      4.4023   0.5834   0.8104   C.ar      1 RES1   0.0000
    31 C24      4.2826   1.9022   0.5098   C.ar      1 RES1   0.0000
    32 C25      3.5952   2.7663   1.3944   C.ar      1 RES1   0.0000
    33 C26      5.1028  -0.3811  -0.1151   C.3       1 RES1   0.0000
    34 H1      -0.2239  -0.1839   4.2687   H         1 RES1   0.0000
    35 H2      -1.4473  -1.5043   2.5736   H         1 RES1   0.0000
    36 H3      -1.8960  -0.4179   0.3217   H         1 RES1   0.0000
    37 H4      -1.2624   1.8721  -0.0990   H         1 RES1   0.0000
    38 H5      -0.3865   4.0450   0.6310   H         1 RES1   0.0000
    39 H6       0.3611   5.9338   1.0270   H         1 RES1   0.0000
    40 H7       1.9449   5.9673   1.5961   H         1 RES1   0.0000
    41 H8       1.3759   7.0872   3.4397   H         1 RES1   0.0000
    42 H9      -0.3094   7.0704   2.8458   H         1 RES1   0.0000
    43 H10      0.1033   6.6526   5.0482   H         1 RES1   0.0000
    44 H11     -0.6258   5.4324   4.1326   H         1 RES1   0.0000
    45 H12      0.2106   4.7638   7.0031   H         1 RES1   0.0000
    46 H13      0.1641   3.3764   5.9638   H         1 RES1   0.0000
    47 H14      2.1680   4.2122   7.4114   H         1 RES1   0.0000
    48 H15      0.9569   3.0421   7.7702   H         1 RES1   0.0000
    49 H16      2.9709   1.9389   7.1516   H         1 RES1   0.0000
    50 H17      1.7103   1.5044   6.1370   H         1 RES1   0.0000
    51 H18      4.8005   2.6911   6.3226   H         1 RES1   0.0000
    52 H19      7.0031   3.4767   5.5183   H         1 RES1   0.0000
    53 H20      8.3608   4.9811   4.2563   H         1 RES1   0.0000
    54 H21      7.3377   6.5021   2.6354   H         1 RES1   0.0000
    55 H22      4.8884   6.4520   2.3261   H         1 RES1   0.0000
    56 H23      2.6932   0.7187   3.7861   H         1 RES1   0.0000
    57 H24      3.8585  -0.9862   2.2024   H         1 RES1   0.0000
    58 H25      4.7254   2.2732  -0.4083   H         1 RES1   0.0000
    59 H26      3.4974   3.8110   1.1754   H         1 RES1   0.0000
    60 H27      5.9089  -0.8692   0.3712   H         1 RES1   0.0000
    61 H28      5.5001   0.2006  -0.9651   H         1 RES1   0.0000
    62 H29      4.4834  -1.1868  -0.4825   H         1 RES1   0.0000
    63 H50      1.9009   5.4157   5.3946   H         1 RES1   0.0000
    64 B1       7.5899   2.8048   9.3874   B         2 RES2  -1.0000
    65 C27      9.2376   2.9435   9.6039   C.ar      2 RES2   0.0000
    66 C28     10.1462   1.9323   9.3502   C.ar      2 RES2   0.0000
    67 C29     11.5068   2.0359   9.7016   C.ar      2 RES2   0.0000
    68 C30     11.9507   3.1993  10.3574   C.ar      2 RES2   0.0000
    69 C31     11.0847   4.2072  10.6395   C.ar      2 RES2   0.0000
    70 C32      9.7537   4.0434  10.2856   C.ar      2 RES2   0.0000
    71 C33      7.1797   1.6565   8.2973   C.ar      2 RES2   0.0000
    72 C34      7.8891   1.4509   7.0971   C.ar      2 RES2   0.0000
    73 C35      7.4556   0.6235   6.1184   C.ar      2 RES2   0.0000
    74 C36      6.3079  -0.1354   6.2904   C.ar      2 RES2   0.0000
    75 C37      5.5695   0.0117   7.4522   C.ar      2 RES2   0.0000
    76 C38      6.0015   0.8859   8.4260   C.ar      2 RES2   0.0000
    77 C39      6.9889   4.1771   8.7180   C.ar      2 RES2   0.0000
    78 C40      7.7235   5.1265   8.0028   C.ar      2 RES2   0.0000
    79 C41      7.1722   6.2180   7.3359   C.ar      2 RES2   0.0000
    80 C42      5.8098   6.3851   7.3965   C.ar      2 RES2   0.0000
    81 C43      5.0122   5.5160   8.0795   C.ar      2 RES2   0.0000
    82 C44      5.5807   4.4144   8.7415   C.ar      2 RES2   0.0000
    83 C45      7.0382   2.4705  10.8845   C.ar      2 RES2   0.0000
    84 C46      7.3243   1.2653  11.4598   C.ar      2 RES2   0.0000
    85 C47      6.9919   0.9160  12.7763   C.ar      2 RES2   0.0000
    86 C48      6.3647   1.8587  13.5199   C.ar      2 RES2   0.0000
    87 C49      6.0282   3.1090  13.0188   C.ar      2 RES2   0.0000
    88 C50      6.4063   3.3714  11.7221   C.ar      2 RES2   0.0000
    89 H30      9.7717   1.0698   8.8343   H         2 RES2   0.0000
    90 H31     12.1974   1.1701   9.5272   H         2 RES2   0.0000
    91 H32     13.0065   3.2761  10.6531   H         2 RES2   0.0000
    92 H33     11.4649   5.0981  11.1604   H         2 RES2   0.0000
    93 H34      9.0889   4.8306  10.5789   H         2 RES2   0.0000
    94 H35      8.8277   2.0225   6.8917   H         2 RES2   0.0000
    95 H36      8.0789   0.5182   5.2461   H         2 RES2   0.0000
    96 H37      6.0064  -0.8692   5.4688   H         2 RES2   0.0000
    97 H38      4.6374  -0.5850   7.5475   H         2 RES2   0.0000
    98 H39      5.3884   1.0363   9.3540   H         2 RES2   0.0000
    99 H40      8.7740   4.9978   7.8939   H         2 RES2   0.0000
   100 H41      7.8202   6.8866   6.7556   H         2 RES2   0.0000
   101 H42      5.3538   7.3212   6.9536   H         2 RES2   0.0000
   102 H43      3.9686   5.6831   8.0919   H         2 RES2   0.0000
   103 H44      4.9405   3.7609   9.2550   H         2 RES2   0.0000
   104 H45      7.8461   0.5349  10.8511   H         2 RES2   0.0000
   105 H46      7.2333  -0.1170  13.2514   H         2 RES2   0.0000
   106 H47      6.0844   1.6882  14.5135   H         2 RES2   0.0000
   107 H48      5.5253   3.8779  13.5731   H         2 RES2   0.0000
   108 H49      6.2072   4.3292  11.2965   H         2 RES2   0.0000
@<TRIPOS>BOND
     1     1     2    1
     2     2     8    1
     3     3     1    1
     4     4     1    1
     5     5     1    1
     6     6     1    1
     7     7     1    1
     8     8     9   ar
     9     9    10   ar
    10    10    11   ar
    11    11    12   ar
    12    12    13   ar
    13    13     8   ar
    14    14     4    2
    15    15     4    1
    16    16    15    1
    17    17     5    1
    18    18     5    1
    19    19    18    1
    20    20     6    1
    21    21     6    2
    22    22    21    1
    23    23    22   ar
    24    24    23   ar
    25    25    24   ar
    26    26    25   ar
    27    27     3    1
    28    28     7   ar
    29    29    28   ar
    30    30    29   ar
    31    31    30   ar
    32    32     7   ar
    33    33    30    1
    34    34     9    1
    35    35    10    1
    36    36    11    1
    37    37    12    1
    38    38    14    1
    39    39    15    1
    40    40    15    1
    41    41    16    1
    42    42    16    1
    43    43    17    1
    44    44    17    1
    45    45    18    1
    46    46    18    1
    47    47    19    1
    48    48    19    1
    49    49    20    1
    50    50    20    1
    51    51    21    1
    52    52    23    1
    53    53    24    1
    54    54    25    1
    55    55    26    1
    56    56    28    1
    57    57    29    1
    58    58    31    1
    59    59    32    1
    60    60    33    1
    61    61    33    1
    62    62    33    1
    63    63     5    1
    64    13    14    1
    65    16    17    1
    66    19    20    1
    67    22    27   ar
    68    26    27   ar
    69    31    32   ar
    70    64    65    1
    71    65    66   ar
    72    66    67   ar
    73    67    68   ar
    74    68    69   ar
    75    69    70   ar
    76    70    65   ar
    77    71    64    1
    78    72    71   ar
    79    73    72   ar
    80    74    73   ar
    81    75    74   ar
    82    76    71   ar
    83    77    64    1
    84    78    77   ar
    85    79    78   ar
    86    80    79   ar
    87    81    80   ar
    88    82    77   ar
    89    83    64    1
    90    84    83   ar
    91    85    84   ar
    92    86    85   ar
    93    87    86   ar
    94    88    83   ar
    95    89    66    1
    96    90    67    1
    97    91    68    1
    98    92    69    1
    99    93    70    1
   100    94    72    1
   101    95    73    1
   102    96    74    1
   103    97    75    1
   104    98    76    1
   105    99    78    1
   106   100    79    1
   107   101    80    1
   108   102    81    1
   109   103    82    1
   110   104    84    1
   111   105    85    1
   112   106    86    1
   113   107    87    1
   114   108    88    1
   115    75    76   ar
   116    81    82   ar
   117    87    88   ar
@<TRIPOS>SUBSTRUCTURE
     1 RES1        1 GROUP             0 ****  ****    0  
     2 RES2       64 GROUP             0 ****  ****    0  
@<TRIPOS>CRYSIN
   20.8840   16.7150   12.4560   90.0000   96.6200   90.0000    14     2
