@<TRIPOS>MOLECULE
DEXMEZ
   110   112     3     0     0
SMALL
NO_CHARGES
****
Generated from the CSD

@<TRIPOS>ATOM
     1 Fe1      7.4239  12.2807   8.5222   Fe        1 RES1   0.0000
     2 S1      10.0672  12.1654   8.5429   S.o2      1 RES1   0.0000
     3 P1       7.6094  14.4432   8.0300   P.3       1 RES1   0.0000
     4 P2       7.4480  10.1076   9.0495   P.3       1 RES1   0.0000
     5 P3       5.7670  12.0079   7.1315   P.3       1 RES1   0.0000
     6 P4       5.7525  12.6675   9.8635   P.3       1 RES1   0.0000
     7 O1       9.1089  12.5082   9.6629   O.3       1 RES1   0.0000
     8 O2       9.0961  11.9391   7.3932   O.3       1 RES1   0.0000
     9 O3      10.9575  13.2950   8.2737   O.2       1 RES1   0.0000
    10 O4      10.8196  10.9626   8.8485   O.2       1 RES1   0.0000
    11 O5       8.0138  14.5585   5.3645   O.3       1 RES1   0.0000
    12 O6       9.4838  15.8764   4.3361   O.2       1 RES1   0.0000
    13 O7       8.3067  16.7523   9.1002   O.3       1 RES1   0.0000
    14 O8       9.6887  17.1993  10.8758   O.2       1 RES1   0.0000
    15 O9       6.6391  10.3094   5.2313   O.3       1 RES1   0.0000
    16 O10      5.7816  10.1345   3.2174   O.2       1 RES1   0.0000
    17 O11      6.6246  14.2913  11.8208   O.3       1 RES1   0.0000
    18 O12      5.6960  14.5667  13.8172   O.2       1 RES1   0.0000
    19 O13      7.7265  10.0224  11.7132   O.3       1 RES1   0.0000
    20 O14      9.3418   8.9914  12.9018   O.2       1 RES1   0.0000
    21 O15      8.0211   7.6685   8.1996   O.3       1 RES1   0.0000
    22 O16      9.2226   6.9939   6.4294   O.2       1 RES1   0.0000
    23 N1       4.8163  14.5453   7.9492   N.3       1 RES1   0.0000
    24 N2       4.6846  10.2022   9.0073   N.3       1 RES1   0.0000
    25 C1       6.0317  15.3618   7.8106   C.3       1 RES1   0.0000
    26 H1       5.9973  16.0925   8.4769   H         1 RES1   0.0000
    27 H2       6.0313  15.7775   6.9113   H         1 RES1   0.0000
    28 C2       4.6757  13.5325   6.9329   C.3       1 RES1   0.0000
    29 H3       4.8735  13.9432   6.0538   H         1 RES1   0.0000
    30 H4       3.7312  13.2389   6.9154   H         1 RES1   0.0000
    31 C3       4.6275  14.0818   9.3021   C.3       1 RES1   0.0000
    32 H5       3.6872  13.7865   9.3991   H         1 RES1   0.0000
    33 H6       4.7625  14.8471   9.9133   H         1 RES1   0.0000
    34 C4       5.7811   9.2801   9.2483   C.3       1 RES1   0.0000
    35 H7       5.7152   8.5230   8.6142   H         1 RES1   0.0000
    36 H8       5.7049   8.9172  10.1664   H         1 RES1   0.0000
    37 C5       4.5438  10.6921   7.6383   C.3       1 RES1   0.0000
    38 H9       3.6290  11.0549   7.5279   H         1 RES1   0.0000
    39 H10      4.6346   9.9250   7.0190   H         1 RES1   0.0000
    40 C6       4.5316  11.2545   9.9954   C.3       1 RES1   0.0000
    41 H11      4.6152  10.8537  10.8960   H         1 RES1   0.0000
    42 H12      3.6167  11.6257   9.9187   H         1 RES1   0.0000
    43 C7       8.6398  15.0006   6.6111   C.3       1 RES1   0.0000
    44 H13      8.7172  15.9870   6.6178   H         1 RES1   0.0000
    45 H14      9.5501  14.6162   6.6852   H         1 RES1   0.0000
    46 C8       8.5622  15.0748   4.2728   C.2       1 RES1   0.0000
    47 C9       7.8759  14.5865   3.0087   C.3       1 RES1   0.0000
    48 H15      7.3478  15.3140   2.6210   H         1 RES1   0.0000
    49 H16      7.2854  13.8360   3.2282   H         1 RES1   0.0000
    50 H17      8.5515  14.2929   2.3626   H         1 RES1   0.0000
    51 C10      8.5417  15.3502   9.3573   C.3       1 RES1   0.0000
    52 H18      8.2068  15.0979  10.2539   H         1 RES1   0.0000
    53 H19      9.5082  15.1424   9.3075   H         1 RES1   0.0000
    54 C11      8.9881  17.6117  10.0170   C.2       1 RES1   0.0000
    55 C12      8.6055  18.9923   9.6293   C.3       1 RES1   0.0000
    56 H20      8.1825  19.4410  10.3912   H         1 RES1   0.0000
    57 H21      7.9763  18.9594   8.8781   H         1 RES1   0.0000
    58 H22      9.4069  19.4905   9.3614   H         1 RES1   0.0000
    59 C13      6.0397  11.6405   5.3538   C.3       1 RES1   0.0000
    60 H23      5.1777  11.6686   4.8678   H         1 RES1   0.0000
    61 H24      6.6423  12.3201   4.9580   H         1 RES1   0.0000
    62 C14      6.4718   9.6397   4.0816   C.2       1 RES1   0.0000
    63 C15      7.1519   8.3646   4.0709   C.3       1 RES1   0.0000
    64 H25      6.6966   7.7461   4.6780   H         1 RES1   0.0000
    65 H26      8.0800   8.4883   4.3630   H         1 RES1   0.0000
    66 H27      7.1421   7.9968   3.1622   H         1 RES1   0.0000
    67 C16      5.9472  13.0690  11.6512   C.3       1 RES1   0.0000
    68 H28      5.0554  13.1251  12.0753   H         1 RES1   0.0000
    69 H29      6.4552  12.3465  12.0982   H         1 RES1   0.0000
    70 C17      6.4274  14.9511  12.9732   C.2       1 RES1   0.0000
    71 C18      7.2073  16.2030  13.0459   C.3       1 RES1   0.0000
    72 H30      6.7745  16.8216  13.6705   H         1 RES1   0.0000
    73 H31      7.2512  16.6138  12.1574   H         1 RES1   0.0000
    74 H32      8.1145  16.0051  13.3595   H         1 RES1   0.0000
    75 C19      8.3924   9.5605  10.5433   C.3       1 RES1   0.0000
    76 H33      8.4537   8.5725  10.5595   H         1 RES1   0.0000
    77 H34      9.3117   9.9283  10.5124   H         1 RES1   0.0000
    78 C20      8.3491   9.6281  12.8749   C.2       1 RES1   0.0000
    79 C21      7.6786  10.1956  14.0434   C.3       1 RES1   0.0000
    80 H35      6.9236   9.6232  14.2978   H         1 RES1   0.0000
    81 H36      7.3490  11.0929  13.8280   H         1 RES1   0.0000
    82 H37      8.3117  10.2500  14.7892   H         1 RES1   0.0000
    83 C22      8.2958   9.0525   7.8375   C.3       1 RES1   0.0000
    84 H38      7.9601   9.2405   6.9248   H         1 RES1   0.0000
    85 H39      9.2705   9.2240   7.8563   H         1 RES1   0.0000
    86 C23      8.5946   6.7333   7.3771   C.2       1 RES1   0.0000
    87 C24      8.2632   5.3477   7.9358   C.3       1 RES1   0.0000
    88 H40      7.7124   5.4434   8.7408   H         1 RES1   0.0000
    89 H41      9.0943   4.8809   8.1619   H         1 RES1   0.0000
    90 H42      7.7714   4.8330   7.2627   H         1 RES1   0.0000
    91 O17      2.8154  11.5547   4.8395   O.2       2 RES2   0.0000
    92 C25      0.6549  11.4294   4.0924   C.3       2 RES2   0.0000
    93 H43      0.8517  12.2706   3.6293   H         2 RES2   0.0000
    94 H44     -0.1009  11.5613   4.7036   H         2 RES2   0.0000
    95 H45      0.4266  10.7399   3.4355   H         2 RES2   0.0000
    96 C26      1.7538  11.0335   4.8059   C.2       2 RES2   0.0000
    97 C27      1.5401   9.8376   5.4467   C.3       2 RES2   0.0000
    98 H46      2.2544   9.2075   5.2111   H         2 RES2   0.0000
    99 H47      0.6752   9.4681   5.1693   H         2 RES2   0.0000
   100 H48      1.5383   9.9811   6.4159   H         2 RES2   0.0000
   101 O18      5.7584   2.3736   7.4727   O.2       3 RES3   0.0000
   102 C28      5.0499   3.8268   6.1171   C.3       3 RES3   0.0000
   103 H49      4.3862   3.5712   5.4426   H         3 RES3   0.0000
   104 H50      5.5662   4.5939   5.7926   H         3 RES3   0.0000
   105 H51      4.5944   4.0677   6.9504   H         3 RES3   0.0000
   106 C29      5.8772   2.7959   6.3432   C.2       3 RES3   0.0000
   107 C30      6.6375   2.1509   5.3861   C.3       3 RES3   0.0000
   108 H52      7.4791   1.8491   5.7872   H         3 RES3   0.0000
   109 H53      6.8289   2.7679   4.6497   H         3 RES3   0.0000
   110 H54      6.1432   1.3757   5.0442   H         3 RES3   0.0000
@<TRIPOS>BOND
     1     1     3    1
     2     2     7    1
     3     3    25    1
     4     4     1    1
     5     5     1    1
     6     6     1    1
     7     7     1    1
     8     8     1    1
     9     9     2    2
    10    10     2    2
    11    11    43    1
    12    12    46    2
    13    13    51    1
    14    14    54    2
    15    15    59    1
    16    16    62    2
    17    17    67    1
    18    18    70    2
    19    19    75    1
    20    20    78    2
    21    21    83    1
    22    22    86    2
    23    23    25    1
    24    24    34    1
    25    25    26    1
    26    27    25    1
    27    28     5    1
    28    29    28    1
    29    30    28    1
    30    31     6    1
    31    32    31    1
    32    33    31    1
    33    34     4    1
    34    35    34    1
    35    36    34    1
    36    37     5    1
    37    38    37    1
    38    39    37    1
    39    40     6    1
    40    41    40    1
    41    42    40    1
    42    43     3    1
    43    44    43    1
    44    45    43    1
    45    46    11    1
    46    47    46    1
    47    48    47    1
    48    49    47    1
    49    50    47    1
    50    51     3    1
    51    52    51    1
    52    53    51    1
    53    54    13    1
    54    55    54    1
    55    56    55    1
    56    57    55    1
    57    58    55    1
    58    59     5    1
    59    60    59    1
    60    61    59    1
    61    62    15    1
    62    63    62    1
    63    64    63    1
    64    65    63    1
    65    66    63    1
    66    67     6    1
    67    68    67    1
    68    69    67    1
    69    70    17    1
    70    71    70    1
    71    72    71    1
    72    73    71    1
    73    74    71    1
    74    75     4    1
    75    76    75    1
    76    77    75    1
    77    78    19    1
    78    79    78    1
    79    80    79    1
    80    81    79    1
    81    82    79    1
    82    83     4    1
    83    84    83    1
    84    85    83    1
    85    86    21    1
    86    87    86    1
    87    88    87    1
    88    89    87    1
    89    90    87    1
    90     2     8    1
    91    23    28    1
    92    23    31    1
    93    24    37    1
    94    24    40    1
    95    91    96    2
    96    92    93    1
    97    94    92    1
    98    95    92    1
    99    96    92    1
   100    97    96    1
   101    98    97    1
   102    99    97    1
   103   100    97    1
   104   101   106    2
   105   102   103    1
   106   104   102    1
   107   105   102    1
   108   106   102    1
   109   107   106    1
   110   108   107    1
   111   109   107    1
   112   110   107    1
@<TRIPOS>SUBSTRUCTURE
     1 RES1        1 GROUP             0 ****  ****    0  
     2 RES2       91 GROUP             0 ****  ****    0  
     3 RES3      101 GROUP             0 ****  ****    0  
