@<TRIPOS>MOLECULE
DEXXEM
   229   249     3     0     0
SMALL
USER_CHARGES
****
Generated from the CSD

@<TRIPOS>ATOM
     1 Fe1     13.5532   0.0059   5.5155   Fe        1 RES1   2.0000
     2 C1      11.3413   1.8569   5.7585   C.ar      1 RES1   0.0000
     3 C2      12.5921   1.5466   6.3726   C.ar      1 RES1   0.0000
     4 N1      12.8049   2.6884   7.1752   N.ar      1 RES1   0.0000
     5 N2      11.0187   3.1269   6.1860   N.ar      1 RES1   0.0000
     6 N3      11.8036   3.6649   7.0334   N.ar      1 RES1   0.0000
     7 C3       9.8215   3.9600   5.7040   C.3       1 RES1   0.0000
     8 H1       9.7662   3.9160   4.7461   H         1 RES1   0.0000
     9 H2       9.0135   3.6102   6.0868   H         1 RES1   0.0000
    10 H3       9.9356   4.8731   5.9761   H         1 RES1   0.0000
    11 C4      14.1555  -2.8300   5.2493   C.ar      1 RES1   0.0000
    12 C5      14.4712  -1.5314   4.7556   C.ar      1 RES1   0.0000
    13 N4      15.5448  -1.8097   3.8811   N.ar      1 RES1   0.0000
    14 N5      15.0931  -3.6784   4.6973   N.ar      1 RES1   0.0000
    15 N6      15.9130  -3.1673   3.8694   N.ar      1 RES1   0.0000
    16 C6      15.2532  -5.1726   5.0219   C.3       1 RES1   0.0000
    17 H4      15.2216  -5.2982   5.9725   H         1 RES1   0.0000
    18 H5      14.5414  -5.6673   4.6091   H         1 RES1   0.0000
    19 H6      16.0965  -5.4837   4.6849   H         1 RES1   0.0000
    20 C7      15.7699   1.8603   5.2532   C.ar      1 RES1   0.0000
    21 C8      14.4831   1.5061   4.7479   C.ar      1 RES1   0.0000
    22 N7      14.2479   2.5416   3.8150   N.ar      1 RES1   0.0000
    23 N8      16.0932   3.0577   4.6487   N.ar      1 RES1   0.0000
    24 N9      15.2754   3.5013   3.7820   N.ar      1 RES1   0.0000
    25 C9      17.3308   3.9128   4.9558   C.3       1 RES1   0.0000
    26 H7      17.4353   3.9917   5.9101   H         1 RES1   0.0000
    27 H8      18.1095   3.4983   4.5836   H         1 RES1   0.0000
    28 H9      17.2181   4.7879   4.5772   H         1 RES1   0.0000
    29 C10     16.2259   1.0086   6.3706   C.ar      1 RES1   0.0000
    30 C11     15.3076  -0.0776   6.4736   C.ar      1 RES1   0.0000
    31 N10     15.9362  -0.8922   7.4415   N.ar      1 RES1   0.0000
    32 N11     17.2861   0.6814   7.1908   N.ar      1 RES1   0.0000
    33 N12     17.1800  -0.3913   7.8671   N.ar      1 RES1   0.0000
    34 C12     18.5921   1.4774   7.3307   C.3       1 RES1   0.0000
    35 H10     18.9187   1.7128   6.4579   H         1 RES1   0.0000
    36 H11     18.4298   2.2761   7.8368   H         1 RES1   0.0000
    37 H12     19.2488   0.9405   7.7817   H         1 RES1   0.0000
    38 C13     10.9912   1.0912   4.8820   C.ar      1 RES1   0.0000
    39 C14     11.9712   0.1467   4.4602   C.ar      1 RES1   0.0000
    40 N13     11.2401  -0.6291   3.5332   N.ar      1 RES1   0.0000
    41 N14      9.8216   0.7286   4.2464   N.ar      1 RES1   0.0000
    42 N15      9.8921  -0.2412   3.4244   N.ar      1 RES1   0.0000
    43 C15      8.4421   1.3678   4.4719   C.3       1 RES1   0.0000
    44 H13      8.2838   1.4621   5.4135   H         1 RES1   0.0000
    45 H14      8.4179   2.2312   4.0540   H         1 RES1   0.0000
    46 H15      7.7644   0.8066   4.0875   H         1 RES1   0.0000
    47 C16     13.0702  -2.8233   6.1277   C.ar      1 RES1   0.0000
    48 C17     12.5474  -1.5111   6.3182   C.ar      1 RES1   0.0000
    49 N16     11.2890  -1.7844   6.8973   N.ar      1 RES1   0.0000
    50 N17     12.0693  -3.6868   6.5222   N.ar      1 RES1   0.0000
    51 N18     11.0166  -3.1606   7.0081   N.ar      1 RES1   0.0000
    52 C18     12.0981  -5.2165   6.3920   C.3       1 RES1   0.0000
    53 H16     12.4081  -5.4569   5.5156   H         1 RES1   0.0000
    54 H17     12.6934  -5.5819   7.0520   H         1 RES1   0.0000
    55 H18     11.2161  -5.5672   6.5278   H         1 RES1   0.0000
    56 C19     13.0541  -3.2989   1.6189   C.ar      1 RES1   0.0000
    57 C20     12.4104  -5.5724   0.9134   C.3       1 RES1   0.0000
    58 C21     12.0638  -4.3429   1.6092   C.ar      1 RES1   0.0000
    59 C22     10.9127  -4.0882   2.2427   C.ar      1 RES1   0.0000
    60 C23     11.4949  -1.9227   2.8899   C.ar      1 RES1   0.0000
    61 C24     12.6710  -2.1385   2.3069   C.ar      1 RES1   0.0000
    62 C25     10.5347  -2.9903   2.9385   C.ar      1 RES1   0.0000
    63 H19     10.2587  -4.7893   2.1973   H         1 RES1   0.0000
    64 H20     13.3198  -1.4337   2.3617   H         1 RES1   0.0000
    65 H21     13.9077  -3.3882   1.1873   H         1 RES1   0.0000
    66 H22     13.0159  -5.3738   0.1952   H         1 RES1   0.0000
    67 H23     12.8312  -6.1804   1.5267   H         1 RES1   0.0000
    68 H24     11.6150  -5.9762   0.5588   H         1 RES1   0.0000
    69 H25      9.7035  -2.9315   3.4182   H         1 RES1   0.0000
    70 C26      9.8341   1.0119   8.9321   C.ar      1 RES1   0.0000
    71 C27      7.4752   1.7034   9.1129   C.3       1 RES1   0.0000
    72 C28      8.4615   0.7944   8.5570   C.ar      1 RES1   0.0000
    73 C29      8.2159  -0.2311   7.7349   C.ar      1 RES1   0.0000
    74 C30     10.4392  -0.9242   7.5795   C.ar      1 RES1   0.0000
    75 C31     10.7413   0.1046   8.3666   C.ar      1 RES1   0.0000
    76 C32      9.0758  -1.0996   7.1539   C.ar      1 RES1   0.0000
    77 H26      7.2897  -0.3736   7.5256   H         1 RES1   0.0000
    78 H27     11.6712   0.2404   8.5663   H         1 RES1   0.0000
    79 H28     10.1071   1.7198   9.5201   H         1 RES1   0.0000
    80 H29      7.7771   2.0240   9.9682   H         1 RES1   0.0000
    81 H30      7.3638   2.4566   8.5192   H         1 RES1   0.0000
    82 H31      6.6372   1.2546   9.2156   H         1 RES1   0.0000
    83 H32      8.8048  -1.7669   6.5189   H         1 RES1   0.0000
    84 C33     11.5548   2.3123   1.4323   C.ar      1 RES1   0.0000
    85 C34     10.0169   4.0815   0.6433   C.3       1 RES1   0.0000
    86 C35     11.1133   3.6817   1.5159   C.ar      1 RES1   0.0000
    87 C36     11.7513   4.4694   2.3885   C.ar      1 RES1   0.0000
    88 C37     13.2361   2.8216   3.1212   C.ar      1 RES1   0.0000
    89 C38     12.6090   1.9884   2.2972   C.ar      1 RES1   0.0000
    90 C39     12.7515   4.1692   3.2533   C.ar      1 RES1   0.0000
    91 H33     11.4601   5.3829   2.4025   H         1 RES1   0.0000
    92 H34     12.9059   1.0753   2.2931   H         1 RES1   0.0000
    93 H35     11.1588   1.6757   0.8328   H         1 RES1   0.0000
    94 H36     10.0407   3.5440  -0.1579   H         1 RES1   0.0000
    95 H37      9.1821   3.9328   1.0948   H         1 RES1   0.0000
    96 H38     10.1051   5.0019   0.4147   H         1 RES1   0.0000
    97 H39     13.0997   4.7961   3.8918   H         1 RES1   0.0000
    98 C40     17.1273   0.8298   1.8132   C.ar      1 RES1   0.0000
    99 C41     19.4837   1.3492   1.2943   C.3       1 RES1   0.0000
   100 C42     18.5199   0.5667   2.0620   C.ar      1 RES1   0.0000
   101 C43     18.8045  -0.3643   2.9793   C.ar      1 RES1   0.0000
   102 C44     16.5791  -0.8838   3.4574   C.ar      1 RES1   0.0000
   103 C45     16.2431   0.0607   2.5829   C.ar      1 RES1   0.0000
   104 C46     17.9712  -1.0963   3.7548   C.ar      1 RES1   0.0000
   105 H40     19.7389  -0.5414   3.1048   H         1 RES1   0.0000
   106 H41     15.3058   0.2326   2.4679   H         1 RES1   0.0000
   107 H42     16.8266   1.4780   1.1712   H         1 RES1   0.0000
   108 H43     19.1030   1.5696   0.4419   H         1 RES1   0.0000
   109 H44     19.7013   2.1461   1.7712   H         1 RES1   0.0000
   110 H45     20.2791   0.8229   1.1607   H         1 RES1   0.0000
   111 H46     18.2773  -1.6984   4.4372   H         1 RES1   0.0000
   112 C47     15.6575   2.2161   9.6823   C.ar      1 RES1   0.0000
   113 C48     17.4251   3.7610  10.4441   C.3       1 RES1   0.0000
   114 C49     16.2639   3.5198   9.6026   C.ar      1 RES1   0.0000
   115 C50     15.7007   4.3951   8.7611   C.ar      1 RES1   0.0000
   116 C51     14.0034   2.9599   8.0537   C.ar      1 RES1   0.0000
   117 C52     14.5443   2.0390   8.8466   C.ar      1 RES1   0.0000
   118 C53     14.6472   4.2383   7.9254   C.ar      1 RES1   0.0000
   119 H47     16.1052   5.2662   8.7496   H         1 RES1   0.0000
   120 H48     14.1355   1.1713   8.8480   H         1 RES1   0.0000
   121 H49     15.9875   1.5237  10.2590   H         1 RES1   0.0000
   122 H50     17.3602   3.2205  11.2381   H         1 RES1   0.0000
   123 H51     18.2224   3.5208   9.9637   H         1 RES1   0.0000
   124 H52     17.4615   4.6848  10.6875   H         1 RES1   0.0000
   125 H53     14.3607   4.9143   7.3063   H         1 RES1   0.0000
   126 C54     16.1348  -4.3311   8.7008   C.ar      1 RES1   0.0000
   127 C55     14.7224  -5.5926  10.2809   C.3       1 RES1   0.0000
   128 C56     14.9692  -4.3614   9.5462   C.ar      1 RES1   0.0000
   129 C57     14.2181  -3.2550   9.5773   C.ar      1 RES1   0.0000
   130 C58     15.5294  -2.0593   8.0595   C.ar      1 RES1   0.0000
   131 C59     16.3294  -3.1201   8.0206   C.ar      1 RES1   0.0000
   132 C60     14.4030  -2.0660   8.9554   C.ar      1 RES1   0.0000
   133 H54     13.4319  -3.3113  10.1248   H         1 RES1   0.0000
   134 H55     17.1155  -3.0513   7.4751   H         1 RES1   0.0000
   135 H56     16.7316  -5.0777   8.6115   H         1 RES1   0.0000
   136 H57     15.0695  -6.3369   9.7837   H         1 RES1   0.0000
   137 H58     15.1574  -5.5481  11.1356   H         1 RES1   0.0000
   138 H59     13.7776  -5.7056  10.4084   H         1 RES1   0.0000
   139 H60     13.8364  -1.3037   9.0971   H         1 RES1   0.0000
   140 B1      22.8566  -0.1316   6.6855   B         2 RES2  -1.0000
   141 C61     24.3500   0.0388   7.4590   C.ar      2 RES2   0.0000
   142 C62     24.6709   0.8079   8.5531   C.ar      2 RES2   0.0000
   143 C63     25.9390   0.8601   9.2061   C.ar      2 RES2   0.0000
   144 C64     26.8814   0.1012   8.5434   C.ar      2 RES2   0.0000
   145 C65     26.6547  -0.6072   7.4454   C.ar      2 RES2   0.0000
   146 C66     25.3405  -0.6662   7.0081   C.ar      2 RES2   0.0000
   147 H61     23.9726   1.3620   8.9118   H         2 RES2   0.0000
   148 H62     26.1138   1.3666  10.0053   H         2 RES2   0.0000
   149 H63     27.7722   0.1010   8.9002   H         2 RES2   0.0000
   150 H64     27.3607  -1.0668   6.9821   H         2 RES2   0.0000
   151 H65     25.1451  -1.2865   6.3032   H         2 RES2   0.0000
   152 C67     22.1378  -1.3239   7.3268   C.ar      2 RES2   0.0000
   153 C68     20.8668  -1.7034   6.9653   C.ar      2 RES2   0.0000
   154 C69     20.1338  -2.8165   7.4823   C.ar      2 RES2   0.0000
   155 C70     20.8224  -3.4406   8.4890   C.ar      2 RES2   0.0000
   156 C71     22.0309  -3.1033   8.9302   C.ar      2 RES2   0.0000
   157 C72     22.6646  -2.0745   8.2422   C.ar      2 RES2   0.0000
   158 H66     20.4291  -1.1602   6.3023   H         2 RES2   0.0000
   159 H67     19.2700  -3.0847   7.1586   H         2 RES2   0.0000
   160 H68     20.3977  -4.2001   8.9071   H         2 RES2   0.0000
   161 H69     22.4386  -3.5335   9.6834   H         2 RES2   0.0000
   162 H70     23.5831  -1.9135   8.4654   H         2 RES2   0.0000
   163 C73     22.0370   1.2599   7.3851   C.ar      2 RES2   0.0000
   164 C74     21.3740   1.3526   8.5842   C.ar      2 RES2   0.0000
   165 C75     20.6876   2.4961   9.0856   C.ar      2 RES2   0.0000
   166 C76     20.6795   3.5249   8.1625   C.ar      2 RES2   0.0000
   167 C77     21.2490   3.4794   6.9576   C.ar      2 RES2   0.0000
   168 C78     21.9860   2.3443   6.6738   C.ar      2 RES2   0.0000
   169 H71     21.3690   0.5691   9.1381   H         2 RES2   0.0000
   170 H72     20.2866   2.5544   9.9554   H         2 RES2   0.0000
   171 H73     20.2239   4.3349   8.4065   H         2 RES2   0.0000
   172 H74     21.1562   4.1961   6.3271   H         2 RES2   0.0000
   173 H75     22.5093   2.3586   5.8683   H         2 RES2   0.0000
   174 C79     22.8955  -0.3204   4.9519   C.ar      2 RES2   0.0000
   175 C80     22.4481  -1.3155   4.1240   C.ar      2 RES2   0.0000
   176 C81     22.6894  -1.4336   2.7208   C.ar      2 RES2   0.0000
   177 C82     23.5344  -0.4385   2.2738   C.ar      2 RES2   0.0000
   178 C83     24.0548   0.5228   3.0337   C.ar      2 RES2   0.0000
   179 C84     23.6203   0.5734   4.3475   C.ar      2 RES2   0.0000
   180 H76     21.9214  -2.0103   4.5291   H         2 RES2   0.0000
   181 H77     22.3096  -2.1073   2.1583   H         2 RES2   0.0000
   182 H78     23.7690  -0.4402   1.3434   H         2 RES2   0.0000
   183 H79     24.6929   1.1569   2.6881   H         2 RES2   0.0000
   184 H80     23.8834   1.3413   4.8626   H         2 RES2   0.0000
   185 B2      18.0114   8.3096   5.2065   B         3 RES3  -1.0000
   186 C85     16.4818   8.4395   4.2134   C.ar      3 RES3   0.0000
   187 C86     15.3485   7.8762   4.7517   C.ar      3 RES3   0.0000
   188 C87     14.0338   7.9099   4.1979   C.ar      3 RES3   0.0000
   189 C88     14.0336   8.5171   2.9521   C.ar      3 RES3   0.0000
   190 C89     15.1059   9.0399   2.3477   C.ar      3 RES3   0.0000
   191 C90     16.2805   9.0399   3.0765   C.ar      3 RES3   0.0000
   192 H81     15.4505   7.4114   5.5849   H         3 RES3   0.0000
   193 H82     13.2528   7.5672   4.6224   H         3 RES3   0.0000
   194 H83     13.1952   8.5788   2.4901   H         3 RES3   0.0000
   195 H84     15.0637   9.3838   1.4543   H         3 RES3   0.0000
   196 H85     17.0221   9.5166   2.7053   H         3 RES3   0.0000
   197 C91     18.8567   7.3416   3.9646   C.ar      3 RES3   0.0000
   198 C92     18.2534   6.5202   3.0434   C.ar      3 RES3   0.0000
   199 C93     18.9108   5.5993   2.1747   C.ar      3 RES3   0.0000
   200 C94     20.2631   5.5319   2.4293   C.ar      3 RES3   0.0000
   201 C95     20.9040   6.2571   3.3427   C.ar      3 RES3   0.0000
   202 C96     20.1455   7.2016   4.0230   C.ar      3 RES3   0.0000
   203 H86     17.2975   6.5725   2.9752   H         3 RES3   0.0000
   204 H87     18.4671   5.0789   1.4981   H         3 RES3   0.0000
   205 H88     20.7869   4.9256   1.9081   H         3 RES3   0.0000
   206 H89     21.8352   6.1321   3.5384   H         3 RES3   0.0000
   207 H90     20.6209   7.8190   4.5861   H         3 RES3   0.0000
   208 C97     18.7813   9.7398   4.8586   C.ar      3 RES3   0.0000
   209 C98     18.9019  10.5443   5.9664   C.ar      3 RES3   0.0000
   210 C99     19.5172  11.8396   6.0053   C.ar      3 RES3   0.0000
   211 C100    19.9071  12.2511   4.7615   C.ar      3 RES3   0.0000
   212 C101    19.7649  11.5478   3.6343   C.ar      3 RES3   0.0000
   213 C102    19.2711  10.2627   3.7761   C.ar      3 RES3   0.0000
   214 H91     18.5400  10.2087   6.7884   H         3 RES3   0.0000
   215 H92     19.6411  12.3459   6.8148   H         3 RES3   0.0000
   216 H93     20.3164  13.1176   4.6884   H         3 RES3   0.0000
   217 H94     19.9931  11.9115   2.7770   H         3 RES3   0.0000
   218 H95     19.2897   9.7036   2.9967   H         3 RES3   0.0000
   219 C103    17.8650   7.8256   6.4717   C.ar      3 RES3   0.0000
   220 C104    17.0985   8.4328   7.4357   C.ar      3 RES3   0.0000
   221 C105    17.1616   8.1798   8.8427   C.ar      3 RES3   0.0000
   222 C106    18.1792   7.3196   9.1614   C.ar      3 RES3   0.0000
   223 C107    18.9997   6.7462   8.2830   C.ar      3 RES3   0.0000
   224 C108    18.7267   6.9655   6.9459   C.ar      3 RES3   0.0000
   225 H96     16.4585   9.0762   7.1347   H         3 RES3   0.0000
   226 H97     16.5683   8.5837   9.4854   H         3 RES3   0.0000
   227 H98     18.3105   7.1094  10.0892   H         3 RES3   0.0000
   228 H99     19.7377   6.1927   8.5611   H         3 RES3   0.0000
   229 H100    19.2244   6.4575   6.3062   H         3 RES3   0.0000
@<TRIPOS>BOND
     1     1     3    1
     2     2     3   ar
     3     3     4   ar
     4     4     6   ar
     5     5     2   ar
     6     6     5   ar
     7     7     5    1
     8     8     7    1
     9     9     7    1
    10    10     7    1
    11    11    12   ar
    12    12     1    1
    13    13    12   ar
    14    14    11   ar
    15    15    13   ar
    16    16    14    1
    17    17    16    1
    18    18    16    1
    19    19    16    1
    20    20    21   ar
    21    21     1    1
    22    22    21   ar
    23    23    20   ar
    24    24    22   ar
    25    25    23    1
    26    26    25    1
    27    27    25    1
    28    28    25    1
    29    29    20    1
    30    30     1    1
    31    31    30   ar
    32    32    29   ar
    33    33    31   ar
    34    34    32    1
    35    35    34    1
    36    36    34    1
    37    37    34    1
    38    38     2    1
    39    39     1    1
    40    40    39   ar
    41    41    38   ar
    42    42    40   ar
    43    43    41    1
    44    44    43    1
    45    45    43    1
    46    46    43    1
    47    47    11    1
    48    48     1    1
    49    49    48   ar
    50    50    47   ar
    51    51    49   ar
    52    52    50    1
    53    53    52    1
    54    54    52    1
    55    55    52    1
    56    56    58   ar
    57    57    58    1
    58    58    59   ar
    59    59    62   ar
    60    60    40    1
    61    61    56   ar
    62    62    60   ar
    63    63    59    1
    64    64    61    1
    65    65    56    1
    66    66    57    1
    67    67    57    1
    68    68    57    1
    69    69    62    1
    70    70    72   ar
    71    71    72    1
    72    72    73   ar
    73    73    76   ar
    74    74    49    1
    75    75    70   ar
    76    76    74   ar
    77    77    73    1
    78    78    75    1
    79    79    70    1
    80    80    71    1
    81    81    71    1
    82    82    71    1
    83    83    76    1
    84    84    86   ar
    85    85    86    1
    86    86    87   ar
    87    87    90   ar
    88    88    22    1
    89    89    84   ar
    90    90    88   ar
    91    91    87    1
    92    92    89    1
    93    93    84    1
    94    94    85    1
    95    95    85    1
    96    96    85    1
    97    97    90    1
    98    98   100   ar
    99    99   100    1
   100   100   101   ar
   101   101   104   ar
   102   102    13    1
   103   103    98   ar
   104   104   102   ar
   105   105   101    1
   106   106   103    1
   107   107    98    1
   108   108    99    1
   109   109    99    1
   110   110    99    1
   111   111   104    1
   112   112   114   ar
   113   113   114    1
   114   114   115   ar
   115   115   118   ar
   116   116     4    1
   117   117   112   ar
   118   118   116   ar
   119   119   115    1
   120   120   117    1
   121   121   112    1
   122   122   113    1
   123   123   113    1
   124   124   113    1
   125   125   118    1
   126   126   128   ar
   127   127   128    1
   128   128   129   ar
   129   129   132   ar
   130   130    31    1
   131   131   126   ar
   132   132   130   ar
   133   133   129    1
   134   134   131    1
   135   135   126    1
   136   136   127    1
   137   137   127    1
   138   138   127    1
   139   139   132    1
   140    14    15   ar
   141    23    24   ar
   142    29    30   ar
   143    32    33   ar
   144    38    39   ar
   145    41    42   ar
   146    47    48   ar
   147    50    51   ar
   148    60    61   ar
   149    74    75   ar
   150    88    89   ar
   151   102   103   ar
   152   116   117   ar
   153   130   131   ar
   154   140   141    1
   155   141   142   ar
   156   142   143   ar
   157   143   144   ar
   158   144   145   ar
   159   145   146   ar
   160   146   141   ar
   161   147   142    1
   162   148   143    1
   163   149   144    1
   164   150   145    1
   165   151   146    1
   166   152   140    1
   167   153   152   ar
   168   154   153   ar
   169   155   154   ar
   170   156   155   ar
   171   157   152   ar
   172   158   153    1
   173   159   154    1
   174   160   155    1
   175   161   156    1
   176   162   157    1
   177   163   140    1
   178   164   163   ar
   179   165   164   ar
   180   166   165   ar
   181   167   166   ar
   182   168   163   ar
   183   169   164    1
   184   170   165    1
   185   171   166    1
   186   172   167    1
   187   173   168    1
   188   174   140    1
   189   175   174   ar
   190   176   175   ar
   191   177   176   ar
   192   178   177   ar
   193   179   174   ar
   194   180   175    1
   195   181   176    1
   196   182   177    1
   197   183   178    1
   198   184   179    1
   199   156   157   ar
   200   167   168   ar
   201   178   179   ar
   202   185   186    1
   203   186   187   ar
   204   187   188   ar
   205   188   189   ar
   206   189   190   ar
   207   190   191   ar
   208   191   186   ar
   209   192   187    1
   210   193   188    1
   211   194   189    1
   212   195   190    1
   213   196   191    1
   214   197   185    1
   215   198   197   ar
   216   199   198   ar
   217   200   199   ar
   218   201   200   ar
   219   202   197   ar
   220   203   198    1
   221   204   199    1
   222   205   200    1
   223   206   201    1
   224   207   202    1
   225   208   185    1
   226   209   208   ar
   227   210   209   ar
   228   211   210   ar
   229   212   211   ar
   230   213   208   ar
   231   214   209    1
   232   215   210    1
   233   216   211    1
   234   217   212    1
   235   218   213    1
   236   219   185    1
   237   220   219   ar
   238   221   220   ar
   239   222   221   ar
   240   223   222   ar
   241   224   219   ar
   242   225   220    1
   243   226   221    1
   244   227   222    1
   245   228   223    1
   246   229   224    1
   247   201   202   ar
   248   212   213   ar
   249   223   224   ar
@<TRIPOS>SUBSTRUCTURE
     1 RES1        1 GROUP             0 ****  ****    0  
     2 RES2      140 GROUP             0 ****  ****    0  
     3 RES3      185 GROUP             0 ****  ****    0  
@<TRIPOS>CRYSIN
   28.4770   16.8655   19.4800   90.0000   93.9150   90.0000     9     1
