@<TRIPOS>MOLECULE
DISWIM
   107   112     7     0     0
SMALL
USER_CHARGES
****
Generated from the CSD

@<TRIPOS>ATOM
     1 Fe1     16.6419   1.9230   5.2081   Fe        1 RES1   2.0000
     2 N1      15.8380   0.1580   5.6394   N.ar      1 RES1   0.0000
     3 N2      18.1754   1.0053   5.7877   N.ar      1 RES1   0.0000
     4 N3      18.0024   3.3541   5.0195   N.ar      1 RES1   0.0000
     5 N4      15.0596  -2.4264   6.4531   N.ar      1 RES1   0.0000
     6 N5      19.1976  -0.9988   6.4722   N.ar      1 RES1   0.0000
     7 N6      20.4936   0.9499   6.0653   N.ar      1 RES1   0.0000
     8 N7      20.1887   5.1245   4.8104   N.ar      1 RES1   0.0000
     9 N8      16.7920   1.5329   3.2703   N.ar      1 RES1   0.0000
    10 N9      15.1475   2.8690   4.5822   N.ar      1 RES1   0.0000
    11 N10     15.9265   2.6676   6.9133   N.ar      1 RES1   0.0000
    12 N11     16.7896   1.3130   0.4791   N.ar      1 RES1   0.0000
    13 N12     13.8121   3.5066   2.7531   N.ar      1 RES1   0.0000
    14 N13     13.3368   4.2994   4.9929   N.ar      1 RES1   0.0000
    15 N14     14.6574   3.8725   9.0770   N.ar      1 RES1   0.0000
    16 C1      14.5570  -0.2449   5.6204   C.ar      1 RES1   0.0000
    17 H1      13.8889   0.3613   5.3199   H         1 RES1   0.0000
    18 C2      14.1719  -1.5181   6.0272   C.ar      1 RES1   0.0000
    19 H2      13.2515  -1.7501   6.0044   H         1 RES1   0.0000
    20 C3      16.3120  -2.0577   6.4684   C.ar      1 RES1   0.0000
    21 H3      16.9650  -2.6796   6.7650   H         1 RES1   0.0000
    22 C4      16.7338  -0.7799   6.0653   C.ar      1 RES1   0.0000
    23 C5      18.1324  -0.2892   6.1527   C.ar      1 RES1   0.0000
    24 C6      20.3774  -0.3447   6.4037   C.ar      1 RES1   0.0000
    25 C7      19.3735   1.5911   5.7763   C.ar      1 RES1   0.0000
    26 C8      19.2426   2.9633   5.3504   C.ar      1 RES1   0.0000
    27 C9      20.3174   3.8669   5.2439   C.ar      1 RES1   0.0000
    28 H4      21.1800   3.5657   5.4987   H         1 RES1   0.0000
    29 C10     18.9546   5.4581   4.5138   C.ar      1 RES1   0.0000
    30 H5      18.7937   6.3386   4.1982   H         1 RES1   0.0000
    31 C11     17.8579   4.5941   4.6393   C.ar      1 RES1   0.0000
    32 H6      16.9881   4.9203   4.4453   H         1 RES1   0.0000
    33 C12     21.5964  -1.0765   6.6965   C.ar      1 RES1   0.0000
    34 C13     21.5440  -2.3932   7.1757   C.ar      1 RES1   0.0000
    35 H7      20.6983  -2.8210   7.2479   H         1 RES1   0.0000
    36 C14     22.6746  -3.0899   7.5483   C.ar      1 RES1   0.0000
    37 H8      22.6282  -3.9603   7.9248   H         1 RES1   0.0000
    38 C15     23.8851  -2.4449   7.3392   C.ar      1 RES1   0.0000
    39 C16     23.9708  -1.2114   6.7840   C.ar      1 RES1   0.0000
    40 H9      24.8216  -0.8298   6.5938   H         1 RES1   0.0000
    41 C17     22.8333  -0.5258   6.4988   C.ar      1 RES1   0.0000
    42 H10     22.8988   0.3557   6.1489   H         1 RES1   0.0000
    43 Br1     25.4786  -3.3723   7.8483   Br        1 RES1   0.0000
    44 C18     17.7626   0.8325   2.6200   C.ar      1 RES1   0.0000
    45 H11     18.4583   0.4103   3.1106   H         1 RES1   0.0000
    46 C19     17.7362   0.7374   1.2549   C.ar      1 RES1   0.0000
    47 H12     18.4227   0.2384   0.8252   H         1 RES1   0.0000
    48 C20     15.8267   1.9755   1.1218   C.ar      1 RES1   0.0000
    49 H13     15.1225   2.3747   0.6236   H         1 RES1   0.0000
    50 C21     15.8315   2.0929   2.4870   C.ar      1 RES1   0.0000
    51 C22     14.8610   2.8644   3.2741   C.ar      1 RES1   0.0000
    52 C23     13.0564   4.1765   3.6734   C.ar      1 RES1   0.0000
    53 C24     14.3778   3.5925   5.4036   C.ar      1 RES1   0.0000
    54 C25     14.8454   3.4927   6.7574   C.ar      1 RES1   0.0000
    55 C26     14.2571   4.1090   7.8335   C.ar      1 RES1   0.0000
    56 H14     13.5441   4.7189   7.6852   H         1 RES1   0.0000
    57 C27     15.6767   3.0492   9.2405   C.ar      1 RES1   0.0000
    58 H15     15.9782   2.8616  10.1227   H         1 RES1   0.0000
    59 C28     16.3424   2.4357   8.1491   C.ar      1 RES1   0.0000
    60 H16     17.0841   1.8609   8.3012   H         1 RES1   0.0000
    61 C29     11.8758   4.8935   3.1866   C.ar      1 RES1   0.0000
    62 C30     11.4034   4.6782   1.8671   C.ar      1 RES1   0.0000
    63 H17     11.9015   4.1367   1.2701   H         1 RES1   0.0000
    64 C31     10.2204   5.2502   1.4526   C.ar      1 RES1   0.0000
    65 H18      9.8684   5.0820   0.5856   H         1 RES1   0.0000
    66 C32      9.5385   6.1160   2.3881   C.ar      1 RES1   0.0000
    67 C33      9.9964   6.3876   3.6468   C.ar      1 RES1   0.0000
    68 H19      9.5315   6.9744   4.2324   H         1 RES1   0.0000
    69 C34     11.1729   5.7621   4.0194   C.ar      1 RES1   0.0000
    70 H20     11.5195   5.9330   4.8864   H         1 RES1   0.0000
    71 Br2      7.8725   6.8794   1.8162   Br        1 RES1   0.0000
    72 P1       2.1249   2.1917   1.9820   P.3       2 RES2  -1.0000
    73 F1       2.8092   2.6232   0.6008   F         2 RES2   0.0000
    74 F2       1.6343   3.6812   2.2170   F         2 RES2   0.0000
    75 F3       3.4556   2.5419   2.7493   F         2 RES2   0.0000
    76 F4       2.6350   0.6782   1.7302   F         2 RES2   0.0000
    77 F5       0.7718   1.8462   1.1750   F         2 RES2   0.0000
    78 F6       1.4596   1.7168   3.2931   F         2 RES2   0.0000
    79 Cl1     19.2319   4.0739   8.9222   Cl        3 RES3   0.0000
    80 O1      18.3223   4.0554  10.0201   O.3       3 RES3  -1.0000
    81 O2      20.4880   4.6034   9.3774   O.2       3 RES3   0.0000
    82 O3      19.3931   2.7147   8.4267   O.2       3 RES3   0.0000
    83 O4      18.7030   4.8990   7.8715   O.2       3 RES3   0.0000
    84 C35      9.0668   2.1714   3.2893   C.3       4 RES4   0.0000
    85 H21      9.5368   2.3396   2.4489   H         4 RES4   0.0000
    86 H22      8.7911   1.2354   3.3349   H         4 RES4   0.0000
    87 H23      9.6606   2.3775   4.0422   H         4 RES4   0.0000
    88 C36      7.8345   3.0677   3.3616   C.1       4 RES4   0.0000
    89 N15      6.9450   3.6775   3.3349   N.1       4 RES4   0.0000
    90 C37     22.4028   1.9108   9.0352   C.3       5 RES5   0.0000
    91 H24     22.1735   0.9610   8.9515   H         5 RES5   0.0000
    92 H25     21.5802   2.4431   9.0656   H         5 RES5   0.0000
    93 H26     22.9170   2.0513   9.8565   H         5 RES5   0.0000
    94 C38     23.2390   2.3377   7.8335   C.1       5 RES5   0.0000
    95 N16     23.9047   2.6805   6.9893   N.1       5 RES5   0.0000
    96 C39     12.0591  -0.0490   1.8253   C.3       6 RES6   0.0000
    97 H27     12.3485   0.5793   1.1294   H         6 RES6   0.0000
    98 H28     11.1510  -0.3613   1.6237   H         6 RES6   0.0000
    99 H29     12.6713  -0.8140   1.8481   H         6 RES6   0.0000
   100 C40     12.0658   0.5914   3.0650   C.1       6 RES6   0.0000
   101 N17     12.0955   1.1763   4.0346   N.1       6 RES6   0.0000
   102 C41      6.1074   1.5163   0.4525   C.3       7 RES7   0.0000
   103 H30      5.8821   2.2795   1.0229   H         7 RES7   0.0000
   104 H31      5.6135   1.5819  -0.3917   H         7 RES7   0.0000
   105 H32      7.0706   1.5181   0.2662   H         7 RES7   0.0000
   106 C42      5.7380   0.2495   1.1446   C.1       7 RES7   0.0000
   107 N18      5.1347  -0.5544   1.6313   N.1       7 RES7   0.0000
@<TRIPOS>BOND
     1     1     2    1
     2     2    16   ar
     3     3     1    1
     4     4     1    1
     5     5    18   ar
     6     6    23   ar
     7     7    24   ar
     8     8    27   ar
     9     9     1    1
    10    10     1    1
    11    11     1    1
    12    12    46   ar
    13    13    51   ar
    14    14    52   ar
    15    15    55   ar
    16    16    17    1
    17    18    16   ar
    18    19    18    1
    19    20     5   ar
    20    21    20    1
    21    22     2   ar
    22    23     3   ar
    23    24     6   ar
    24    25     3   ar
    25    26     4   ar
    26    27    26   ar
    27    28    27    1
    28    29     8   ar
    29    30    29    1
    30    31     4   ar
    31    32    31    1
    32    33    24    1
    33    34    33   ar
    34    35    34    1
    35    36    34   ar
    36    37    36    1
    37    38    36   ar
    38    39    38   ar
    39    40    39    1
    40    41    33   ar
    41    42    41    1
    42    43    38    1
    43    44     9   ar
    44    45    44    1
    45    46    44   ar
    46    47    46    1
    47    48    12   ar
    48    49    48    1
    49    50     9   ar
    50    51    10   ar
    51    52    13   ar
    52    53    10   ar
    53    54    11   ar
    54    55    54   ar
    55    56    55    1
    56    57    15   ar
    57    58    57    1
    58    59    11   ar
    59    60    59    1
    60    61    52    1
    61    62    61   ar
    62    63    62    1
    63    64    62   ar
    64    65    64    1
    65    66    64   ar
    66    67    66   ar
    67    68    67    1
    68    69    61   ar
    69    70    69    1
    70    71    66    1
    71     7    25   ar
    72    14    53   ar
    73    20    22   ar
    74    22    23    1
    75    25    26    1
    76    29    31   ar
    77    39    41   ar
    78    48    50   ar
    79    50    51    1
    80    53    54    1
    81    57    59   ar
    82    67    69   ar
    83    72    73    1
    84    74    72    1
    85    75    72    1
    86    76    72    1
    87    77    72    1
    88    78    72    1
    89    79    80    1
    90    81    79    2
    91    82    79    2
    92    83    79    2
    93    84    85    1
    94    86    84    1
    95    87    84    1
    96    88    84    1
    97    89    88    3
    98    90    91    1
    99    92    90    1
   100    93    90    1
   101    94    90    1
   102    95    94    3
   103    96    97    1
   104    98    96    1
   105    99    96    1
   106   100    96    1
   107   101   100    3
   108   102   103    1
   109   104   102    1
   110   105   102    1
   111   106   102    1
   112   107   106    3
@<TRIPOS>SUBSTRUCTURE
     1 RES1        1 GROUP             0 ****  ****    0  
     2 RES2       72 GROUP             0 ****  ****    0  
     3 RES3       79 GROUP             0 ****  ****    0  
     4 RES4       84 GROUP             0 ****  ****    0  
     5 RES5       90 GROUP             0 ****  ****    0  
     6 RES6       96 GROUP             0 ****  ****    0  
     7 RES7      102 GROUP             0 ****  ****    0  
@<TRIPOS>CRYSIN
   27.0294    9.2400   39.6520   90.0000  106.4610   90.0000    15     1
