@<TRIPOS>MOLECULE
DISWEI
   105   112     5     0     0
SMALL
USER_CHARGES
****
Generated from the CSD

@<TRIPOS>ATOM
     1 Fe1      1.0250   5.8191  16.4740   Fe        1 RES1   2.0000
     2 N1       2.4703   7.1253  16.1797   N.ar      1 RES1   0.0000
     3 N2       1.6717   5.1584  14.8411   N.ar      1 RES1   0.0000
     4 N3      -0.1928   4.2843  16.2480   N.ar      1 RES1   0.0000
     5 C1       2.8257   8.1631  16.9748   C.ar      1 RES1   0.0000
     6 H1       2.3926   8.2685  17.8148   H         1 RES1   0.0000
     7 C2       3.7986   9.0778  16.6045   C.ar      1 RES1   0.0000
     8 H2       4.0487   9.7762  17.1975   H         1 RES1   0.0000
     9 C3       4.4076   8.9657  15.3655   C.ar      1 RES1   0.0000
    10 H3       5.0565   9.6015  15.0856   H         1 RES1   0.0000
    11 C4       4.0499   7.9047  14.5344   C.ar      1 RES1   0.0000
    12 H4       4.4450   7.8082  13.6769   H         1 RES1   0.0000
    13 C5       3.1065   6.9931  14.9841   C.ar      1 RES1   0.0000
    14 C6       2.7124   5.7846  14.2456   C.ar      1 RES1   0.0000
    15 C7       3.2937   5.2612  13.1006   C.ar      1 RES1   0.0000
    16 H5       4.0184   5.7134  12.6848   H         1 RES1   0.0000
    17 C8       2.8081   4.0639  12.5585   C.ar      1 RES1   0.0000
    18 C9       1.7080   3.4415  13.1855   C.ar      1 RES1   0.0000
    19 H6       1.3419   2.6410  12.8281   H         1 RES1   0.0000
    20 C10      1.1713   4.0071  14.3237   C.ar      1 RES1   0.0000
    21 C11      0.0585   3.5142  15.1378   C.ar      1 RES1   0.0000
    22 C12     -0.6688   2.3610  14.8852   C.ar      1 RES1   0.0000
    23 H7      -0.4703   1.8334  14.1200   H         1 RES1   0.0000
    24 C13     -1.6842   1.9760  15.7469   C.ar      1 RES1   0.0000
    25 H8      -2.1954   1.1947  15.5750   H         1 RES1   0.0000
    26 C14     -1.9390   2.7591  16.8690   C.ar      1 RES1   0.0000
    27 H9      -2.6294   2.5239  17.4797   H         1 RES1   0.0000
    28 C15     -1.1667   3.8871  17.0782   C.ar      1 RES1   0.0000
    29 H10     -1.3370   4.4103  17.8522   H         1 RES1   0.0000
    30 C16      3.4283   3.4749  11.3577   C.ar      1 RES1   0.0000
    31 C17      4.0186   4.3004  10.3959   C.ar      1 RES1   0.0000
    32 H11      4.0578   5.2384  10.5420   H         1 RES1   0.0000
    33 C18      4.5468   3.7629   9.2314   C.ar      1 RES1   0.0000
    34 H12      4.9451   4.3278   8.5800   H         1 RES1   0.0000
    35 C19      4.4898   2.3944   9.0299   C.ar      1 RES1   0.0000
    36 C20      3.9688   1.5417   9.9971   C.ar      1 RES1   0.0000
    37 H13      3.9813   0.5999   9.8697   H         1 RES1   0.0000
    38 C21      3.4338   2.0885  11.1485   C.ar      1 RES1   0.0000
    39 H14      3.0622   1.5148  11.8096   H         1 RES1   0.0000
    40 Br1      5.1147   1.6872   7.3824   Br        1 RES1   0.0000
    41 N4       2.1087   4.6983  17.6858   N.ar      1 RES1   0.0000
    42 N5       0.3640   6.4455  18.1157   N.ar      1 RES1   0.0000
    43 N6      -0.2690   7.1489  15.7970   N.ar      1 RES1   0.0000
    44 C22      2.9949   3.7486  17.3324   C.ar      1 RES1   0.0000
    45 H15      3.1939   3.6257  16.4105   H         1 RES1   0.0000
    46 C23      3.6261   2.9442  18.2645   C.ar      1 RES1   0.0000
    47 H16      4.2364   2.2715  17.9845   H         1 RES1   0.0000
    48 C24      3.3572   3.1324  19.6181   C.ar      1 RES1   0.0000
    49 H17      3.7832   2.5941  20.2750   H         1 RES1   0.0000
    50 C25      2.4589   4.1169  19.9930   C.ar      1 RES1   0.0000
    51 H18      2.2632   4.2658  20.9099   H         1 RES1   0.0000
    52 C26      1.8454   4.8868  19.0083   C.ar      1 RES1   0.0000
    53 C27      0.8146   5.8998  19.2755   C.ar      1 RES1   0.0000
    54 C28      0.2764   6.2630  20.4851   C.ar      1 RES1   0.0000
    55 H19      0.6032   5.8722  21.2869   H         1 RES1   0.0000
    56 C29     -0.7711   7.2242  20.5382   C.ar      1 RES1   0.0000
    57 C30     -1.1890   7.7855  19.3226   C.ar      1 RES1   0.0000
    58 H20     -1.8726   8.4447  19.3138   H         1 RES1   0.0000
    59 C31     -0.6042   7.3790  18.1351   C.ar      1 RES1   0.0000
    60 C32     -0.9340   7.8435  16.7815   C.ar      1 RES1   0.0000
    61 C33     -1.7833   8.8982  16.4920   C.ar      1 RES1   0.0000
    62 H21     -2.2320   9.3621  17.1887   H         1 RES1   0.0000
    63 C34     -1.9679   9.2666  15.1689   C.ar      1 RES1   0.0000
    64 H22     -2.5325   9.9983  14.9467   H         1 RES1   0.0000
    65 C35     -1.3172   8.5518  14.1705   C.ar      1 RES1   0.0000
    66 H23     -1.4452   8.7790  13.2558   H         1 RES1   0.0000
    67 C36     -0.4848   7.5116  14.5190   C.ar      1 RES1   0.0000
    68 H24     -0.0444   7.0299  13.8290   H         1 RES1   0.0000
    69 C37     -1.3839   7.5997  21.8219   C.ar      1 RES1   0.0000
    70 C38     -1.4182   6.6981  22.8922   C.ar      1 RES1   0.0000
    71 H25     -1.0663   5.8240  22.7705   H         1 RES1   0.0000
    72 C39     -1.9446   7.0378  24.1109   C.ar      1 RES1   0.0000
    73 H26     -1.9507   6.4120  24.8251   H         1 RES1   0.0000
    74 C40     -2.4677   8.3101  24.2857   C.ar      1 RES1   0.0000
    75 C41     -2.4799   9.2363  23.2416   C.ar      1 RES1   0.0000
    76 H27     -2.8463  10.1034  23.3679   H         1 RES1   0.0000
    77 C42     -1.9451   8.8672  22.0150   C.ar      1 RES1   0.0000
    78 H28     -1.9604   9.4856  21.2935   H         1 RES1   0.0000
    79 Br2     -3.0968   8.8325  25.9946   Br        1 RES1   0.0000
    80 P1       1.3132   7.6934  10.5572   P.3       2 RES2  -1.0000
    81 F1      -0.1086   7.9659  11.2395   F         2 RES2   0.0000
    82 F2       2.0463   8.0054  11.9254   F         2 RES2   0.0000
    83 F3       1.3862   9.2317  10.1377   F         2 RES2   0.0000
    84 F4       0.5582   7.3420   9.1781   F         2 RES2   0.0000
    85 F5       1.2150   6.1475  10.9571   F         2 RES2   0.0000
    86 F6       2.7146   7.4086   9.8443   F         2 RES2   0.0000
    87 P2       5.4001   7.0473   2.0628   P.3       3 RES3  -1.0000
    88 F7       6.1421   7.0889   3.4721   F         3 RES3   0.0000
    89 F8       5.5305   8.6334   1.9296   F         3 RES3   0.0000
    90 F9       3.9873   7.2371   2.7859   F         3 RES3   0.0000
    91 F10      5.2484   5.4516   2.1858   F         3 RES3   0.0000
    92 F11      6.7989   6.8686   1.3179   F         3 RES3   0.0000
    93 F12      4.6357   7.0030   0.6402   F         3 RES3   0.0000
    94 C43     -4.3085   7.2294   8.6020   C.3       4 RES4   0.0000
    95 H29     -5.2177   6.8924   8.7431   H         4 RES4   0.0000
    96 H30     -4.3498   8.1054   8.1656   H         4 RES4   0.0000
    97 H31     -3.8550   7.3165   9.4662   H         4 RES4   0.0000
    98 C44     -3.5603   6.2859   7.7467   C.1       4 RES4   0.0000
    99 N7      -2.9986   5.5551   7.0942   N.1       4 RES4   0.0000
   100 C45      1.5540   5.7580   1.4351   C.3       5 RES5   0.0000
   101 H32      0.8164   5.4944   0.8465   H         5 RES5   0.0000
   102 H33      1.9782   4.9578   1.8077   H         5 RES5   0.0000
   103 H34      2.2146   6.2679   0.9215   H         5 RES5   0.0000
   104 C46      1.0436   6.5795   2.5110   C.1       5 RES5   0.0000
   105 N8       0.6223   7.2424   3.3024   N.1       5 RES5   0.0000
@<TRIPOS>BOND
     1     1     2    1
     2     2     5   ar
     3     3     1    1
     4     4     1    1
     5     5     6    1
     6     7     5   ar
     7     8     7    1
     8     9     7   ar
     9    10     9    1
    10    11     9   ar
    11    12    11    1
    12    13     2   ar
    13    14     3   ar
    14    15    14   ar
    15    16    15    1
    16    17    15   ar
    17    18    17   ar
    18    19    18    1
    19    20     3   ar
    20    21     4   ar
    21    22    21   ar
    22    23    22    1
    23    24    22   ar
    24    25    24    1
    25    26    24   ar
    26    27    26    1
    27    28     4   ar
    28    29    28    1
    29    30    17    1
    30    31    30   ar
    31    32    31    1
    32    33    31   ar
    33    34    33    1
    34    35    33   ar
    35    36    35   ar
    36    37    36    1
    37    38    30   ar
    38    39    38    1
    39    40    35    1
    40    41     1    1
    41    42     1    1
    42    43     1    1
    43    44    41   ar
    44    45    44    1
    45    46    44   ar
    46    47    46    1
    47    48    46   ar
    48    49    48    1
    49    50    48   ar
    50    51    50    1
    51    52    41   ar
    52    53    42   ar
    53    54    53   ar
    54    55    54    1
    55    56    54   ar
    56    57    56   ar
    57    58    57    1
    58    59    42   ar
    59    60    43   ar
    60    61    60   ar
    61    62    61    1
    62    63    61   ar
    63    64    63    1
    64    65    63   ar
    65    66    65    1
    66    67    43   ar
    67    68    67    1
    68    69    56    1
    69    70    69   ar
    70    71    70    1
    71    72    70   ar
    72    73    72    1
    73    74    72   ar
    74    75    74   ar
    75    76    75    1
    76    77    69   ar
    77    78    77    1
    78    79    74    1
    79    11    13   ar
    80    13    14    1
    81    18    20   ar
    82    20    21    1
    83    26    28   ar
    84    36    38   ar
    85    50    52   ar
    86    52    53    1
    87    57    59   ar
    88    59    60    1
    89    65    67   ar
    90    75    77   ar
    91    80    81    1
    92    82    80    1
    93    83    80    1
    94    84    80    1
    95    85    80    1
    96    86    80    1
    97    87    88    1
    98    89    87    1
    99    90    87    1
   100    91    87    1
   101    92    87    1
   102    93    87    1
   103    94    95    1
   104    96    94    1
   105    97    94    1
   106    98    94    1
   107    99    98    3
   108   100   101    1
   109   102   100    1
   110   103   100    1
   111   104   100    1
   112   105   104    3
@<TRIPOS>SUBSTRUCTURE
     1 RES1        1 GROUP             0 ****  ****    0  
     2 RES2       80 GROUP             0 ****  ****    0  
     3 RES3       87 GROUP             0 ****  ****    0  
     4 RES4       94 GROUP             0 ****  ****    0  
     5 RES5      100 GROUP             0 ****  ****    0  
@<TRIPOS>CRYSIN
   10.1585   11.4649   22.6626   93.4240  100.5180  113.1240     2     1
