@<TRIPOS>MOLECULE
DOMREF
   104   110     1     0     0
SMALL
NO_CHARGES
****
Generated from the CSD

@<TRIPOS>ATOM
     1 C1       5.4008   4.1796   3.5035   C.3       1 RES1   0.0000
     2 C2       3.8259   5.4264   2.4194   C.2       1 RES1   0.0000
     3 H1       3.1817   6.0799   2.2680   H         1 RES1   0.0000
     4 C3       4.2437   4.5167   1.5362   C.2       1 RES1   0.0000
     5 H2       3.9513   4.4160   0.6591   H         1 RES1   0.0000
     6 C4       5.9677   2.6383   1.8089   C.ar      1 RES1   0.0000
     7 C5       6.0119   2.0138   0.5656   C.ar      1 RES1   0.0000
     8 C6       6.8746   0.9279   0.4621   C.ar      1 RES1   0.0000
     9 H3       6.9324   0.4905  -0.3565   H         1 RES1   0.0000
    10 C7       7.6567   0.4577   1.5139   C.ar      1 RES1   0.0000
    11 C8       7.5223   1.1413   2.7182   C.ar      1 RES1   0.0000
    12 C9       5.1887   2.4599  -0.6211   C.3       1 RES1   0.0000
    13 H4       5.4154   1.9261  -1.3863   H         1 RES1   0.0000
    14 H5       5.3731   3.3831  -0.8093   H         1 RES1   0.0000
    15 H6       4.2560   2.3538  -0.4216   H         1 RES1   0.0000
    16 C10      8.5839  -0.7163   1.3027   C.3       1 RES1   0.0000
    17 H7       8.5655  -0.9767   0.3787   H         1 RES1   0.0000
    18 H8       8.2980  -1.4524   1.8484   H         1 RES1   0.0000
    19 H9       9.4782  -0.4658   1.5464   H         1 RES1   0.0000
    20 C11      7.7518   1.6861   5.0057   C.3       1 RES1   0.0000
    21 C12      8.9301  -0.1967   4.3888   C.2       1 RES1   0.0000
    22 H10      9.2952  -0.8736   3.8658   H         1 RES1   0.0000
    23 C13      9.0687  -0.0410   5.7069   C.2       1 RES1   0.0000
    24 H11      9.5537  -0.5952   6.2749   H         1 RES1   0.0000
    25 C14      4.2725   5.9364   4.8356   C.ar      1 RES1   0.0000
    26 C15      5.1406   6.9615   5.2133   C.ar      1 RES1   0.0000
    27 C16      4.9284   7.5693   6.4433   C.ar      1 RES1   0.0000
    28 H12      5.5023   8.2490   6.7144   H         1 RES1   0.0000
    29 C17      3.8847   7.1942   7.2835   C.ar      1 RES1   0.0000
    30 C18      3.0174   6.2017   6.8515   C.ar      1 RES1   0.0000
    31 H13      2.3040   5.9568   7.3955   H         1 RES1   0.0000
    32 C19      3.1852   5.5607   5.6244   C.ar      1 RES1   0.0000
    33 C20      6.2736   7.3928   4.3210   C.3       1 RES1   0.0000
    34 H14      6.8391   6.6395   4.1352   H         1 RES1   0.0000
    35 H15      6.7849   8.0760   4.7606   H         1 RES1   0.0000
    36 H16      5.9195   7.7376   3.4981   H         1 RES1   0.0000
    37 C21      3.6889   7.8484   8.6274   C.3       1 RES1   0.0000
    38 H17      4.5424   8.0951   8.9908   H         1 RES1   0.0000
    39 H18      3.2533   7.2334   9.2222   H         1 RES1   0.0000
    40 H19      3.1456   8.6334   8.5250   H         1 RES1   0.0000
    41 C22      2.2055   4.4991   5.2006   C.3       1 RES1   0.0000
    42 H20      2.4226   4.1986   4.3149   H         1 RES1   0.0000
    43 H21      1.3171   4.8628   5.2063   H         1 RES1   0.0000
    44 H22      2.2522   3.7588   5.8099   H         1 RES1   0.0000
    45 C23      8.1383   1.4877   7.4588   C.ar      1 RES1   0.0000
    46 C24      8.8679   2.5422   8.0122   C.ar      1 RES1   0.0000
    47 C25      8.5930   2.9151   9.3278   C.ar      1 RES1   0.0000
    48 H23      9.0791   3.6089   9.7116   H         1 RES1   0.0000
    49 C26      7.6150   2.2810  10.0805   C.ar      1 RES1   0.0000
    50 C27      6.9302   1.2193   9.4988   C.ar      1 RES1   0.0000
    51 H24      6.2710   0.7862   9.9917   H         1 RES1   0.0000
    52 C28      7.1965   0.7839   8.2078   C.ar      1 RES1   0.0000
    53 C29      9.9146   3.2794   7.2286   C.3       1 RES1   0.0000
    54 H25     10.5156   3.7206   7.8333   H         1 RES1   0.0000
    55 H26      9.4921   3.9315   6.6648   H         1 RES1   0.0000
    56 H27     10.4055   2.6576   6.6864   H         1 RES1   0.0000
    57 C30      7.3284   2.6926  11.4978   C.3       1 RES1   0.0000
    58 H28      6.3836   2.6427  11.6607   H         1 RES1   0.0000
    59 H29      7.6299   3.5934  11.6366   H         1 RES1   0.0000
    60 H30      7.7886   2.1045  12.1011   H         1 RES1   0.0000
    61 C31      6.5090  -0.4471   7.6802   C.3       1 RES1   0.0000
    62 H31      6.3070  -0.3267   6.7494   H         1 RES1   0.0000
    63 H32      5.6950  -0.5929   8.1679   H         1 RES1   0.0000
    64 H33      7.0863  -1.2066   7.7868   H         1 RES1   0.0000
    65 C32      8.3582   4.2992   4.0128   C.3       1 RES1   0.0000
    66 H34      8.2711   5.1116   4.5357   H         1 RES1   0.0000
    67 H35      9.1069   3.8157   4.3958   H         1 RES1   0.0000
    68 C33      7.6559   5.5236   1.1411   C.3       1 RES1   0.0000
    69 H36      8.0899   6.0623   0.4755   H         1 RES1   0.0000
    70 H37      7.0164   6.0576   1.6180   H         1 RES1   0.0000
    71 H38      7.2060   4.7900   0.7154   H         1 RES1   0.0000
    72 C34      9.8582   3.4750   1.4648   C.3       1 RES1   0.0000
    73 H39     10.2787   3.8233   0.6751   H         1 RES1   0.0000
    74 H40      9.2370   2.7857   1.2191   H         1 RES1   0.0000
    75 H41     10.5273   3.1096   2.0486   H         1 RES1   0.0000
    76 C35     10.1538   6.2948   2.5332   C.3       1 RES1   0.0000
    77 H42     10.5657   6.4774   1.6855   H         1 RES1   0.0000
    78 H43     10.8299   6.0637   3.1743   H         1 RES1   0.0000
    79 H44      9.6809   7.0743   2.8337   H         1 RES1   0.0000
    80 C36      4.9647   2.0889   5.3541   C.3       1 RES1   0.0000
    81 H45      5.2871   1.7208   6.1917   H         1 RES1   0.0000
    82 H46      4.3193   2.7733   5.5906   H         1 RES1   0.0000
    83 C37      2.9737   1.2729   3.0664   C.3       1 RES1   0.0000
    84 H47      2.4097   0.5477   2.7879   H         1 RES1   0.0000
    85 H48      3.5611   1.5159   2.3471   H         1 RES1   0.0000
    86 H49      2.4303   2.0276   3.3047   H         1 RES1   0.0000
    87 C38      5.0370  -0.7147   3.9928   C.3       1 RES1   0.0000
    88 H50      4.4728  -1.4786   3.8521   H         1 RES1   0.0000
    89 H51      5.6902  -0.9189   4.6660   H         1 RES1   0.0000
    90 H52      5.4823  -0.4904   3.1724   H         1 RES1   0.0000
    91 C39      2.7672   0.0186   5.7926   C.3       1 RES1   0.0000
    92 H53      2.2563  -0.6755   5.3700   H         1 RES1   0.0000
    93 H54      2.1759   0.7109   6.0973   H         1 RES1   0.0000
    94 H55      3.2452  -0.3462   6.5410   H         1 RES1   0.0000
    95 Fe1      6.6165   3.1227   4.5051   Fe        1 RES1   0.0000
    96 N1       4.5247   5.2245   3.6078   N.pl3     1 RES1   0.0000
    97 N2       5.2073   3.7461   2.1911   N.pl3     1 RES1   0.0000
    98 N3       6.7027   2.2105   2.8610   N.ar      1 RES1   0.0000
    99 N4       8.1265   0.8610   3.9505   N.pl3     1 RES1   0.0000
   100 N5       8.3576   1.1001   6.0834   N.pl3     1 RES1   0.0000
   101 N6       6.5680   4.0347   6.0841   N.1       1 RES1   0.0000
   102 N7       6.5169   4.5740   7.0536   N.1       1 RES1   0.0000
   103 Si1      8.9437   4.8566   2.3483   Si        1 RES1   0.0000
   104 Si2      3.9928   0.7389   4.5552   Si        1 RES1   0.0000
@<TRIPOS>BOND
     1     1    95    1
     2     2     3    1
     3     4     2    2
     4     5     4    1
     5     6     7   ar
     6     7     8   ar
     7     8     9    1
     8    10     8   ar
     9    11    10   ar
    10    12     7    1
    11    13    12    1
    12    14    12    1
    13    15    12    1
    14    16    10    1
    15    17    16    1
    16    18    16    1
    17    19    16    1
    18    20    95    1
    19    21    22    1
    20    23    21    2
    21    24    23    1
    22    25    26   ar
    23    26    27   ar
    24    27    28    1
    25    29    27   ar
    26    30    29   ar
    27    31    30    1
    28    32    25   ar
    29    33    26    1
    30    34    33    1
    31    35    33    1
    32    36    33    1
    33    37    29    1
    34    38    37    1
    35    39    37    1
    36    40    37    1
    37    41    32    1
    38    42    41    1
    39    43    41    1
    40    44    41    1
    41    45    46   ar
    42    46    47   ar
    43    47    48    1
    44    49    47   ar
    45    50    49   ar
    46    51    50    1
    47    52    45   ar
    48    53    46    1
    49    54    53    1
    50    55    53    1
    51    56    53    1
    52    57    49    1
    53    58    57    1
    54    59    57    1
    55    60    57    1
    56    61    52    1
    57    62    61    1
    58    63    61    1
    59    64    61    1
    60    65    66    1
    61    67    65    1
    62    68    69    1
    63    70    68    1
    64    71    68    1
    65    72    73    1
    66    74    72    1
    67    75    72    1
    68    76    77    1
    69    78    76    1
    70    79    76    1
    71    80    81    1
    72    82    80    1
    73    83    84    1
    74    85    83    1
    75    86    83    1
    76    87    88    1
    77    89    87    1
    78    90    87    1
    79    91    92    1
    80    93    91    1
    81    94    91    1
    82    95    65    1
    83    96     1    1
    84    97     1    1
    85    98     6   ar
    86    99    11    1
    87   100    20    1
    88   101    95    1
    89   102   101    3
    90   103    65    1
    91   104    80    1
    92     2    96    1
    93     4    97    1
    94     6    97    1
    95    11    98   ar
    96    20    99    1
    97    21    99    1
    98    23   100    1
    99    25    96    1
   100    30    32   ar
   101    45   100    1
   102    50    52   ar
   103    68   103    1
   104    72   103    1
   105    76   103    1
   106    80    95    1
   107    83   104    1
   108    87   104    1
   109    91   104    1
   110    95    98    1
@<TRIPOS>SUBSTRUCTURE
     1 RES1        1 GROUP             0 ****  ****    0  
@<TRIPOS>CRYSIN
   10.1910   11.3415   17.6609   93.0500   99.0180   91.5750     2     1
