@<TRIPOS>MOLECULE
DOQRAC01
   142   150     3     0     0
SMALL
USER_CHARGES
****
Generated from the CSD

@<TRIPOS>ATOM
     1 Fe1     13.3002   9.2600  22.5268   Fe        1 RES1   2.0000
     2 N1      13.0259  10.7695  21.1681   N.3       1 RES1   0.0000
     3 N2      11.4963   8.5667  21.8158   N.3       1 RES1   0.0000
     4 N3      12.1511  10.4144  23.7773   N.3       1 RES1   0.0000
     5 N4      14.2942   8.1668  21.2397   N.1       1 RES1   0.0000
     6 N5      13.4696   7.8316  23.8749   N.1       1 RES1   0.0000
     7 N6      14.9904  10.0133  23.2754   N.1       1 RES1   0.0000
     8 C1      11.9236  10.3955  20.2550   C.3       1 RES1   0.0000
     9 H1      11.2121  11.0636  20.3389   H         1 RES1   0.0000
    10 H2      12.2565  10.4367  19.3346   H         1 RES1   0.0000
    11 C2      11.3610   9.1160  20.4677   C.3       1 RES1   0.0000
    12 H3      11.7765   8.4903  19.8393   H         1 RES1   0.0000
    13 H4      10.4072   9.1606  20.2488   H         1 RES1   0.0000
    14 C3      10.4333   9.0489  22.7029   C.3       1 RES1   0.0000
    15 H5       9.8358   9.6229  22.1802   H         1 RES1   0.0000
    16 H6       9.9099   8.2762  22.9991   H         1 RES1   0.0000
    17 C4      10.8412   9.7663  23.8463   C.3       1 RES1   0.0000
    18 H7      10.8444   9.1512  24.6086   H         1 RES1   0.0000
    19 H8      10.1687  10.4555  24.0292   H         1 RES1   0.0000
    20 C5      11.9991  11.7387  23.1613   C.3       1 RES1   0.0000
    21 H9      11.0426  11.8927  23.0120   H         1 RES1   0.0000
    22 H10     12.3031  12.4090  23.8077   H         1 RES1   0.0000
    23 C6      12.6623  11.9668  21.9613   C.3       1 RES1   0.0000
    24 H11     13.4842  12.4631  22.1570   H         1 RES1   0.0000
    25 H12     12.0983  12.5419  21.4050   H         1 RES1   0.0000
    26 C7      14.2158  11.0894  20.3389   C.3       1 RES1   0.0000
    27 H13     14.9539  11.3388  20.9157   H         1 RES1   0.0000
    28 H14     14.0066  11.8269  19.7440   H         1 RES1   0.0000
    29 H15     14.4629  10.3120  19.8136   H         1 RES1   0.0000
    30 C8      11.3693   7.0954  21.7038   C.3       1 RES1   0.0000
    31 H16     11.4556   6.6955  22.5819   H         1 RES1   0.0000
    32 H17     12.0688   6.7543  21.1218   H         1 RES1   0.0000
    33 H18     10.5019   6.8743  21.3304   H         1 RES1   0.0000
    34 C9      12.6661  10.5508  25.1622   C.3       1 RES1   0.0000
    35 H19     13.5348  10.9789  25.1416   H         1 RES1   0.0000
    36 H20     12.7455   9.6722  25.5640   H         1 RES1   0.0000
    37 H21     12.0519  11.0906  25.6824   H         1 RES1   0.0000
    38 C10     14.8510   7.5129  20.4844   C.1       1 RES1   0.0000
    39 C11     15.5300   6.6873  19.4891   C.3       1 RES1   0.0000
    40 H22     16.4313   7.0225  19.3526   H         1 RES1   0.0000
    41 H23     15.0411   6.7214  18.6521   H         1 RES1   0.0000
    42 H24     15.5719   5.7711  19.8033   H         1 RES1   0.0000
    43 C12     15.9009  10.3309  23.8692   C.1       1 RES1   0.0000
    44 C13     17.0493  10.7484  24.6779   C.3       1 RES1   0.0000
    45 H25     16.8079  10.7307  25.6181   H         1 RES1   0.0000
    46 H26     17.3113  11.6493  24.4283   H         1 RES1   0.0000
    47 H27     17.7911  10.1427  24.5236   H         1 RES1   0.0000
    48 C14     13.6747   7.0625  24.6784   C.1       1 RES1   0.0000
    49 C15     13.9294   6.1016  25.7417   C.3       1 RES1   0.0000
    50 H28     13.2561   6.1980  26.4318   H         1 RES1   0.0000
    51 H29     14.8077   6.2639  26.1202   H         1 RES1   0.0000
    52 H30     13.8935   5.2019  25.3786   H         1 RES1   0.0000
    53 B1       9.9984   8.7584  16.1091   B         2 RES2  -1.0000
    54 C16     10.5349   7.2377  15.7852   C.ar      2 RES2   0.0000
    55 C17     10.1041   6.4662  14.7057   C.ar      2 RES2   0.0000
    56 H31      9.4596   6.8320  14.1275   H         2 RES2   0.0000
    57 C18     10.5757   5.1937  14.4378   C.ar      2 RES2   0.0000
    58 H32     10.2491   4.7232  13.6923   H         2 RES2   0.0000
    59 C19     11.5128   4.6127  15.2503   C.ar      2 RES2   0.0000
    60 H33     11.8494   3.7565  15.0598   H         2 RES2   0.0000
    61 C20     11.9488   5.3101  16.3499   C.ar      2 RES2   0.0000
    62 H34     12.5861   4.9232  16.9242   H         2 RES2   0.0000
    63 C21     11.4571   6.5885  16.6203   C.ar      2 RES2   0.0000
    64 H35     11.7540   7.0307  17.3929   H         2 RES2   0.0000
    65 C22      8.9408   9.2324  14.9408   C.ar      2 RES2   0.0000
    66 C23      7.5639   9.0795  15.0809   C.ar      2 RES2   0.0000
    67 H36      7.2252   8.7231  15.8812   H         2 RES2   0.0000
    68 C24      6.6733   9.4347  14.0734   C.ar      2 RES2   0.0000
    69 H37      5.7499   9.3088  14.2048   H         2 RES2   0.0000
    70 C25      7.1176   9.9639  12.9012   C.ar      2 RES2   0.0000
    71 H38      6.5129  10.2050  12.2245   H         2 RES2   0.0000
    72 C26      8.4656  10.1392  12.7246   C.ar      2 RES2   0.0000
    73 H39      8.7896  10.5108  11.9257   H         2 RES2   0.0000
    74 C27      9.3508   9.7652  13.7276   C.ar      2 RES2   0.0000
    75 H40     10.2707   9.8792  13.5764   H         2 RES2   0.0000
    76 C28     11.2496   9.8428  16.1810   C.ar      2 RES2   0.0000
    77 C29     11.0095  11.2212  16.1511   C.ar      2 RES2   0.0000
    78 H41     10.1260  11.5187  16.0357   H         2 RES2   0.0000
    79 C30     12.0176  12.1773  16.2832   C.ar      2 RES2   0.0000
    80 H42     11.8047  13.0923  16.2752   H         2 RES2   0.0000
    81 C31     13.3322  11.7751  16.4264   C.ar      2 RES2   0.0000
    82 H43     14.0175  12.4102  16.5379   H         2 RES2   0.0000
    83 C32     13.6153  10.4544  16.4040   C.ar      2 RES2   0.0000
    84 H44     14.5066  10.1686  16.4761   H         2 RES2   0.0000
    85 C33     12.6053   9.5182  16.2742   C.ar      2 RES2   0.0000
    86 H45     12.8443   8.6091  16.2469   H         2 RES2   0.0000
    87 C34      9.1847   8.7502  17.5541   C.ar      2 RES2   0.0000
    88 C35      8.7841   7.5953  18.2087   C.ar      2 RES2   0.0000
    89 H46      9.0183   6.7661  17.8307   H         2 RES2   0.0000
    90 C36      8.0643   7.5988  19.3843   C.ar      2 RES2   0.0000
    91 H47      7.8224   6.7849  19.7878   H         2 RES2   0.0000
    92 C37      7.6958   8.7866  19.9686   C.ar      2 RES2   0.0000
    93 H48      7.2242   8.7984  20.7818   H         2 RES2   0.0000
    94 C38      8.0355   9.9545  19.3343   C.ar      2 RES2   0.0000
    95 H49      7.7684  10.7790  19.7003   H         2 RES2   0.0000
    96 C39      8.7626   9.9275  18.1662   C.ar      2 RES2   0.0000
    97 H50      8.9880  10.7460  17.7611   H         2 RES2   0.0000
    98 B2      19.3002   9.2465  16.0566   B         3 RES3  -1.0000
    99 C40     18.6146  10.6849  16.4104   C.ar      3 RES3   0.0000
   100 C41     19.1924  11.8868  16.0144   C.ar      3 RES3   0.0000
   101 H51     19.9485  11.8539  15.4563   H         3 RES3   0.0000
   102 C42     18.7158  13.1253  16.3952   C.ar      3 RES3   0.0000
   103 H52     19.1419  13.9050  16.0873   H         3 RES3   0.0000
   104 C43     17.6259  13.2229  17.2188   C.ar      3 RES3   0.0000
   105 H53     17.2903  14.0615  17.4804   H         3 RES3   0.0000
   106 C44     17.0347  12.0668  17.6519   C.ar      3 RES3   0.0000
   107 H54     16.2913  12.1138  18.2247   H         3 RES3   0.0000
   108 C45     17.5133  10.8248  17.2605   C.ar      3 RES3   0.0000
   109 H55     17.0834  10.0510  17.5783   H         3 RES3   0.0000
   110 C46     19.8120   9.1689  14.4878   C.ar      3 RES3   0.0000
   111 C47     19.2575   9.9427  13.4691   C.ar      3 RES3   0.0000
   112 H56     18.5827  10.5590  13.6872   H         3 RES3   0.0000
   113 C48     19.6633   9.8393  12.1480   C.ar      3 RES3   0.0000
   114 H57     19.2712  10.3920  11.4957   H         3 RES3   0.0000
   115 C49     20.6226   8.9478  11.7836   C.ar      3 RES3   0.0000
   116 H58     20.8982   8.8819  10.8879   H         3 RES3   0.0000
   117 C50     21.1778   8.1457  12.7467   C.ar      3 RES3   0.0000
   118 H59     21.8362   7.5165  12.5129   H         3 RES3   0.0000
   119 C51     20.7720   8.2633  14.0642   C.ar      3 RES3   0.0000
   120 H60     21.1679   7.6999  14.7044   H         3 RES3   0.0000
   121 C52     20.5575   9.1712  17.1063   C.ar      3 RES3   0.0000
   122 C53     21.8669   9.5523  16.7882   C.ar      3 RES3   0.0000
   123 H61     22.0654   9.7757  15.8967   H         3 RES3   0.0000
   124 C54     22.8850   9.6123  17.7354   C.ar      3 RES3   0.0000
   125 H62     23.7475   9.8816  17.4753   H         3 RES3   0.0000
   126 C55     22.6409   9.2818  19.0436   C.ar      3 RES3   0.0000
   127 H63     23.3380   9.2900  19.6745   H         3 RES3   0.0000
   128 C56     21.3694   8.9395  19.4144   C.ar      3 RES3   0.0000
   129 H64     21.1800   8.7396  20.3132   H         3 RES3   0.0000
   130 C57     20.3533   8.8866  18.4559   C.ar      3 RES3   0.0000
   131 H65     19.4887   8.6479  18.7346   H         3 RES3   0.0000
   132 C58     18.2517   7.9857  16.2150   C.ar      3 RES3   0.0000
   133 C59     16.9965   8.0316  15.5820   C.ar      3 RES3   0.0000
   134 H66     16.7600   8.8113  15.1138   H         3 RES3   0.0000
   135 C60     16.0927   6.9778  15.6186   C.ar      3 RES3   0.0000
   136 H67     15.2628   7.0554  15.1834   H         3 RES3   0.0000
   137 C61     16.4074   5.8335  16.2881   C.ar      3 RES3   0.0000
   138 H68     15.7994   5.1172  16.3113   H         3 RES3   0.0000
   139 C62     17.6313   5.7358  16.9319   C.ar      3 RES3   0.0000
   140 H69     17.8568   4.9502  17.3955   H         3 RES3   0.0000
   141 C63     18.5186   6.7967  16.8912   C.ar      3 RES3   0.0000
   142 H70     19.3410   6.7120  17.3414   H         3 RES3   0.0000
@<TRIPOS>BOND
     1     1     2    1
     2     2     8    1
     3     3     1    1
     4     4     1    1
     5     5     1    1
     6     6     1    1
     7     7     1    1
     8     8     9    1
     9    10     8    1
    10    11     3    1
    11    12    11    1
    12    13    11    1
    13    14     3    1
    14    15    14    1
    15    16    14    1
    16    17     4    1
    17    18    17    1
    18    19    17    1
    19    20     4    1
    20    21    20    1
    21    22    20    1
    22    23     2    1
    23    24    23    1
    24    25    23    1
    25    26     2    1
    26    27    26    1
    27    28    26    1
    28    29    26    1
    29    30     3    1
    30    31    30    1
    31    32    30    1
    32    33    30    1
    33    34     4    1
    34    35    34    1
    35    36    34    1
    36    37    34    1
    37    38     5    3
    38    39    38    1
    39    40    39    1
    40    41    39    1
    41    42    39    1
    42    43     7    3
    43    44    43    1
    44    45    44    1
    45    46    44    1
    46    47    44    1
    47    48     6    3
    48    49    48    1
    49    50    49    1
    50    51    49    1
    51    52    49    1
    52     8    11    1
    53    14    17    1
    54    20    23    1
    55    53    54    1
    56    54    55   ar
    57    55    56    1
    58    57    55   ar
    59    58    57    1
    60    59    57   ar
    61    60    59    1
    62    61    59   ar
    63    62    61    1
    64    63    54   ar
    65    64    63    1
    66    65    53    1
    67    66    65   ar
    68    67    66    1
    69    68    66   ar
    70    69    68    1
    71    70    68   ar
    72    71    70    1
    73    72    70   ar
    74    73    72    1
    75    74    65   ar
    76    75    74    1
    77    76    53    1
    78    77    76   ar
    79    78    77    1
    80    79    77   ar
    81    80    79    1
    82    81    79   ar
    83    82    81    1
    84    83    81   ar
    85    84    83    1
    86    85    76   ar
    87    86    85    1
    88    87    53    1
    89    88    87   ar
    90    89    88    1
    91    90    88   ar
    92    91    90    1
    93    92    90   ar
    94    93    92    1
    95    94    92   ar
    96    95    94    1
    97    96    87   ar
    98    97    96    1
    99    61    63   ar
   100    72    74   ar
   101    83    85   ar
   102    94    96   ar
   103    98    99    1
   104    99   100   ar
   105   100   101    1
   106   102   100   ar
   107   103   102    1
   108   104   102   ar
   109   105   104    1
   110   106   104   ar
   111   107   106    1
   112   108    99   ar
   113   109   108    1
   114   110    98    1
   115   111   110   ar
   116   112   111    1
   117   113   111   ar
   118   114   113    1
   119   115   113   ar
   120   116   115    1
   121   117   115   ar
   122   118   117    1
   123   119   110   ar
   124   120   119    1
   125   121    98    1
   126   122   121   ar
   127   123   122    1
   128   124   122   ar
   129   125   124    1
   130   126   124   ar
   131   127   126    1
   132   128   126   ar
   133   129   128    1
   134   130   121   ar
   135   131   130    1
   136   132    98    1
   137   133   132   ar
   138   134   133    1
   139   135   133   ar
   140   136   135    1
   141   137   135   ar
   142   138   137    1
   143   139   137   ar
   144   140   139    1
   145   141   132   ar
   146   142   141    1
   147   106   108   ar
   148   117   119   ar
   149   128   130   ar
   150   139   141   ar
@<TRIPOS>SUBSTRUCTURE
     1 RES1        1 GROUP             0 ****  ****    0  
     2 RES2       53 GROUP             0 ****  ****    0  
     3 RES3       98 GROUP             0 ****  ****    0  
@<TRIPOS>CRYSIN
   18.3600   11.7610   25.7540   90.0000   90.7200   90.0000    14     1
