@<TRIPOS>MOLECULE
DOQRAC
   142   150     3     0     0
SMALL
USER_CHARGES
****
Generated from the CSD

@<TRIPOS>ATOM
     1 Fe1     13.5339   9.2306  22.9452   Fe        1 RES1   2.0000
     2 N1      13.1774  10.7790  21.5086   N.3       1 RES1   0.0000
     3 N2      11.6509   8.5031  22.2034   N.3       1 RES1   0.0000
     4 N3      12.2637  10.4303  24.1832   N.3       1 RES1   0.0000
     5 N4      14.6238   8.0609  21.6061   N.1       1 RES1   0.0000
     6 N5      13.7315   7.7393  24.4196   N.1       1 RES1   0.0000
     7 N6      15.3131  10.0874  23.7644   N.1       1 RES1   0.0000
     8 C1      12.0620  10.3700  20.6385   C.3       1 RES1   0.0000
     9 H1      11.3248  10.9847  20.7750   H         1 RES1   0.0000
    10 H2      12.3458  10.4574  19.7142   H         1 RES1   0.0000
    11 C2      11.5774   9.0316  20.8354   C.3       1 RES1   0.0000
    12 H3      12.0789   8.4393  20.2551   H         1 RES1   0.0000
    13 H4      10.6506   8.9997  20.5492   H         1 RES1   0.0000
    14 C3      10.5721   9.0623  23.0384   C.3       1 RES1   0.0000
    15 H5      10.0749   9.7055  22.5106   H         1 RES1   0.0000
    16 H6       9.9618   8.3447  23.2721   H         1 RES1   0.0000
    17 C4      10.9955   9.6925  24.2279   C.3       1 RES1   0.0000
    18 H7      11.0673   9.0139  24.9158   H         1 RES1   0.0000
    19 H8      10.3000  10.3097  24.5036   H         1 RES1   0.0000
    20 C5      12.0774  11.7095  23.4979   C.3       1 RES1   0.0000
    21 H9      11.1336  11.7946  23.2879   H         1 RES1   0.0000
    22 H10     12.2898  12.4130  24.1307   H         1 RES1   0.0000
    23 C6      12.8019  11.9672  22.3163   C.3       1 RES1   0.0000
    24 H11     13.6127  12.4425  22.5553   H         1 RES1   0.0000
    25 H12     12.2735  12.5584  21.7597   H         1 RES1   0.0000
    26 C7      14.3431  11.1148  20.6516   C.3       1 RES1   0.0000
    27 H13     14.5841  10.3487  20.1264   H         1 RES1   0.0000
    28 H14     15.0838  11.3702  21.2056   H         1 RES1   0.0000
    29 H15     14.1138  11.8431  20.0713   H         1 RES1   0.0000
    30 C8      11.5592   7.0430  22.1115   C.3       1 RES1   0.0000
    31 H16     12.2453   6.7155  21.5260   H         1 RES1   0.0000
    32 H17     10.6992   6.7970  21.7649   H         1 RES1   0.0000
    33 H18     11.6761   6.6599  22.9833   H         1 RES1   0.0000
    34 C9      12.7820  10.6537  25.5591   C.3       1 RES1   0.0000
    35 H19     13.6404  11.0782  25.5145   H         1 RES1   0.0000
    36 H20     12.8644   9.8107  26.0108   H         1 RES1   0.0000
    37 H21     12.1721  11.2177  26.0423   H         1 RES1   0.0000
    38 C10     15.1890   7.4378  20.8669   C.1       1 RES1   0.0000
    39 C11     15.8995   6.6185  19.8849   C.3       1 RES1   0.0000
    40 H22     16.8441   6.7805  19.9558   H         1 RES1   0.0000
    41 H23     15.6018   6.8455  19.0000   H         1 RES1   0.0000
    42 H24     15.7214   5.6892  20.0529   H         1 RES1   0.0000
    43 C12     16.1807  10.4007  24.4038   C.1       1 RES1   0.0000
    44 C13     17.2759  10.8571  25.2440   C.3       1 RES1   0.0000
    45 H25     16.9227  11.2803  26.0291   H         1 RES1   0.0000
    46 H26     17.8139  11.4849  24.7557   H         1 RES1   0.0000
    47 H27     17.8171  10.1063  25.5014   H         1 RES1   0.0000
    48 C14     13.9372   7.0193  25.2493   C.1       1 RES1   0.0000
    49 C15     14.2117   6.0936  26.3285   C.3       1 RES1   0.0000
    50 H28     13.5545   6.2023  27.0191   H         1 RES1   0.0000
    51 H29     15.0845   6.2709  26.6856   H         1 RES1   0.0000
    52 H30     14.1804   5.1950  25.9924   H         1 RES1   0.0000
    53 B1      10.1475   8.8613  16.4451   B         2 RES2  -1.0000
    54 C16     10.6955   7.3314  16.1432   C.ar      2 RES2   0.0000
    55 C17     10.2846   6.5712  15.0430   C.ar      2 RES2   0.0000
    56 H31      9.6640   6.9401  14.4548   H         2 RES2   0.0000
    57 C18     10.7585   5.2920  14.7856   C.ar      2 RES2   0.0000
    58 H32     10.4414   4.8084  14.0583   H         2 RES2   0.0000
    59 C19     11.7024   4.7528  15.6233   C.ar      2 RES2   0.0000
    60 H33     12.0653   3.9193  15.4263   H         2 RES2   0.0000
    61 C20     12.1152   5.4102  16.7340   C.ar      2 RES2   0.0000
    62 H34     12.7284   5.0212  17.3143   H         2 RES2   0.0000
    63 C21     11.5933   6.6989  16.9939   C.ar      2 RES2   0.0000
    64 H35     11.8621   7.1423  17.7659   H         2 RES2   0.0000
    65 C22      9.0836   9.2917  15.2885   C.ar      2 RES2   0.0000
    66 C23      7.6931   9.1628  15.4237   C.ar      2 RES2   0.0000
    67 H36      7.3619   8.8542  16.2351   H         2 RES2   0.0000
    68 C24      6.7869   9.4631  14.4312   C.ar      2 RES2   0.0000
    69 H37      5.8762   9.3260  14.5651   H         2 RES2   0.0000
    70 C25      7.2457   9.9656  13.2470   C.ar      2 RES2   0.0000
    71 H38      6.6441  10.1891  12.5748   H         2 RES2   0.0000
    72 C26      8.5793  10.1406  13.0474   C.ar      2 RES2   0.0000
    73 H39      8.8865  10.4894  12.2413   H         2 RES2   0.0000
    74 C27      9.4836   9.7977  14.0504   C.ar      2 RES2   0.0000
    75 H40     10.3925   9.9112  13.8903   H         2 RES2   0.0000
    76 C28     11.3930   9.9573  16.4990   C.ar      2 RES2   0.0000
    77 C29     11.1294  11.3383  16.4399   C.ar      2 RES2   0.0000
    78 H41     10.2479  11.6102  16.3243   H         2 RES2   0.0000
    79 C30     12.1125  12.3196  16.5475   C.ar      2 RES2   0.0000
    80 H42     11.8913  13.2228  16.5081   H         2 RES2   0.0000
    81 C31     13.4275  11.9164  16.7182   C.ar      2 RES2   0.0000
    82 H43     14.0987  12.5501  16.8259   H         2 RES2   0.0000
    83 C32     13.7301  10.5993  16.7235   C.ar      2 RES2   0.0000
    84 H44     14.6174  10.3321  16.7996   H         2 RES2   0.0000
    85 C33     12.7304   9.6405  16.6184   C.ar      2 RES2   0.0000
    86 H45     12.9758   8.7431  16.6289   H         2 RES2   0.0000
    87 C34      9.3476   8.8578  17.9030   C.ar      2 RES2   0.0000
    88 C35      8.9011   7.6980  18.5389   C.ar      2 RES2   0.0000
    89 H46      9.1045   6.8774  18.1519   H         2 RES2   0.0000
    90 C36      8.1767   7.7050  19.7053   C.ar      2 RES2   0.0000
    91 H47      7.9033   6.9011  20.0844   H         2 RES2   0.0000
    92 C37      7.8540   8.8873  20.3095   C.ar      2 RES2   0.0000
    93 H48      7.3808   8.8933  21.1111   H         2 RES2   0.0000
    94 C38      8.2338  10.0484  19.7300   C.ar      2 RES2   0.0000
    95 H49      8.0009  10.8594  20.1212   H         2 RES2   0.0000
    96 C39      8.9675  10.0295  18.5549   C.ar      2 RES2   0.0000
    97 H50      9.2206  10.8429  18.1808   H         2 RES2   0.0000
    98 B2      19.5254   9.2255  16.3874   B         3 RES3  -1.0000
    99 C40     18.8111  10.6573  16.7195   C.ar      3 RES3   0.0000
   100 C41     19.3486  11.8597  16.3033   C.ar      3 RES3   0.0000
   101 H51     20.0900  11.8289  15.7414   H         3 RES3   0.0000
   102 C42     18.8613  13.1105  16.6604   C.ar      3 RES3   0.0000
   103 H52     19.2636  13.8826  16.3322   H         3 RES3   0.0000
   104 C43     17.7824  13.1980  17.5007   C.ar      3 RES3   0.0000
   105 H53     17.4378  14.0256  17.7475   H         3 RES3   0.0000
   106 C44     17.2261  12.0488  17.9681   C.ar      3 RES3   0.0000
   107 H54     16.5031  12.0949  18.5510   H         3 RES3   0.0000
   108 C45     17.7155  10.8192  17.5926   C.ar      3 RES3   0.0000
   109 H55     17.3020  10.0566  17.9287   H         3 RES3   0.0000
   110 C46     20.0213   9.1451  14.8277   C.ar      3 RES3   0.0000
   111 C47     19.4328   9.8734  13.7931   C.ar      3 RES3   0.0000
   112 H56     18.7359  10.4527  14.0005   H         3 RES3   0.0000
   113 C48     19.8277   9.7776  12.4802   C.ar      3 RES3   0.0000
   114 H57     19.4161  10.3049  11.8343   H         3 RES3   0.0000
   115 C49     20.8097   8.9228  12.1205   C.ar      3 RES3   0.0000
   116 H58     21.0712   8.8613  11.2304   H         3 RES3   0.0000
   117 C50     21.4117   8.1531  13.0658   C.ar      3 RES3   0.0000
   118 H59     22.0829   7.5537  12.8295   H         3 RES3   0.0000
   119 C51     21.0055   8.2785  14.4023   C.ar      3 RES3   0.0000
   120 H60     21.4228   7.7452  15.0377   H         3 RES3   0.0000
   121 C52     20.7597   9.1616  17.4455   C.ar      3 RES3   0.0000
   122 C53     22.0663   9.5684  17.1331   C.ar      3 RES3   0.0000
   123 H61     22.2613   9.8001  16.2534   H         3 RES3   0.0000
   124 C54     23.0779   9.6417  18.0810   C.ar      3 RES3   0.0000
   125 H62     23.9283   9.9230  17.8315   H         3 RES3   0.0000
   126 C55     22.8308   9.3047  19.3676   C.ar      3 RES3   0.0000
   127 H63     23.5175   9.3354  19.9952   H         3 RES3   0.0000
   128 C56     21.5755   8.9181  19.7510   C.ar      3 RES3   0.0000
   129 H64     21.3989   8.7017  20.6385   H         3 RES3   0.0000
   130 C57     20.5621   8.8531  18.7926   C.ar      3 RES3   0.0000
   131 H65     19.7116   8.5906  19.0656   H         3 RES3   0.0000
   132 C58     18.4613   7.9592  16.5607   C.ar      3 RES3   0.0000
   133 C59     17.1967   8.0018  15.9646   C.ar      3 RES3   0.0000
   134 H66     16.9390   8.7786  15.5209   H         3 RES3   0.0000
   135 C60     16.3088   6.9354  16.0066   C.ar      3 RES3   0.0000
   136 H67     15.4656   7.0181  15.6233   H         3 RES3   0.0000
   137 C61     16.6635   5.7897  16.5974   C.ar      3 RES3   0.0000
   138 H68     16.0784   5.0673  16.5974   H         3 RES3   0.0000
   139 C62     17.8985   5.6762  17.2092   C.ar      3 RES3   0.0000
   140 H69     18.1397   4.8888  17.6398   H         3 RES3   0.0000
   141 C63     18.7587   6.7427  17.1725   C.ar      3 RES3   0.0000
   142 H70     19.5907   6.6481  17.5795   H         3 RES3   0.0000
@<TRIPOS>BOND
     1     1     2    1
     2     2     8    1
     3     3     1    1
     4     4     1    1
     5     5     1    1
     6     6     1    1
     7     7     1    1
     8     8     9    1
     9    10     8    1
    10    11     3    1
    11    12    11    1
    12    13    11    1
    13    14     3    1
    14    15    14    1
    15    16    14    1
    16    17     4    1
    17    18    17    1
    18    19    17    1
    19    20     4    1
    20    21    20    1
    21    22    20    1
    22    23     2    1
    23    24    23    1
    24    25    23    1
    25    26     2    1
    26    27    26    1
    27    28    26    1
    28    29    26    1
    29    30     3    1
    30    31    30    1
    31    32    30    1
    32    33    30    1
    33    34     4    1
    34    35    34    1
    35    36    34    1
    36    37    34    1
    37    38     5    3
    38    39    38    1
    39    40    39    1
    40    41    39    1
    41    42    39    1
    42    43     7    3
    43    44    43    1
    44    45    44    1
    45    46    44    1
    46    47    44    1
    47    48     6    3
    48    49    48    1
    49    50    49    1
    50    51    49    1
    51    52    49    1
    52     8    11    1
    53    14    17    1
    54    20    23    1
    55    53    54    1
    56    54    55   ar
    57    55    56    1
    58    57    55   ar
    59    58    57    1
    60    59    57   ar
    61    60    59    1
    62    61    59   ar
    63    62    61    1
    64    63    54   ar
    65    64    63    1
    66    65    53    1
    67    66    65   ar
    68    67    66    1
    69    68    66   ar
    70    69    68    1
    71    70    68   ar
    72    71    70    1
    73    72    70   ar
    74    73    72    1
    75    74    65   ar
    76    75    74    1
    77    76    53    1
    78    77    76   ar
    79    78    77    1
    80    79    77   ar
    81    80    79    1
    82    81    79   ar
    83    82    81    1
    84    83    81   ar
    85    84    83    1
    86    85    76   ar
    87    86    85    1
    88    87    53    1
    89    88    87   ar
    90    89    88    1
    91    90    88   ar
    92    91    90    1
    93    92    90   ar
    94    93    92    1
    95    94    92   ar
    96    95    94    1
    97    96    87   ar
    98    97    96    1
    99    61    63   ar
   100    72    74   ar
   101    83    85   ar
   102    94    96   ar
   103    98    99    1
   104    99   100   ar
   105   100   101    1
   106   102   100   ar
   107   103   102    1
   108   104   102   ar
   109   105   104    1
   110   106   104   ar
   111   107   106    1
   112   108    99   ar
   113   109   108    1
   114   110    98    1
   115   111   110   ar
   116   112   111    1
   117   113   111   ar
   118   114   113    1
   119   115   113   ar
   120   116   115    1
   121   117   115   ar
   122   118   117    1
   123   119   110   ar
   124   120   119    1
   125   121    98    1
   126   122   121   ar
   127   123   122    1
   128   124   122   ar
   129   125   124    1
   130   126   124   ar
   131   127   126    1
   132   128   126   ar
   133   129   128    1
   134   130   121   ar
   135   131   130    1
   136   132    98    1
   137   133   132   ar
   138   134   133    1
   139   135   133   ar
   140   136   135    1
   141   137   135   ar
   142   138   137    1
   143   139   137   ar
   144   140   139    1
   145   141   132   ar
   146   142   141    1
   147   106   108   ar
   148   117   119   ar
   149   128   130   ar
   150   139   141   ar
@<TRIPOS>SUBSTRUCTURE
     1 RES1        1 GROUP             0 ****  ****    0  
     2 RES2       53 GROUP             0 ****  ****    0  
     3 RES3       98 GROUP             0 ****  ****    0  
@<TRIPOS>CRYSIN
   18.4560   11.8230   26.2580   90.0000   90.3200   90.0000    14     1
