@<TRIPOS>MOLECULE
DOXGAY
    69    71     2     0     0
SMALL
USER_CHARGES
****
Generated from the CSD

@<TRIPOS>ATOM
     1 Fe1     -5.1503  -7.0492  -4.1776   Fe        1 RES1   1.0000
     2 P1      -6.7851  -5.6195  -4.4245   P.3       1 RES1   0.0000
     3 P2      -6.1937  -8.4363  -5.5099   P.3       1 RES1   0.0000
     4 P3      -4.1425  -5.7165  -2.7444   P.3       1 RES1   0.0000
     5 P4      -3.2601  -7.9937  -4.6599   P.3       1 RES1   0.0000
     6 O1      -5.9429  -8.7133  -1.9228   O.2       1 RES1   0.0000
     7 C1      -5.6543  -8.0197  -2.8138   C.1       1 RES1   0.0000
     8 O2      -6.3049  -4.1211  -4.2280   O.3       1 RES1   0.0000
     9 O3      -7.3837  -5.6242  -5.9049   O.3       1 RES1   0.0000
    10 O4      -8.1076  -5.6716  -3.5556   O.3       1 RES1   0.0000
    11 O5      -7.7456  -8.5192  -5.1306   O.3       1 RES1   0.0000
    12 O6      -6.2031  -8.2849  -7.0807   O.3       1 RES1   0.0000
    13 O7      -5.6827  -9.9229  -5.3081   O.3       1 RES1   0.0000
    14 O8      -3.2553  -4.4904  -3.1300   O.3       1 RES1   0.0000
    15 O9      -3.1536  -6.5379  -1.8398   O.3       1 RES1   0.0000
    16 O10     -5.1740  -5.1248  -1.6990   O.3       1 RES1   0.0000
    17 O11     -2.0204  -6.9829  -4.6683   O.3       1 RES1   0.0000
    18 O12     -3.2411  -8.5713  -6.1256   O.3       1 RES1   0.0000
    19 O13     -2.6379  -9.2009  -3.8676   O.3       1 RES1   0.0000
    20 H1      -4.5565  -5.9698  -5.2640   H         1 RES1   0.0000
    21 C2      -7.1849  -3.0370  -4.1208   C.3       1 RES1   0.0000
    22 C3      -6.2954  -1.7185  -4.0189   C.3       1 RES1   0.0000
    23 C4      -8.5973  -5.2218  -6.2485   C.3       1 RES1   0.0000
    24 C5      -8.8197  -5.2621  -7.8235   C.3       1 RES1   0.0000
    25 C6      -8.3442  -6.4480  -2.3840   C.2       1 RES1   0.0000
    26 C7      -9.6146  -6.3131  -1.8198   C.2       1 RES1   0.0000
    27 C8      -8.7393  -9.1536  -5.9753   C.3       1 RES1   0.0000
    28 C9      -9.8867  -9.3666  -4.9845   C.3       1 RES1   0.0000
    29 C10     -5.4816  -7.3404  -7.8477   C.3       1 RES1   0.0000
    30 C11     -5.7607  -7.6434  -9.2892   C.3       1 RES1   0.0000
    31 C12     -5.9997 -11.0402  -6.0153   C.3       1 RES1   0.0000
    32 C13     -6.0612 -12.2166  -4.8605   C.3       1 RES1   0.0000
    33 C14     -3.2033  -3.7945  -4.3278   C.3       1 RES1   0.0000
    34 C15     -2.1505  -2.6796  -4.1881   C.3       1 RES1   0.0000
    35 C16     -2.1316  -5.9154  -1.0696   C.3       1 RES1   0.0000
    36 C17     -1.1592  -6.8528  -0.4875   C.3       1 RES1   0.0000
    37 C18     -4.8830  -3.9980  -0.8248   C.3       1 RES1   0.0000
    38 C19     -6.2031  -3.5814  -0.2133   C.3       1 RES1   0.0000
    39 C20     -0.6601  -7.1463  -4.8679   C.3       1 RES1   0.0000
    40 C21     -0.0828  -6.1071  -5.5624   C.2       1 RES1   0.0000
    41 C22     -2.3871  -9.6909  -6.5721   C.3       1 RES1   0.0000
    42 C23     -2.6331  -9.9702  -8.0631   C.3       1 RES1   0.0000
    43 C24     -2.8319  -9.6767  -2.7917   C.2       1 RES1   0.0000
    44 C25     -2.1718 -10.9668  -2.3241   C.3       1 RES1   0.0000
    45 B1     -10.4545   0.8616  -4.3163   B         2 RES2  -1.0000
    46 C26    -10.6981  -0.2675  -3.0271   C.ar      2 RES2   0.0000
    47 C27    -10.9868   0.2391  -1.7599   C.ar      2 RES2   0.0000
    48 C28    -11.0838  -0.6249  -0.6682   C.ar      2 RES2   0.0000
    49 C29    -10.8921  -1.9955  -0.8437   C.ar      2 RES2   0.0000
    50 C30    -10.6035  -2.5020  -2.1119   C.ar      2 RES2   0.0000
    51 C31    -10.5065  -1.6380  -3.2025   C.ar      2 RES2   0.0000
    52 C32     -9.7684   0.1397  -5.5971   C.ar      2 RES2   0.0000
    53 C33     -8.4601   0.4166  -5.9921   C.ar      2 RES2   0.0000
    54 C34     -7.9112  -0.2343  -7.0985   C.ar      2 RES2   0.0000
    55 C35     -8.6730  -1.1622  -7.8088   C.ar      2 RES2   0.0000
    56 C36     -9.9813  -1.4392  -7.4137   C.ar      2 RES2   0.0000
    57 C37    -10.5302  -0.7882  -6.3074   C.ar      2 RES2   0.0000
    58 C38     -9.5271   2.0286  -3.5808   C.ar      2 RES2   0.0000
    59 C39     -8.3040   1.6617  -3.0176   C.ar      2 RES2   0.0000
    60 C40     -7.4996   2.6275  -2.4103   C.ar      2 RES2   0.0000
    61 C41     -7.9160   3.9578  -2.3662   C.ar      2 RES2   0.0000
    62 C42     -9.1391   4.3247  -2.9294   C.ar      2 RES2   0.0000
    63 C43     -9.9435   3.3613  -3.5367   C.ar      2 RES2   0.0000
    64 C44    -11.9473   1.4416  -4.8175   C.ar      2 RES2   0.0000
    65 C45    -11.9828   2.1896  -5.9953   C.ar      2 RES2   0.0000
    66 C46    -13.1822   2.7600  -6.4229   C.ar      2 RES2   0.0000
    67 C47    -14.3438   2.5849  -5.6727   C.ar      2 RES2   0.0000
    68 C48    -14.3084   1.8392  -4.4938   C.ar      2 RES2   0.0000
    69 C49    -13.1089   1.2664  -4.0662   C.ar      2 RES2   0.0000
@<TRIPOS>BOND
     1     1     2    1
     2     2     8    1
     3     3     1    1
     4     4     1    1
     5     5     1    1
     6     6     7    3
     7     7     1    1
     8     8    21    1
     9     9     2    1
    10    10     2    1
    11    11     3    1
    12    12     3    1
    13    13     3    1
    14    14     4    1
    15    15     4    1
    16    16     4    1
    17    17     5    1
    18    18     5    1
    19    19     5    1
    20    20     1    1
    21    21    22    1
    22    23     9    1
    23    24    23    1
    24    25    10    1
    25    26    25    1
    26    27    11    1
    27    28    27    1
    28    29    12    1
    29    30    29    1
    30    31    13    1
    31    32    31    1
    32    33    14    1
    33    34    33    1
    34    35    15    1
    35    36    35    1
    36    37    16    1
    37    38    37    1
    38    39    17    1
    39    40    39    1
    40    41    18    1
    41    42    41    1
    42    43    19    1
    43    44    43    1
    44    45    46    1
    45    46    47   ar
    46    47    48   ar
    47    48    49   ar
    48    49    50   ar
    49    50    51   ar
    50    51    46   ar
    51    52    45    1
    52    53    52   ar
    53    54    53   ar
    54    55    54   ar
    55    56    55   ar
    56    57    52   ar
    57    58    45    1
    58    59    58   ar
    59    60    59   ar
    60    61    60   ar
    61    62    61   ar
    62    63    58   ar
    63    64    45    1
    64    65    64   ar
    65    66    65   ar
    66    67    66   ar
    67    68    67   ar
    68    69    64   ar
    69    56    57   ar
    70    62    63   ar
    71    68    69   ar
@<TRIPOS>SUBSTRUCTURE
     1 RES1        1 GROUP             0 ****  ****    0  
     2 RES2       45 GROUP             0 ****  ****    0  
@<TRIPOS>CRYSIN
   23.6580   23.6710   10.5070   90.0000   90.0000   90.0000    19     1
