@<TRIPOS>MOLECULE
DOXLUA
   125   133     2     0     0
SMALL
USER_CHARGES
****
Generated from the CSD

@<TRIPOS>ATOM
     1 Fe1      3.5764  10.2085   5.8168   Fe        1 RES1   2.0000
     2 N1       3.3315   8.6021   6.8163   N.1       1 RES1   0.0000
     3 P1       3.0555  11.5256   7.7172   P.3       1 RES1   0.0000
     4 P2       1.2961  10.3843   5.4059   P.3       1 RES1   0.0000
     5 C1       0.7842  11.9635   6.1768   C.3       1 RES1   0.0000
     6 H1       1.1630  12.7075   5.6841   H         1 RES1   0.0000
     7 H2      -0.1825  12.0440   6.1530   H         1 RES1   0.0000
     8 C2       1.2702  11.9970   7.6175   C.3       1 RES1   0.0000
     9 H3       0.7430  11.3825   8.1516   H         1 RES1   0.0000
    10 H4       1.1501  12.8893   7.9794   H         1 RES1   0.0000
    11 C3       3.1394  10.9864   9.4618   C.ar      1 RES1   0.0000
    12 C4       3.7016   9.7744   9.8579   C.ar      1 RES1   0.0000
    13 H5       4.0828   9.2142   9.2196   H         1 RES1   0.0000
    14 C5       3.7007   9.3900  11.1974   C.ar      1 RES1   0.0000
    15 H6       4.0701   8.5751  11.4486   H         1 RES1   0.0000
    16 C6       3.1461  10.2273  12.1552   C.ar      1 RES1   0.0000
    17 H7       3.1449   9.9737  13.0505   H         1 RES1   0.0000
    18 C7       2.5920  11.4462  11.7759   C.ar      1 RES1   0.0000
    19 H8       2.2266  12.0093  12.4200   H         1 RES1   0.0000
    20 C8       2.5815  11.8270  10.4391   C.ar      1 RES1   0.0000
    21 H9       2.2042  12.6402  10.1910   H         1 RES1   0.0000
    22 C9       3.9077  13.1375   7.7991   C.ar      1 RES1   0.0000
    23 C10      4.9971  13.3068   8.6599   C.ar      1 RES1   0.0000
    24 H10      5.2240  12.6300   9.2545   H         1 RES1   0.0000
    25 C11      5.7440  14.4820   8.6337   C.ar      1 RES1   0.0000
    26 H11      6.4689  14.5839   9.2068   H         1 RES1   0.0000
    27 C12      5.4048  15.5039   7.7493   C.ar      1 RES1   0.0000
    28 H12      5.9182  16.2785   7.7130   H         1 RES1   0.0000
    29 C13      4.2960  15.3632   6.9207   C.ar      1 RES1   0.0000
    30 H13      4.0565  16.0539   6.3461   H         1 RES1   0.0000
    31 C14      3.5420  14.1900   6.9473   C.ar      1 RES1   0.0000
    32 H14      2.7952  14.1061   6.3996   H         1 RES1   0.0000
    33 C15      0.1891   9.1399   6.1589   C.ar      1 RES1   0.0000
    34 C16      0.4026   7.7770   5.9141   C.ar      1 RES1   0.0000
    35 H15      1.1700   7.5073   5.4631   H         1 RES1   0.0000
    36 C17     -0.5170   6.8209   6.3368   C.ar      1 RES1   0.0000
    37 H16     -0.3692   5.9209   6.1541   H         1 RES1   0.0000
    38 C18     -1.6568   7.2111   7.0331   C.ar      1 RES1   0.0000
    39 H17     -2.2809   6.5763   7.3024   H         1 RES1   0.0000
    40 C19     -1.8555   8.5541   7.3237   C.ar      1 RES1   0.0000
    41 H18     -2.5988   8.8140   7.8177   H         1 RES1   0.0000
    42 C20     -0.9502   9.5162   6.8811   C.ar      1 RES1   0.0000
    43 H19     -1.1038  10.4147   7.0662   H         1 RES1   0.0000
    44 C21      0.5728  10.5832   3.7377   C.ar      1 RES1   0.0000
    45 C22     -0.1515   9.5509   3.1270   C.ar      1 RES1   0.0000
    46 H20     -0.2212   8.7242   3.5471   H         1 RES1   0.0000
    47 C23     -0.7677   9.7546   1.8953   C.ar      1 RES1   0.0000
    48 H21     -1.2469   9.0651   1.4961   H         1 RES1   0.0000
    49 C24     -0.6691  10.9897   1.2584   C.ar      1 RES1   0.0000
    50 H22     -1.0898  11.1273   0.4409   H         1 RES1   0.0000
    51 C25      0.0603  12.0164   1.8479   C.ar      1 RES1   0.0000
    52 H23      0.1408  12.8362   1.4158   H         1 RES1   0.0000
    53 C26      0.6707  11.8190   3.0837   C.ar      1 RES1   0.0000
    54 H24      1.1479  12.5136   3.4784   H         1 RES1   0.0000
    55 C27      3.1581   7.6427   7.4141   C.1       1 RES1   0.0000
    56 C28      2.9272   6.4407   8.2043   C.3       1 RES1   0.0000
    57 H25      3.1652   6.6090   9.1195   H         1 RES1   0.0000
    58 H26      3.4645   5.7229   7.8596   H         1 RES1   0.0000
    59 H27      1.9995   6.1986   8.1551   H         1 RES1   0.0000
    60 N1B      3.8214  11.8149   4.8172   N.1       1 RES1   0.0000
    61 P1B      4.0974   8.8914   3.9163   P.3       1 RES1   0.0000
    62 P2B      5.8568  10.0327   6.2277   P.3       1 RES1   0.0000
    63 C1B      6.3687   8.4535   5.4567   C.3       1 RES1   0.0000
    64 H1B      5.9898   7.7095   5.9494   H         1 RES1   0.0000
    65 H2B      7.3354   8.3730   5.4806   H         1 RES1   0.0000
    66 C2B      5.8827   8.4200   4.0160   C.3       1 RES1   0.0000
    67 H3B      6.4099   9.0345   3.4819   H         1 RES1   0.0000
    68 H4B      6.0028   7.5277   3.6541   H         1 RES1   0.0000
    69 C3B      4.0135   9.4306   2.1717   C.ar      1 RES1   0.0000
    70 C4B      3.4512  10.6426   1.7756   C.ar      1 RES1   0.0000
    71 H5B      3.0700  11.2028   2.4140   H         1 RES1   0.0000
    72 C5B      3.4522  11.0270   0.4361   C.ar      1 RES1   0.0000
    73 H6B      3.0827  11.8419   0.1850   H         1 RES1   0.0000
    74 C6B      4.0067  10.1897  -0.5216   C.ar      1 RES1   0.0000
    75 H7B      4.0080  10.4433  -1.4170   H         1 RES1   0.0000
    76 C7B      4.5608   8.9708  -0.1424   C.ar      1 RES1   0.0000
    77 H8B      4.9262   8.4077  -0.7864   H         1 RES1   0.0000
    78 C8B      4.5714   8.5900   1.1944   C.ar      1 RES1   0.0000
    79 H9B      4.9487   7.7768   1.4426   H         1 RES1   0.0000
    80 C9B      3.2451   7.2795   3.8344   C.ar      1 RES1   0.0000
    81 C10B     2.1558   7.1102   2.9736   C.ar      1 RES1   0.0000
    82 H10B     1.9289   7.7870   2.3791   H         1 RES1   0.0000
    83 C11B     1.4089   5.9350   2.9998   C.ar      1 RES1   0.0000
    84 H11B     0.6840   5.8331   2.4268   H         1 RES1   0.0000
    85 C12B     1.7480   4.9131   3.8842   C.ar      1 RES1   0.0000
    86 H12B     1.2346   4.1385   3.9205   H         1 RES1   0.0000
    87 C13B     2.8568   5.0538   4.7129   C.ar      1 RES1   0.0000
    88 H13B     3.0964   4.3631   5.2874   H         1 RES1   0.0000
    89 C14B     3.6109   6.2270   4.6862   C.ar      1 RES1   0.0000
    90 H14B     4.3577   6.3109   5.2339   H         1 RES1   0.0000
    91 C15B     6.9638  11.2771   5.4746   C.ar      1 RES1   0.0000
    92 C16B     6.7502  12.6400   5.7194   C.ar      1 RES1   0.0000
    93 H15B     5.9829  12.9097   6.1704   H         1 RES1   0.0000
    94 C17B     7.6699  13.5961   5.2968   C.ar      1 RES1   0.0000
    95 H16B     7.5221  14.4961   5.4794   H         1 RES1   0.0000
    96 C18B     8.8097  13.2059   4.6005   C.ar      1 RES1   0.0000
    97 H17B     9.4337  13.8407   4.3312   H         1 RES1   0.0000
    98 C19B     9.0084  11.8629   4.3099   C.ar      1 RES1   0.0000
    99 H18B     9.7516  11.6030   3.8158   H         1 RES1   0.0000
   100 C20B     8.1031  10.9008   4.7524   C.ar      1 RES1   0.0000
   101 H19B     8.2566  10.0023   4.5673   H         1 RES1   0.0000
   102 C21B     6.5800   9.8338   7.8958   C.ar      1 RES1   0.0000
   103 C22B     7.3043  10.8661   8.5066   C.ar      1 RES1   0.0000
   104 H20B     7.3741  11.6928   8.0865   H         1 RES1   0.0000
   105 C23B     7.9206  10.6624   9.7382   C.ar      1 RES1   0.0000
   106 H21B     8.3997  11.3519  10.1375   H         1 RES1   0.0000
   107 C24B     7.8219   9.4273  10.3751   C.ar      1 RES1   0.0000
   108 H22B     8.2427   9.2897  11.1926   H         1 RES1   0.0000
   109 C25B     7.0926   8.4006   9.7857   C.ar      1 RES1   0.0000
   110 H23B     7.0120   7.5808  10.2177   H         1 RES1   0.0000
   111 C26B     6.4822   8.5980   8.5498   C.ar      1 RES1   0.0000
   112 H24B     6.0050   7.9034   8.1551   H         1 RES1   0.0000
   113 C27B     3.9947  12.7743   4.2195   C.1       1 RES1   0.0000
   114 C28B     4.2256  13.9763   3.4292   C.3       1 RES1   0.0000
   115 H25B     3.9877  13.8080   2.5140   H         1 RES1   0.0000
   116 H26B     3.6884  14.6941   3.7739   H         1 RES1   0.0000
   117 H27B     5.1534  14.2184   3.4784   H         1 RES1   0.0000
   118 S1       0.9586  16.1129   4.3194   S.o2      2 RES2   0.0000
   119 O1      -0.2039  16.7148   4.9242   O.2       2 RES2   0.0000
   120 O2       2.1928  16.8557   4.4473   O.3       2 RES2  -1.0000
   121 O3       1.1086  14.6921   4.5278   O.2       2 RES2   0.0000
   122 C29      0.5937  16.2236   2.5322   C.3       2 RES2   0.0000
   123 F1       1.5930  15.7454   1.7989   F         2 RES2   0.0000
   124 F2      -0.5067  15.5300   2.2183   F         2 RES2   0.0000
   125 F3       0.3972  17.4931   2.1600   F         2 RES2   0.0000
@<TRIPOS>BOND
     1     1     2    1
     2     2    55    3
     3     3     1    1
     4     4     1    1
     5     5     4    1
     6     6     5    1
     7     7     5    1
     8     8     3    1
     9     9     8    1
    10    10     8    1
    11    11     3    1
    12    12    11   ar
    13    13    12    1
    14    14    12   ar
    15    15    14    1
    16    16    14   ar
    17    17    16    1
    18    18    16   ar
    19    19    18    1
    20    20    11   ar
    21    21    20    1
    22    22     3    1
    23    23    22   ar
    24    24    23    1
    25    25    23   ar
    26    26    25    1
    27    27    25   ar
    28    28    27    1
    29    29    27   ar
    30    30    29    1
    31    31    22   ar
    32    32    31    1
    33    33     4    1
    34    34    33   ar
    35    35    34    1
    36    36    34   ar
    37    37    36    1
    38    38    36   ar
    39    39    38    1
    40    40    38   ar
    41    41    40    1
    42    42    33   ar
    43    43    42    1
    44    44     4    1
    45    45    44   ar
    46    46    45    1
    47    47    45   ar
    48    48    47    1
    49    49    47   ar
    50    50    49    1
    51    51    49   ar
    52    52    51    1
    53    53    44   ar
    54    54    53    1
    55    55    56    1
    56    56    57    1
    57    58    56    1
    58    59    56    1
    59    60     1    1
    60    61     1    1
    61    62     1    1
    62    63    62    1
    63    64    63    1
    64    65    63    1
    65    66    61    1
    66    67    66    1
    67    68    66    1
    68    69    61    1
    69    70    69   ar
    70    71    70    1
    71    72    70   ar
    72    73    72    1
    73    74    72   ar
    74    75    74    1
    75    76    74   ar
    76    77    76    1
    77    78    69   ar
    78    79    78    1
    79    80    61    1
    80    81    80   ar
    81    82    81    1
    82    83    81   ar
    83    84    83    1
    84    85    83   ar
    85    86    85    1
    86    87    85   ar
    87    88    87    1
    88    89    80   ar
    89    90    89    1
    90    91    62    1
    91    92    91   ar
    92    93    92    1
    93    94    92   ar
    94    95    94    1
    95    96    94   ar
    96    97    96    1
    97    98    96   ar
    98    99    98    1
    99   100    91   ar
   100   101   100    1
   101   102    62    1
   102   103   102   ar
   103   104   103    1
   104   105   103   ar
   105   106   105    1
   106   107   105   ar
   107   108   107    1
   108   109   107   ar
   109   110   109    1
   110   111   102   ar
   111   112   111    1
   112   113    60    3
   113   114   113    1
   114   115   114    1
   115   116   114    1
   116   117   114    1
   117     5     8    1
   118    18    20   ar
   119    29    31   ar
   120    40    42   ar
   121    51    53   ar
   122    63    66    1
   123    76    78   ar
   124    87    89   ar
   125    98   100   ar
   126   109   111   ar
   127   118   119    2
   128   120   118    1
   129   121   118    2
   130   122   118    1
   131   123   122    1
   132   124   122    1
   133   125   122    1
@<TRIPOS>SUBSTRUCTURE
     1 RES1        1 GROUP             0 ****  ****    0  
     2 RES2      118 GROUP             0 ****  ****    0  
@<TRIPOS>CRYSIN
   11.7120   20.4170   12.4950   90.0000  111.4000   90.0000    14     1
