@<TRIPOS>MOLECULE
DOXVEU02
   348   398     1     0     0
SMALL
USER_CHARGES
****
Generated from the CSD

@<TRIPOS>ATOM
     1 Fe1     -0.0012  13.5058  21.9598   Fe        1 RES1   1.0000
     2 Fe2      0.0730   7.9714  13.7782   Fe        1 RES1   1.0000
     3 Fe3      0.1710   9.9850  18.4028   Fe        1 RES1   0.0000
     4 C1       0.4877   6.2211  10.0883   C.2       1 RES1   0.0000
     5 H1       0.7357   5.4716   9.5586   H         1 RES1   0.0000
     6 C2       0.0304   7.4467   9.6193   C.2       1 RES1   0.0000
     7 H2      -0.0982   7.7060   8.7140   H         1 RES1   0.0000
     8 C3      -0.1965   8.2084  10.7545   C.2       1 RES1   0.0000
     9 H3      -0.5216   9.0997  10.7519   H         1 RES1   0.0000
    10 C4       2.5602  12.8778  25.1234   C.2       1 RES1   0.0000
    11 H4       2.7052  12.8251  26.0613   H         1 RES1   0.0000
    12 C5      -1.5110   8.9123  13.4954   C.1       1 RES1   0.0000
    13 C6      -0.0094   8.4859  15.5779   C.1       1 RES1   0.0000
    14 C7       0.9848   9.5778  13.4978   C.1       1 RES1   0.0000
    15 C8       0.3350  12.0464  20.8336   C.1       1 RES1   0.0000
    16 N1      -0.7765   6.1873  14.0783   N.2       1 RES1   0.0000
    17 N2       0.5179   6.2912  11.4314   N.pl3     1 RES1   0.0000
    18 N3       0.1073   7.5134  11.8537   N.2       1 RES1   0.0000
    19 N4       1.8362   7.0262  13.9820   N.2       1 RES1   0.0000
    20 N5       1.3705  13.1197  24.5308   N.pl3     1 RES1   0.0000
    21 N6       1.5411  13.1223  23.1780   N.2       1 RES1   0.0000
    22 N7       0.4613  11.1846  20.0692   N.1       1 RES1   0.0000
    23 N8      -0.0671   8.9397  16.6393   N.1       1 RES1   0.0000
    24 N9       1.5740  10.5603  13.3863   N.1       1 RES1   0.0000
    25 B1      -0.0012  13.5058  25.0980   B         1 RES1  -1.0000
    26 O1       0.7263  11.7677  17.1812   O.3       1 RES1   0.0000
    27 H5       0.7544  11.5610  16.3603   H         1 RES1   0.0000
    28 H6       1.2666  12.3997  17.3307   H         1 RES1   0.0000
    29 O2      -0.4249   8.4189  19.5204   O.2       1 RES1   0.0000
    30 N10     -0.2719   5.0845  13.4558   N.pl3     1 RES1   0.0000
    31 N11      2.0694   5.8723  13.2968   N.pl3     1 RES1   0.0000
    32 S1      -1.3859   8.5961  20.6936   S.o       1 RES1   0.0000
    33 C9      -0.4561   7.9815  22.0637   C.3       1 RES1   0.0000
    34 H7      -0.9953   8.0524  22.8798   H         1 RES1   0.0000
    35 H8      -0.2257   7.0436  21.9047   H         1 RES1   0.0000
    36 H9       0.3626   8.5082  22.1633   H         1 RES1   0.0000
    37 C10     -2.5473   7.2846  20.4979   C.3       1 RES1   0.0000
    38 H10     -3.2105   7.3231  21.2191   H         1 RES1   0.0000
    39 H11     -3.0000   7.3758  19.6343   H         1 RES1   0.0000
    40 H12     -2.0783   6.4237  20.5311   H         1 RES1   0.0000
    41 C11     -1.7064   5.7471  14.9184   C.2       1 RES1   0.0000
    42 H13     -2.2339   6.3042  15.4825   H         1 RES1   0.0000
    43 C12     -1.8093   4.3615  14.8586   C.2       1 RES1   0.0000
    44 H14     -2.3871   3.7983  15.3592   H         1 RES1   0.0000
    45 C13     -0.8772   3.9827  13.9144   C.2       1 RES1   0.0000
    46 H15     -0.6982   3.0933  13.6368   H         1 RES1   0.0000
    47 C14      3.3415   5.4797  13.4842   C.2       1 RES1   0.0000
    48 H16      3.7461   4.7058  13.1101   H         1 RES1   0.0000
    49 C15      3.9543   6.3832  14.3058   C.2       1 RES1   0.0000
    50 H17      4.8537   6.3690  14.6142   H         1 RES1   0.0000
    51 C16      2.9696   7.3353  14.5976   C.2       1 RES1   0.0000
    52 H18      3.0959   8.0929  15.1551   H         1 RES1   0.0000
    53 B2       0.9193   5.2508  12.4964   B         1 RES1  -1.0000
    54 N12     -2.3913   9.6329  13.2814   N.1       1 RES1   0.0000
    55 C17      2.8251  12.8849  22.9453   C.2       1 RES1   0.0000
    56 H19      3.2187  12.8312  22.0827   H         1 RES1   0.0000
    57 C18      3.5193  12.7238  24.1574   C.2       1 RES1   0.0000
    58 H20      4.4444  12.5476  24.2796   H         1 RES1   0.0000
    59 H21     -0.0012  13.5058  26.2392   H         1 RES1   0.0000
    60 H22      1.1813   4.2744  12.0520   H         1 RES1   0.0000
    61 C4A     -0.7368  16.0359  25.1234   C.2       1 RES1   0.0000
    62 H4A     -0.7637  16.1879  26.0613   H         1 RES1   0.0000
    63 N5A     -0.3515  14.8847  24.5308   N.pl3     1 RES1   0.0000
    64 N6A     -0.4391  15.0312  23.1780   N.2       1 RES1   0.0000
    65 C17A    -0.8754  16.2618  22.9453   C.2       1 RES1   0.0000
    66 H19A    -1.0257  16.6295  22.0827   H         1 RES1   0.0000
    67 C18A    -1.0830  16.9435  24.1574   C.2       1 RES1   0.0000
    68 H20A    -1.3930  17.8328  24.2796   H         1 RES1   0.0000
    69 C4B     -1.8234  11.6015  25.1234   C.2       1 RES1   0.0000
    70 H4B     -1.9415  11.5023  26.0613   H         1 RES1   0.0000
    71 N5B     -1.0191  12.5109  24.5308   N.pl3     1 RES1   0.0000
    72 N6B     -1.1021  12.3618  23.1780   N.2       1 RES1   0.0000
    73 C17B    -1.9497  11.3686  22.9453   C.2       1 RES1   0.0000
    74 H19B    -2.1930  11.0546  22.0827   H         1 RES1   0.0000
    75 C18B    -2.4362  10.8480  24.1574   C.2       1 RES1   0.0000
    76 H20B    -3.0514  10.1349  24.2796   H         1 RES1   0.0000
    77 Fe2A     4.7558  16.3351  13.7782   Fe        1 RES1   1.0000
    78 Fe3A     2.9630  15.4132  18.4028   Fe        1 RES1   0.0000
    79 C1A      6.0642  17.5694  10.0883   C.2       1 RES1   0.0000
    80 H1A      6.5894  18.1589   9.5586   H         1 RES1   0.0000
    81 C2A      5.2315  16.5606   9.6193   C.2       1 RES1   0.0000
    82 H2A      5.0713  16.3195   8.7140   H         1 RES1   0.0000
    83 C3A      4.6853  15.9833  10.7545   C.2       1 RES1   0.0000
    84 H3A      4.0760  15.2560  10.7519   H         1 RES1   0.0000
    85 C5A      4.7329  14.4929  13.4954   C.1       1 RES1   0.0000
    86 C6A      4.3514  16.0066  15.5779   C.1       1 RES1   0.0000
    87 C7A      2.9087  16.3216  13.4978   C.1       1 RES1   0.0000
    88 C8A      1.0958  14.5245  20.8336   C.1       1 RES1   0.0000
    89 N1A      6.7256  16.4915  14.0783   N.2       1 RES1   0.0000
    90 N2A      5.9885  17.5605  11.4314   N.pl3     1 RES1   0.0000
    91 N3A      5.1354  16.5938  11.8537   N.2       1 RES1   0.0000
    92 N4A      4.6928  18.3348  13.9820   N.2       1 RES1   0.0000
    93 N7A      1.7789  15.0648  20.0692   N.1       1 RES1   0.0000
    94 N8A      3.9873  15.7296  16.6393   N.1       1 RES1   0.0000
    95 N9A      1.7633  16.3406  13.3863   N.1       1 RES1   0.0000
    96 O1A      1.1415  15.0028  17.1812   O.3       1 RES1   0.0000
    97 H5A      1.3064  15.1304  16.3603   H         1 RES1   0.0000
    98 H6A      0.3240  15.1547  17.3307   H         1 RES1   0.0000
    99 O2A      4.6172  15.6802  19.5204   O.2       1 RES1   0.0000
   100 N10A     7.4284  17.4799  13.4558   N.pl3     1 RES1   0.0000
   101 N11A     5.5755  19.1137  13.2968   N.pl3     1 RES1   0.0000
   102 S1A      4.9443  14.7593  20.6936   S.o       1 RES1   0.0000
   103 C9A      5.0116  15.8719  22.0637   C.3       1 RES1   0.0000
   104 H7A      5.2198  15.3695  22.8798   H         1 RES1   0.0000
   105 H8A      5.7087  16.5404  21.9047   H         1 RES1   0.0000
   106 H9A      4.1461  16.3175  22.1633   H         1 RES1   0.0000
   107 C10A     6.6607  14.4093  20.4979   C.3       1 RES1   0.0000
   108 H10A     6.9590  13.8157  21.2191   H         1 RES1   0.0000
   109 H11A     6.8081  13.9717  19.6343   H         1 RES1   0.0000
   110 H12A     7.1718  15.2459  20.5311   H         1 RES1   0.0000
   111 C11A     7.5718  15.9063  14.9184   C.2       1 RES1   0.0000
   112 H13A     7.3531  15.1709  15.4825   H         1 RES1   0.0000
   113 C12A     8.8233  16.5100  14.8586   C.2       1 RES1   0.0000
   114 H14A     9.5999  16.2912  15.3592   H         1 RES1   0.0000
   115 C13A     8.6853  17.5066  13.9144   C.2       1 RES1   0.0000
   116 H15A     9.3660  18.1063  13.6368   H         1 RES1   0.0000
   117 C14A     5.2795  20.4116  13.4842   C.2       1 RES1   0.0000
   118 H16A     5.7473  21.1490  13.1101   H         1 RES1   0.0000
   119 C15A     4.1906  20.4906  14.3058   C.2       1 RES1   0.0000
   120 H17A     3.7532  21.2766  14.6142   H         1 RES1   0.0000
   121 C16A     3.8584  19.1617  14.5976   C.2       1 RES1   0.0000
   122 H18A     3.1391  18.8923  15.1551   H         1 RES1   0.0000
   123 B2A      6.6888  18.4284  12.4964   B         1 RES1  -1.0000
   124 N12A     4.5491  13.3702  13.2814   N.1       1 RES1   0.0000
   125 H22A     7.4034  19.1435  12.0520   H         1 RES1   0.0000
   126 Fe2B    -4.8288  16.2087  13.7782   Fe        1 RES1   1.0000
   127 Fe3B    -3.1340  15.1171  18.4028   Fe        1 RES1   0.0000
   128 C1B     -6.5520  16.7247  10.0883   C.2       1 RES1   0.0000
   129 H1B     -7.3250  16.8847   9.5586   H         1 RES1   0.0000
   130 C2B     -5.2619  16.5079   9.6193   C.2       1 RES1   0.0000
   131 H2B     -4.9730  16.4897   8.7140   H         1 RES1   0.0000
   132 C3B     -4.4888  16.3236  10.7545   C.2       1 RES1   0.0000
   133 H3B     -3.5543  16.1595  10.7519   H         1 RES1   0.0000
   134 C5B     -3.2219  17.1100  13.4954   C.1       1 RES1   0.0000
   135 C6B     -4.3420  16.0228  15.5779   C.1       1 RES1   0.0000
   136 C7B     -3.8935  14.6159  13.4978   C.1       1 RES1   0.0000
   137 C8B     -1.4307  13.9443  20.8336   C.1       1 RES1   0.0000
   138 N1B     -5.9492  17.8364  14.0783   N.2       1 RES1   0.0000
   139 N2B     -6.5063  16.6635  11.4314   N.pl3     1 RES1   0.0000
   140 N3B     -5.2426  16.4081  11.8537   N.2       1 RES1   0.0000
   141 N4B     -6.5290  15.1543  13.9820   N.2       1 RES1   0.0000
   142 N7B     -2.2402  14.2658  20.0692   N.1       1 RES1   0.0000
   143 N8B     -3.9202  15.8459  16.6393   N.1       1 RES1   0.0000
   144 N9B     -3.3373  13.6143  13.3863   N.1       1 RES1   0.0000
   145 O1B     -1.8678  13.7448  17.1812   O.3       1 RES1   0.0000
   146 H5B     -2.0608  13.8238  16.3603   H         1 RES1   0.0000
   147 H6B     -1.5906  12.9608  17.3307   H         1 RES1   0.0000
   148 O2B     -4.1923  16.4162  19.5204   O.2       1 RES1   0.0000
   149 N10B    -7.1565  17.9509  13.4558   N.pl3     1 RES1   0.0000
   150 N11B    -7.6449  15.5293  13.2968   N.pl3     1 RES1   0.0000
   151 S1B     -3.5583  17.1598  20.6936   S.o       1 RES1   0.0000
   152 C9B     -4.5555  16.6619  22.0637   C.3       1 RES1   0.0000
   153 H7B     -4.2245  17.0934  22.8798   H         1 RES1   0.0000
   154 H8B     -5.4830  16.9313  21.9047   H         1 RES1   0.0000
   155 H9B     -4.5087  15.6895  22.1633   H         1 RES1   0.0000
   156 C10B    -4.1134  18.8214  20.4979   C.3       1 RES1   0.0000
   157 H10B    -3.7485  19.3764  21.2191   H         1 RES1   0.0000
   158 H11B    -3.8081  19.1678  19.6343   H         1 RES1   0.0000
   159 H12B    -5.0935  18.8457  20.5311   H         1 RES1   0.0000
   160 C11B    -5.8654  18.8619  14.9184   C.2       1 RES1   0.0000
   161 H13B    -5.1192  19.0401  15.4825   H         1 RES1   0.0000
   162 C12B    -7.0139  19.6438  14.8586   C.2       1 RES1   0.0000
   163 H14B    -7.2128  20.4258  15.3592   H         1 RES1   0.0000
   164 C13B    -7.8081  19.0260  13.9144   C.2       1 RES1   0.0000
   165 H15B    -8.6677  19.3157  13.6368   H         1 RES1   0.0000
   166 C14B    -8.6209  14.6240  13.4842   C.2       1 RES1   0.0000
   167 H16B    -9.4934  14.6604  13.1101   H         1 RES1   0.0000
   168 C15B    -8.1449  13.6415  14.3058   C.2       1 RES1   0.0000
   169 H17B    -8.6069  12.8697  14.6142   H         1 RES1   0.0000
   170 C16B    -6.8280  14.0183  14.5976   C.2       1 RES1   0.0000
   171 H18B    -6.2350  13.5301  15.1551   H         1 RES1   0.0000
   172 B2B     -7.6081  16.8361  12.4964   B         1 RES1  -1.0000
   173 N12B    -2.1577  17.5121  13.2814   N.1       1 RES1   0.0000
   174 H22B    -8.5847  17.0974  12.0520   H         1 RES1   0.0000
   175 Fe1O     0.0012  13.5044   9.6728   Fe        1 RES1   1.0000
   176 Fe2O    -0.0730  19.0388  17.8544   Fe        1 RES1   1.0000
   177 Fe3O    -0.1710  17.0252  13.2298   Fe        1 RES1   0.0000
   178 C1O     -0.4877  20.7891  21.5442   C.2       1 RES1   0.0000
   179 H1O     -0.7357  21.5386  22.0740   H         1 RES1   0.0000
   180 C2O     -0.0304  19.5635  22.0132   C.2       1 RES1   0.0000
   181 H2O      0.0982  19.3042  22.9186   H         1 RES1   0.0000
   182 C3O      0.1965  18.8018  20.8780   C.2       1 RES1   0.0000
   183 H3O      0.5216  17.9104  20.8806   H         1 RES1   0.0000
   184 C4O     -2.5602  14.1324   6.5091   C.2       1 RES1   0.0000
   185 H4O     -2.7052  14.1851   5.5713   H         1 RES1   0.0000
   186 C5O      1.5110  18.0978  18.1371   C.1       1 RES1   0.0000
   187 C6O      0.0094  18.5243  16.0546   C.1       1 RES1   0.0000
   188 C7O     -0.9848  17.4324  18.1348   C.1       1 RES1   0.0000
   189 C8O     -0.3350  14.9638  10.7990   C.1       1 RES1   0.0000
   190 N1O      0.7765  20.8229  17.5542   N.2       1 RES1   0.0000
   191 N2O     -0.5179  20.7190  20.2012   N.pl3     1 RES1   0.0000
   192 N3O     -0.1073  19.4968  19.7789   N.2       1 RES1   0.0000
   193 N4O     -1.8362  19.9840  17.6506   N.2       1 RES1   0.0000
   194 N5O     -1.3705  13.8905   7.1017   N.pl3     1 RES1   0.0000
   195 N6O     -1.5411  13.8879   8.4545   N.2       1 RES1   0.0000
   196 N7O     -0.4613  15.8255  11.5634   N.1       1 RES1   0.0000
   197 N8O      0.0671  18.0705  14.9932   N.1       1 RES1   0.0000
   198 N9O     -1.5740  16.4499  18.2463   N.1       1 RES1   0.0000
   199 B1O      0.0012  13.5044   6.5345   B         1 RES1  -1.0000
   200 O1O     -0.7263  15.2425  14.4513   O.3       1 RES1   0.0000
   201 H5O     -0.7544  15.4491  15.2722   H         1 RES1   0.0000
   202 H6O     -1.2666  14.6105  14.3019   H         1 RES1   0.0000
   203 O2O      0.4249  18.5913  12.1121   O.2       1 RES1   0.0000
   204 N10O     0.2719  21.9257  18.1768   N.pl3     1 RES1   0.0000
   205 N11O    -2.0694  21.1379  18.3357   N.pl3     1 RES1   0.0000
   206 S1O      1.3859  18.4141  10.9389   S.o       1 RES1   0.0000
   207 C9O      0.4561  19.0287   9.5688   C.3       1 RES1   0.0000
   208 H7O      0.9953  18.9578   8.7527   H         1 RES1   0.0000
   209 H8O      0.2257  19.9666   9.7278   H         1 RES1   0.0000
   210 H9O     -0.3626  18.5020   9.4692   H         1 RES1   0.0000
   211 C10O     2.5473  19.7255  11.1347   C.3       1 RES1   0.0000
   212 H10O     3.2105  19.6870  10.4134   H         1 RES1   0.0000
   213 H11O     3.0000  19.6344  11.9982   H         1 RES1   0.0000
   214 H12O     2.0783  20.5865  11.1014   H         1 RES1   0.0000
   215 C11O     1.7064  21.2631  16.7142   C.2       1 RES1   0.0000
   216 H13O     2.2339  20.7060  16.1500   H         1 RES1   0.0000
   217 C12O     1.8093  22.6487  16.7739   C.2       1 RES1   0.0000
   218 H14O     2.3871  23.2119  16.2734   H         1 RES1   0.0000
   219 C13O     0.8772  23.0275  17.7182   C.2       1 RES1   0.0000
   220 H15O     0.6982  23.9168  17.9957   H         1 RES1   0.0000
   221 C14O    -3.3415  21.5305  18.1483   C.2       1 RES1   0.0000
   222 H16O    -3.7461  22.3043  18.5224   H         1 RES1   0.0000
   223 C15O    -3.9543  20.6270  17.3267   C.2       1 RES1   0.0000
   224 H17O    -4.8537  20.6412  17.0183   H         1 RES1   0.0000
   225 C16O    -2.9696  19.6749  17.0349   C.2       1 RES1   0.0000
   226 H18O    -3.0959  18.9173  16.4774   H         1 RES1   0.0000
   227 B2O     -0.9193  21.7594  19.1362   B         1 RES1  -1.0000
   228 N12O     2.3913  17.3773  18.3511   N.1       1 RES1   0.0000
   229 C17O    -2.8251  14.1253   8.6872   C.2       1 RES1   0.0000
   230 H19O    -3.2187  14.1790   9.5499   H         1 RES1   0.0000
   231 C18O    -3.5193  14.2864   7.4752   C.2       1 RES1   0.0000
   232 H20O    -4.4444  14.4626   7.3530   H         1 RES1   0.0000
   233 H21O     0.0012  13.5044   5.3933   H         1 RES1   0.0000
   234 H22O    -1.1813  22.7358  19.5805   H         1 RES1   0.0000
   235 C4P      0.7368  10.9742   6.5091   C.2       1 RES1   0.0000
   236 H4P      0.7637  10.8223   5.5713   H         1 RES1   0.0000
   237 N5P      0.3515  12.1255   7.1017   N.pl3     1 RES1   0.0000
   238 N6P      0.4391  11.9790   8.4545   N.2       1 RES1   0.0000
   239 C17P     0.8754  10.7484   8.6872   C.2       1 RES1   0.0000
   240 H19P     1.0257  10.3807   9.5499   H         1 RES1   0.0000
   241 C18P     1.0830  10.0667   7.4752   C.2       1 RES1   0.0000
   242 H20P     1.3930   9.1774   7.3530   H         1 RES1   0.0000
   243 C4Q      1.8234  15.4086   6.5091   C.2       1 RES1   0.0000
   244 H4Q      1.9415  15.5079   5.5713   H         1 RES1   0.0000
   245 N5Q      1.0191  14.4993   7.1017   N.pl3     1 RES1   0.0000
   246 N6Q      1.1021  14.6484   8.4545   N.2       1 RES1   0.0000
   247 C17Q     1.9497  15.6416   8.6872   C.2       1 RES1   0.0000
   248 H19Q     2.1930  15.9556   9.5499   H         1 RES1   0.0000
   249 C18Q     2.4362  16.1622   7.4752   C.2       1 RES1   0.0000
   250 H20Q     3.0514  16.8753   7.3530   H         1 RES1   0.0000
   251 Fe2P    -4.7558  10.6750  17.8544   Fe        1 RES1   1.0000
   252 Fe3P    -2.9630  11.5970  13.2298   Fe        1 RES1   0.0000
   253 C1P     -6.0642   9.4407  21.5442   C.2       1 RES1   0.0000
   254 H1P     -6.5894   8.8512  22.0740   H         1 RES1   0.0000
   255 C2P     -5.2315  10.4496  22.0132   C.2       1 RES1   0.0000
   256 H2P     -5.0713  10.6906  22.9186   H         1 RES1   0.0000
   257 C3P     -4.6853  11.0269  20.8780   C.2       1 RES1   0.0000
   258 H3P     -4.0760  11.7542  20.8806   H         1 RES1   0.0000
   259 C5P     -4.7329  12.5173  18.1371   C.1       1 RES1   0.0000
   260 C6P     -4.3514  11.0036  16.0546   C.1       1 RES1   0.0000
   261 C7P     -2.9087  10.6886  18.1348   C.1       1 RES1   0.0000
   262 C8P     -1.0958  12.4857  10.7990   C.1       1 RES1   0.0000
   263 N1P     -6.7256  10.5186  17.5542   N.2       1 RES1   0.0000
   264 N2P     -5.9885   9.4496  20.2012   N.pl3     1 RES1   0.0000
   265 N3P     -5.1354  10.4163  19.7789   N.2       1 RES1   0.0000
   266 N4P     -4.6928   8.6754  17.6506   N.2       1 RES1   0.0000
   267 N7P     -1.7789  11.9454  11.5634   N.1       1 RES1   0.0000
   268 N8P     -3.9873  11.2805  14.9932   N.1       1 RES1   0.0000
   269 N9P     -1.7633  10.6696  18.2463   N.1       1 RES1   0.0000
   270 O1P     -1.1415  12.0074  14.4513   O.3       1 RES1   0.0000
   271 H5P     -1.3064  11.8798  15.2722   H         1 RES1   0.0000
   272 H6P     -0.3240  11.8554  14.3019   H         1 RES1   0.0000
   273 O2P     -4.6172  11.3300  12.1121   O.2       1 RES1   0.0000
   274 N10P    -7.4284   9.5303  18.1768   N.pl3     1 RES1   0.0000
   275 N11P    -5.5755   7.8965  18.3357   N.pl3     1 RES1   0.0000
   276 S1P     -4.9443  12.2509  10.9389   S.o       1 RES1   0.0000
   277 C9P     -5.0116  11.1383   9.5688   C.3       1 RES1   0.0000
   278 H7P     -5.2198  11.6407   8.7527   H         1 RES1   0.0000
   279 H8P     -5.7087  10.4698   9.7278   H         1 RES1   0.0000
   280 H9P     -4.1461  10.6927   9.4692   H         1 RES1   0.0000
   281 C10P    -6.6607  12.6009  11.1347   C.3       1 RES1   0.0000
   282 H10P    -6.9590  13.1945  10.4134   H         1 RES1   0.0000
   283 H11P    -6.8081  13.0385  11.9982   H         1 RES1   0.0000
   284 H12P    -7.1718  11.7643  11.1014   H         1 RES1   0.0000
   285 C11P    -7.5718  11.1039  16.7142   C.2       1 RES1   0.0000
   286 H13P    -7.3531  11.8392  16.1500   H         1 RES1   0.0000
   287 C12P    -8.8233  10.5002  16.7739   C.2       1 RES1   0.0000
   288 H14P    -9.5999  10.7190  16.2734   H         1 RES1   0.0000
   289 C13P    -8.6853   9.5035  17.7182   C.2       1 RES1   0.0000
   290 H15P    -9.3660   8.9039  17.9957   H         1 RES1   0.0000
   291 C14P    -5.2795   6.5986  18.1483   C.2       1 RES1   0.0000
   292 H16P    -5.7473   5.8612  18.5224   H         1 RES1   0.0000
   293 C15P    -4.1906   6.5196  17.3267   C.2       1 RES1   0.0000
   294 H17P    -3.7532   5.7336  17.0183   H         1 RES1   0.0000
   295 C16P    -3.8584   7.8485  17.0349   C.2       1 RES1   0.0000
   296 H18P    -3.1391   8.1179  16.4774   H         1 RES1   0.0000
   297 B2P     -6.6888   8.5818  19.1362   B         1 RES1  -1.0000
   298 N12P    -4.5491  13.6399  18.3511   N.1       1 RES1   0.0000
   299 H22P    -7.4034   7.8667  19.5805   H         1 RES1   0.0000
   300 Fe2Q     4.8288  10.8014  17.8544   Fe        1 RES1   1.0000
   301 Fe3Q     3.1340  11.8931  13.2298   Fe        1 RES1   0.0000
   302 C1Q      6.5520  10.2855  21.5442   C.2       1 RES1   0.0000
   303 H1Q      7.3250  10.1254  22.0740   H         1 RES1   0.0000
   304 C2Q      5.2619  10.5022  22.0132   C.2       1 RES1   0.0000
   305 H2Q      4.9730  10.5205  22.9186   H         1 RES1   0.0000
   306 C3Q      4.4888  10.6866  20.8780   C.2       1 RES1   0.0000
   307 H3Q      3.5543  10.8507  20.8806   H         1 RES1   0.0000
   308 C5Q      3.2219   9.9002  18.1371   C.1       1 RES1   0.0000
   309 C6Q      4.3420  10.9874  16.0546   C.1       1 RES1   0.0000
   310 C7Q      3.8935  12.3943  18.1348   C.1       1 RES1   0.0000
   311 C8Q      1.4307  13.0658  10.7990   C.1       1 RES1   0.0000
   312 N1Q      5.9492   9.1737  17.5542   N.2       1 RES1   0.0000
   313 N2Q      6.5063  10.3467  20.2012   N.pl3     1 RES1   0.0000
   314 N3Q      5.2426  10.6021  19.7789   N.2       1 RES1   0.0000
   315 N4Q      6.5290  11.8558  17.6506   N.2       1 RES1   0.0000
   316 N7Q      2.2402  12.7443  11.5634   N.1       1 RES1   0.0000
   317 N8Q      3.9202  11.1643  14.9932   N.1       1 RES1   0.0000
   318 N9Q      3.3373  13.3958  18.2463   N.1       1 RES1   0.0000
   319 O1Q      1.8678  13.2654  14.4513   O.3       1 RES1   0.0000
   320 H5Q      2.0608  13.1864  15.2722   H         1 RES1   0.0000
   321 H6Q      1.5906  14.0493  14.3019   H         1 RES1   0.0000
   322 O2Q      4.1923  10.5940  12.1121   O.2       1 RES1   0.0000
   323 N10Q     7.1565   9.0593  18.1768   N.pl3     1 RES1   0.0000
   324 N11Q     7.6449  11.4809  18.3357   N.pl3     1 RES1   0.0000
   325 S1Q      3.5583   9.8503  10.9389   S.o       1 RES1   0.0000
   326 C9Q      4.5555  10.3483   9.5688   C.3       1 RES1   0.0000
   327 H7Q      4.2245   9.9168   8.7527   H         1 RES1   0.0000
   328 H8Q      5.4830  10.0788   9.7278   H         1 RES1   0.0000
   329 H9Q      4.5087  11.3206   9.4692   H         1 RES1   0.0000
   330 C10Q     4.1134   8.1888  11.1347   C.3       1 RES1   0.0000
   331 H10Q     3.7485   7.6338  10.4134   H         1 RES1   0.0000
   332 H11Q     3.8081   7.8424  11.9982   H         1 RES1   0.0000
   333 H12Q     5.0935   8.1645  11.1014   H         1 RES1   0.0000
   334 C11Q     5.8654   8.1483  16.7142   C.2       1 RES1   0.0000
   335 H13Q     5.1192   7.9700  16.1500   H         1 RES1   0.0000
   336 C12Q     7.0139   7.3664  16.7739   C.2       1 RES1   0.0000
   337 H14Q     7.2128   6.5844  16.2734   H         1 RES1   0.0000
   338 C13Q     7.8081   7.9842  17.7182   C.2       1 RES1   0.0000
   339 H15Q     8.6677   7.6945  17.9957   H         1 RES1   0.0000
   340 C14Q     8.6209  12.3862  18.1483   C.2       1 RES1   0.0000
   341 H16Q     9.4934  12.3497  18.5224   H         1 RES1   0.0000
   342 C15Q     8.1449  13.3687  17.3267   C.2       1 RES1   0.0000
   343 H17Q     8.6069  14.1405  17.0183   H         1 RES1   0.0000
   344 C16Q     6.8280  12.9919  17.0349   C.2       1 RES1   0.0000
   345 H18Q     6.2350  13.4801  16.4774   H         1 RES1   0.0000
   346 B2Q      7.6081  10.1741  19.1362   B         1 RES1  -1.0000
   347 N12Q     2.1577   9.4981  18.3511   N.1       1 RES1   0.0000
   348 H22Q     8.5847   9.9127  19.5805   H         1 RES1   0.0000
@<TRIPOS>BOND
     1     1    15    1
     2     2    12    1
     3     3    22    1
     4     4     5    1
     5     6     4    2
     6     7     6    1
     7     8     6    1
     8     9     8    1
     9    10    11    1
    10    12    54    3
    11    13     2    1
    12    14     2    1
    13    15    22    3
    14    16     2    1
    15    17     4    1
    16    18     2    1
    17    19     2    1
    18    20    10    1
    19    21     1    1
    20    23     3    1
    21    24    14    3
    22    25    20    1
    23    26     3    1
    24    27    26    1
    25    28    26    1
    26    29     3    1
    27    30    16    1
    28    31    19    1
    29    32    29    2
    30    33    32    1
    31    34    33    1
    32    35    33    1
    33    36    33    1
    34    37    32    1
    35    38    37    1
    36    39    37    1
    37    40    37    1
    38    41    16    2
    39    42    41    1
    40    43    41    1
    41    44    43    1
    42    45    30    1
    43    46    45    1
    44    47    31    1
    45    48    47    1
    46    49    47    2
    47    50    49    1
    48    51    19    2
    49    52    51    1
    50    53    17    1
    51    54   252    1
    52    55    21    2
    53    56    55    1
    54    57    10    2
    55    58    57    1
    56    59    25    1
    57    60    53    1
    58    61    62    1
    59    63    25    1
    60    64     1    1
    61    65    64    2
    62    66    65    1
    63    67    61    2
    64    68    67    1
    65    69    70    1
    66    71    25    1
    67    72     1    1
    68    73    72    2
    69    74    73    1
    70    75    69    2
    71    76    75    1
    72    77    85    1
    73    78    93    1
    74    79    80    1
    75    81    79    1
    76    82    81    1
    77    83    81    2
    78    84    83    1
    79    85   124    3
    80    86    77    1
    81    87    77    1
    82    88     1    1
    83    89    77    1
    84    90    79    2
    85    91    77    1
    86    92    77    1
    87    93    88    3
    88    94    78    1
    89    95    87    3
    90    96    78    1
    91    97    96    1
    92    98    96    1
    93    99    78    1
    94   100    89    1
    95   101    92    1
    96   102    99    2
    97   103   102    1
    98   104   103    1
    99   105   103    1
   100   106   103    1
   101   107   102    1
   102   108   107    1
   103   109   107    1
   104   110   107    1
   105   111    89    2
   106   112   111    1
   107   113   111    1
   108   114   113    1
   109   115   100    1
   110   116   115    1
   111   117   101    1
   112   118   117    1
   113   119   117    2
   114   120   119    1
   115   121    92    2
   116   122   121    1
   117   123    90    1
   118   124   301    1
   119   125   123    1
   120   126   134    1
   121   127   142    1
   122   128   129    1
   123   130   128    2
   124   131   130    1
   125   132   130    1
   126   133   132    1
   127   134   173    3
   128   135   126    1
   129   136   126    1
   130   137     1    1
   131   138   126    1
   132   139   128    1
   133   140   126    1
   134   141   126    1
   135   142   137    3
   136   143   127    1
   137   144   136    3
   138   145   127    1
   139   146   145    1
   140   147   145    1
   141   148   127    1
   142   149   138    1
   143   150   141    1
   144   151   148    2
   145   152   151    1
   146   153   152    1
   147   154   152    1
   148   155   152    1
   149   156   151    1
   150   157   156    1
   151   158   156    1
   152   159   156    1
   153   160   138    2
   154   161   160    1
   155   162   160    1
   156   163   162    1
   157   164   149    1
   158   165   164    1
   159   166   150    1
   160   167   166    1
   161   168   166    2
   162   169   168    1
   163   170   141    2
   164   171   170    1
   165   172   139    1
   166   173   177    1
   167   174   172    1
   168   175   189    1
   169   176   186    1
   170   177    95    1
   171   178   179    1
   172   180   178    2
   173   181   180    1
   174   182   180    1
   175   183   182    1
   176   184   185    1
   177   186   228    3
   178   187   176    1
   179   188   176    1
   180   189   196    3
   181   190   176    1
   182   191   178    1
   183   192   176    1
   184   193   176    1
   185   194   184    1
   186   195   175    1
   187   196   177    1
   188   197   177    1
   189   198   127    1
   190   199   194    1
   191   200   177    1
   192   201   200    1
   193   202   200    1
   194   203   177    1
   195   204   190    1
   196   205   193    1
   197   206   203    2
   198   207   206    1
   199   208   207    1
   200   209   207    1
   201   210   207    1
   202   211   206    1
   203   212   211    1
   204   213   211    1
   205   214   211    1
   206   215   190    2
   207   216   215    1
   208   217   215    1
   209   218   217    1
   210   219   204    1
   211   220   219    1
   212   221   205    1
   213   222   221    1
   214   223   221    2
   215   224   223    1
   216   225   193    2
   217   226   225    1
   218   227   191    1
   219   228    78    1
   220   229   195    2
   221   230   229    1
   222   231   184    2
   223   232   231    1
   224   233   199    1
   225   234   227    1
   226   235   236    1
   227   237   199    1
   228   238   175    1
   229   239   238    2
   230   240   239    1
   231   241   235    2
   232   242   241    1
   233   243   244    1
   234   245   199    1
   235   246   175    1
   236   247   246    2
   237   248   247    1
   238   249   243    2
   239   250   249    1
   240   251   259    1
   241   252   144    1
   242   253   254    1
   243   255   253    2
   244   256   255    1
   245   257   255    1
   246   258   257    1
   247   259   298    3
   248   260   251    1
   249   261   251    1
   250   262   175    1
   251   263   251    1
   252   264   253    1
   253   265   251    1
   254   266   251    1
   255   267   252    1
   256   268   252    1
   257   269     3    1
   258   270   252    1
   259   271   270    1
   260   272   270    1
   261   273   252    1
   262   274   263    1
   263   275   266    1
   264   276   273    2
   265   277   276    1
   266   278   277    1
   267   279   277    1
   268   280   277    1
   269   281   276    1
   270   282   281    1
   271   283   281    1
   272   284   281    1
   273   285   263    2
   274   286   285    1
   275   287   285    1
   276   288   287    1
   277   289   274    1
   278   290   289    1
   279   291   275    1
   280   292   291    1
   281   293   291    2
   282   294   293    1
   283   295   266    2
   284   296   295    1
   285   297   264    1
   286   298   127    1
   287   299   297    1
   288   300   308    1
   289   301    24    1
   290   302   303    1
   291   304   302    2
   292   305   304    1
   293   306   304    1
   294   307   306    1
   295   308   347    3
   296   309   300    1
   297   310   300    1
   298   311   175    1
   299   312   300    1
   300   313   302    1
   301   314   300    1
   302   315   300    1
   303   316   301    1
   304   317   301    1
   305   318    78    1
   306   319   301    1
   307   320   319    1
   308   321   319    1
   309   322   301    1
   310   323   312    1
   311   324   315    1
   312   325   322    2
   313   326   325    1
   314   327   326    1
   315   328   326    1
   316   329   326    1
   317   330   325    1
   318   331   330    1
   319   332   330    1
   320   333   330    1
   321   334   312    2
   322   335   334    1
   323   336   334    1
   324   337   336    1
   325   338   323    1
   326   339   338    1
   327   340   324    1
   328   341   340    1
   329   342   340    2
   330   343   342    1
   331   344   315    2
   332   345   344    1
   333   346   313    1
   334   347     3    1
   335   348   346    1
   336     8    18    2
   337    13    23    3
   338    17    18    1
   339    20    21    1
   340    30    53    1
   341    31    53    1
   342    43    45    2
   343    49    51    1
   344    55    57    1
   345    61    63    1
   346    63    64    1
   347    65    67    1
   348    69    71    1
   349    71    72    1
   350    73    75    1
   351    83    91    1
   352    86    94    3
   353    90    91    1
   354   100   123    1
   355   101   123    1
   356   113   115    2
   357   119   121    1
   358   132   140    2
   359   135   143    3
   360   139   140    1
   361   149   172    1
   362   150   172    1
   363   162   164    2
   364   168   170    1
   365   182   192    2
   366   187   197    3
   367   188   198    3
   368   191   192    1
   369   194   195    1
   370   204   227    1
   371   205   227    1
   372   217   219    2
   373   223   225    1
   374   229   231    1
   375   235   237    1
   376   237   238    1
   377   239   241    1
   378   243   245    1
   379   245   246    1
   380   247   249    1
   381   257   265    2
   382   260   268    3
   383   261   269    3
   384   262   267    3
   385   264   265    1
   386   274   297    1
   387   275   297    1
   388   287   289    2
   389   293   295    1
   390   306   314    2
   391   309   317    3
   392   310   318    3
   393   311   316    3
   394   313   314    1
   395   323   346    1
   396   324   346    1
   397   336   338    2
   398   342   344    1
@<TRIPOS>SUBSTRUCTURE
     1 RES1        1 GROUP             0 ****  ****    0  
@<TRIPOS>CRYSIN
   23.3915   23.3915   23.7244   90.0000   90.0000  120.0000   233     1
