@<TRIPOS>MOLECULE
DOXVEU01
   348   398     1     0     0
SMALL
USER_CHARGES
****
Generated from the CSD

@<TRIPOS>ATOM
     1 Fe1      0.0000   0.0000  17.6106   Fe        1 RES1   1.0000
     2 Fe2      0.0652   5.5565  25.8110   Fe        1 RES1   1.0000
     3 Fe3      0.1643   3.5509  21.1648   Fe        1 RES1   0.0000
     4 C1       3.3306   8.0645  26.1059   C.2       1 RES1   0.0000
     5 H1       3.7248   8.8231  26.4717   H         1 RES1   0.0000
     6 C2       3.9497   7.1550  25.2883   C.2       1 RES1   0.0000
     7 H2       4.8324   7.1658  24.9934   H         1 RES1   0.0000
     8 C3       2.9647   6.2053  24.9936   C.2       1 RES1   0.0000
     9 H3       3.0908   5.4637  24.4467   H         1 RES1   0.0000
    10 C4       0.4553   7.3111  29.5067   C.2       1 RES1   0.0000
    11 H4       0.6882   8.0455  30.0272   H         1 RES1   0.0000
    12 C5       0.0055   6.1064  29.9799   C.2       1 RES1   0.0000
    13 H5      -0.1273   5.8616  30.8662   H         1 RES1   0.0000
    14 C6      -0.2097   5.3281  28.8451   C.2       1 RES1   0.0000
    15 H6      -0.5232   4.4534  28.8508   H         1 RES1   0.0000
    16 C7      -1.7371   7.7838  24.6794   C.2       1 RES1   0.0000
    17 H7      -2.2554   7.2373  24.1354   H         1 RES1   0.0000
    18 C8      -1.8451   9.1721  24.7369   C.2       1 RES1   0.0000
    19 H8      -2.4203   9.7191  24.2518   H         1 RES1   0.0000
    20 C9      -0.9130   9.5529  25.6676   C.2       1 RES1   0.0000
    21 H9      -0.7400  10.4252  25.9369   H         1 RES1   0.0000
    22 C10     -1.9621   2.1420  16.6157   C.2       1 RES1   0.0000
    23 H10     -2.2059   2.4492  17.4592   H         1 RES1   0.0000
    24 C11     -2.4393   2.6604  15.4117   C.2       1 RES1   0.0000
    25 H11     -3.0437   3.3574  15.2941   H         1 RES1   0.0000
    26 C12     -1.8187   1.9156  14.4401   C.2       1 RES1   0.0000
    27 H12     -1.9301   2.0206  13.5234   H         1 RES1   0.0000
    28 C13      0.9903   3.9529  26.0893   C.1       1 RES1   0.0000
    29 C14     -0.0163   5.0493  24.0009   C.1       1 RES1   0.0000
    30 C15     -1.5168   4.6126  26.0926   C.1       1 RES1   0.0000
    31 C16      0.3311   1.4662  18.7438   C.1       1 RES1   0.0000
    32 C17     -0.4419   5.5453  17.4920   C.3       1 RES1   0.0000
    33 H13     -0.9615   5.4739  16.6868   H         1 RES1   0.0000
    34 H14     -0.2109   6.4637  17.6446   H         1 RES1   0.0000
    35 H15      0.3582   5.0248  17.4022   H         1 RES1   0.0000
    36 C18     -2.5535   6.2555  19.0302   C.3       1 RES1   0.0000
    37 H16     -3.1910   6.2127  18.3125   H         1 RES1   0.0000
    38 H17     -3.0095   6.1719  19.8692   H         1 RES1   0.0000
    39 H18     -2.0916   7.0964  18.9970   H         1 RES1   0.0000
    40 N1       2.0609   7.6716  26.2882   N.pl3     1 RES1   0.0000
    41 N2       1.8268   6.5117  25.6042   N.2       1 RES1   0.0000
    42 N3       0.5032   7.2564  28.1637   N.pl3     1 RES1   0.0000
    43 N4       0.1002   6.0208  27.7513   N.2       1 RES1   0.0000
    44 N5      -0.2909   8.4522  26.1256   N.pl3     1 RES1   0.0000
    45 N6      -0.7950   7.3469  25.5072   N.2       1 RES1   0.0000
    46 N7      -1.0182   1.0031  15.0352   N.pl3     1 RES1   0.0000
    47 N8      -1.1073   1.1427  16.3881   N.2       1 RES1   0.0000
    48 N9       0.4552   2.3375  19.5044   N.1       1 RES1   0.0000
    49 N10     -0.0721   4.6028  22.9297   N.1       1 RES1   0.0000
    50 N11      1.5849   2.9635  26.2003   N.1       1 RES1   0.0000
    51 N12     -2.4041   3.8835  26.3091   N.1       1 RES1   0.0000
    52 S1      -1.3892   4.9406  18.8608   S.o       1 RES1   0.0000
    53 B1       0.9041   8.2918  27.0965   B         1 RES1  -1.0000
    54 H19      1.2019   9.2578  27.5626   H         1 RES1   0.0000
    55 B2       0.0000   0.0000  14.4717   B         1 RES1  -1.0000
    56 O1       0.7524   1.7538  22.4066   O.3       1 RES1   0.0000
    57 H20      0.7247   1.9614  23.2299   H         1 RES1   0.0000
    58 H21      0.2109   1.1164  22.2554   H         1 RES1   0.0000
    59 O2      -0.4399   5.1177  20.0487   O.2       1 RES1   0.0000
    60 H22      0.0000   0.0000  13.2905   H         1 RES1   0.0000
    61 C10A    -0.8740  -2.7702  16.6157   C.2       1 RES1   0.0000
    62 H10A    -1.0181  -3.1349  17.4592   H         1 RES1   0.0000
    63 C11A    -1.0843  -3.4427  15.4117   C.2       1 RES1   0.0000
    64 H11A    -1.3857  -4.3146  15.2941   H         1 RES1   0.0000
    65 C12A    -0.7497  -2.5328  14.4401   C.2       1 RES1   0.0000
    66 H12A    -0.7848  -2.6818  13.5234   H         1 RES1   0.0000
    67 N7A     -0.3596  -1.3834  15.0352   N.pl3     1 RES1   0.0000
    68 N8A     -0.4360  -1.5303  16.3881   N.2       1 RES1   0.0000
    69 C10B     2.8361   0.6282  16.6157   C.2       1 RES1   0.0000
    70 H10B     3.2240   0.6858  17.4592   H         1 RES1   0.0000
    71 C11B     3.5236   0.7823  15.4117   C.2       1 RES1   0.0000
    72 H11B     4.4294   0.9572  15.2941   H         1 RES1   0.0000
    73 C12B     2.5683   0.6172  14.4401   C.2       1 RES1   0.0000
    74 H12B     2.7149   0.6613  13.5234   H         1 RES1   0.0000
    75 N7B      1.3778   0.3802  15.0352   N.pl3     1 RES1   0.0000
    76 N8B      1.5433   0.3876  16.3881   N.2       1 RES1   0.0000
    77 Fe2A    -4.8447  -2.7218  25.8110   Fe        1 RES1   1.0000
    78 Fe3A    -3.1573  -1.6332  21.1648   Fe        1 RES1   0.0000
    79 C1A     -8.6493  -1.1478  26.1059   C.2       1 RES1   0.0000
    80 H1A     -9.5034  -1.1858  26.4717   H         1 RES1   0.0000
    81 C2A     -8.1713  -0.1569  25.2883   C.2       1 RES1   0.0000
    82 H2A     -8.6220   0.6021  24.9934   H         1 RES1   0.0000
    83 C3A     -6.8563  -0.5351  24.9936   C.2       1 RES1   0.0000
    84 H3A     -6.2771  -0.0551  24.4467   H         1 RES1   0.0000
    85 C4A     -6.5593  -3.2613  29.5067   C.2       1 RES1   0.0000
    86 H4A     -7.3117  -3.4268  30.0272   H         1 RES1   0.0000
    87 C5A     -5.2910  -3.0484  29.9799   C.2       1 RES1   0.0000
    88 H5A     -5.0127  -3.0410  30.8662   H         1 RES1   0.0000
    89 C6A     -4.5094  -2.8457  28.8451   C.2       1 RES1   0.0000
    90 H6A     -3.5951  -2.6798  28.8508   H         1 RES1   0.0000
    91 C7A     -5.8724  -5.3963  24.6794   C.2       1 RES1   0.0000
    92 H7A     -5.1400  -5.5718  24.1354   H         1 RES1   0.0000
    93 C8A     -7.0207  -6.1839  24.7369   C.2       1 RES1   0.0000
    94 H8A     -7.2068  -6.9556  24.2518   H         1 RES1   0.0000
    95 C9A     -7.8166  -5.5671  25.6676   C.2       1 RES1   0.0000
    96 H9A     -8.6585  -5.8535  25.9369   H         1 RES1   0.0000
    97 C13A    -3.9185  -1.1189  26.0893   C.1       1 RES1   0.0000
    98 C14A    -4.3647  -2.5388  24.0009   C.1       1 RES1   0.0000
    99 C15A    -3.2362  -3.6199  26.0926   C.1       1 RES1   0.0000
   100 C16A    -1.4353  -0.4464  18.7438   C.1       1 RES1   0.0000
   101 C17A    -4.5814  -3.1553  17.4920   C.3       1 RES1   0.0000
   102 H13A    -4.2597  -3.5696  16.6868   H         1 RES1   0.0000
   103 H14A    -5.4923  -3.4145  17.6446   H         1 RES1   0.0000
   104 H15A    -4.5308  -2.2022  17.4022   H         1 RES1   0.0000
   105 C18A    -4.1407  -5.3392  19.0302   C.3       1 RES1   0.0000
   106 H16A    -3.7849  -5.8698  18.3125   H         1 RES1   0.0000
   107 H17A    -3.8402  -5.6922  19.8692   H         1 RES1   0.0000
   108 H18A    -5.0999  -5.3596  18.9970   H         1 RES1   0.0000
   109 N1A     -7.6742  -2.0510  26.2882   N.pl3     1 RES1   0.0000
   110 N2A     -6.5527  -1.6738  25.6042   N.2       1 RES1   0.0000
   111 N3A     -6.5358  -3.1925  28.1637   N.pl3     1 RES1   0.0000
   112 N4A     -5.2643  -2.9237  27.7513   N.2       1 RES1   0.0000
   113 N5A     -7.1744  -4.4781  26.1256   N.pl3     1 RES1   0.0000
   114 N6A     -5.9650  -4.3619  25.5072   N.2       1 RES1   0.0000
   115 N9A     -2.2519  -0.7745  19.5044   N.1       1 RES1   0.0000
   116 N10A    -3.9501  -2.3638  22.9297   N.1       1 RES1   0.0000
   117 N11A    -3.3589  -0.1092  26.2003   N.1       1 RES1   0.0000
   118 N12A    -2.1612  -4.0238  26.3091   N.1       1 RES1   0.0000
   119 S1A     -3.5841  -3.6733  18.8608   S.o       1 RES1   0.0000
   120 B1A     -7.6330  -3.3629  27.0965   B         1 RES1  -1.0000
   121 H19A    -8.6185  -3.5880  27.5626   H         1 RES1   0.0000
   122 O1A     -1.8950  -0.2253  22.4066   O.3       1 RES1   0.0000
   123 H20A    -2.0609  -0.3531  23.2299   H         1 RES1   0.0000
   124 H21A    -1.0723  -0.3755  22.2554   H         1 RES1   0.0000
   125 O2A     -4.2121  -2.9398  20.0487   O.2       1 RES1   0.0000
   126 Fe2B     4.7795  -2.8347  25.8110   Fe        1 RES1   1.0000
   127 Fe3B     2.9930  -1.9177  21.1648   Fe        1 RES1   0.0000
   128 C1B      5.3187  -6.9166  26.1059   C.2       1 RES1   0.0000
   129 H1B      5.7786  -7.6373  26.4717   H         1 RES1   0.0000
   130 C2B      4.2216  -6.9981  25.2883   C.2       1 RES1   0.0000
   131 H2B      3.7896  -7.7679  24.9934   H         1 RES1   0.0000
   132 C3B      3.8916  -5.6702  24.9936   C.2       1 RES1   0.0000
   133 H3B      3.1863  -5.4085  24.4467   H         1 RES1   0.0000
   134 C4B      6.1040  -4.0499  29.5067   C.2       1 RES1   0.0000
   135 H4B      6.6235  -4.6187  30.0272   H         1 RES1   0.0000
   136 C5B      5.2855  -3.0580  29.9799   C.2       1 RES1   0.0000
   137 H5B      5.1400  -2.8206  30.8662   H         1 RES1   0.0000
   138 C6B      4.7192  -2.4824  28.8451   C.2       1 RES1   0.0000
   139 H6B      4.1183  -1.7736  28.8508   H         1 RES1   0.0000
   140 C7B      7.6095  -2.3875  24.6794   C.2       1 RES1   0.0000
   141 H7B      7.3953  -1.6654  24.1354   H         1 RES1   0.0000
   142 C8B      8.8658  -2.9882  24.7369   C.2       1 RES1   0.0000
   143 H8B      9.6271  -2.7635  24.2518   H         1 RES1   0.0000
   144 C9B      8.7296  -3.9858  25.6676   C.2       1 RES1   0.0000
   145 H9B      9.3985  -4.5718  25.9369   H         1 RES1   0.0000
   146 C13B     2.9282  -2.8341  26.0893   C.1       1 RES1   0.0000
   147 C14B     4.3810  -2.5106  24.0009   C.1       1 RES1   0.0000
   148 C15B     4.7530  -0.9927  26.0926   C.1       1 RES1   0.0000
   149 C16B     1.1042  -1.0199  18.7438   C.1       1 RES1   0.0000
   150 C17B     5.0233  -2.3900  17.4920   C.3       1 RES1   0.0000
   151 H13B     5.2213  -1.9042  16.6868   H         1 RES1   0.0000
   152 H14B     5.7032  -3.0492  17.6446   H         1 RES1   0.0000
   153 H15B     4.1725  -2.8227  17.4022   H         1 RES1   0.0000
   154 C18B     6.6942  -0.9164  19.0302   C.3       1 RES1   0.0000
   155 H16B     6.9758  -0.3429  18.3125   H         1 RES1   0.0000
   156 H17B     6.8497  -0.4796  19.8692   H         1 RES1   0.0000
   157 H18B     7.1915  -1.7369  18.9970   H         1 RES1   0.0000
   158 N1B      5.6133  -5.6206  26.2882   N.pl3     1 RES1   0.0000
   159 N2B      4.7259  -4.8379  25.6042   N.2       1 RES1   0.0000
   160 N3B      6.0327  -4.0640  28.1637   N.pl3     1 RES1   0.0000
   161 N4B      5.1641  -3.0972  27.7513   N.2       1 RES1   0.0000
   162 N5B      7.4653  -3.9742  26.1256   N.pl3     1 RES1   0.0000
   163 N6B      6.7601  -2.9849  25.5072   N.2       1 RES1   0.0000
   164 N9B      1.7967  -1.5630  19.5044   N.1       1 RES1   0.0000
   165 N10B     4.0222  -2.2389  22.9297   N.1       1 RES1   0.0000
   166 N11B     1.7740  -2.8543  26.2003   N.1       1 RES1   0.0000
   167 N12B     4.5653   0.1402  26.3091   N.1       1 RES1   0.0000
   168 S1B      4.9732  -1.2672  18.8608   S.o       1 RES1   0.0000
   169 B1B      6.7288  -4.9289  27.0965   B         1 RES1  -1.0000
   170 H19B     7.4165  -5.6698  27.5626   H         1 RES1   0.0000
   171 O1B      1.1426  -1.5285  22.4066   O.3       1 RES1   0.0000
   172 H20B     1.3362  -1.6083  23.2299   H         1 RES1   0.0000
   173 H21B     0.8614  -0.7409  22.2554   H         1 RES1   0.0000
   174 O2B      4.6520  -2.1779  20.0487   O.2       1 RES1   0.0000
   175 Fe1I     0.0000   0.0000  29.9234   Fe        1 RES1   1.0000
   176 Fe2I    -0.0652  -5.5565  21.7230   Fe        1 RES1   1.0000
   177 Fe3I    -0.1643  -3.5509  26.3692   Fe        1 RES1   0.0000
   178 C1I     -3.3306  -8.0645  21.4281   C.2       1 RES1   0.0000
   179 H1I     -3.7248  -8.8231  21.0623   H         1 RES1   0.0000
   180 C2I     -3.9497  -7.1550  22.2457   C.2       1 RES1   0.0000
   181 H2I     -4.8324  -7.1658  22.5406   H         1 RES1   0.0000
   182 C3I     -2.9647  -6.2053  22.5404   C.2       1 RES1   0.0000
   183 H3I     -3.0908  -5.4637  23.0873   H         1 RES1   0.0000
   184 C4I     -0.4553  -7.3111  18.0273   C.2       1 RES1   0.0000
   185 H4I     -0.6882  -8.0455  17.5068   H         1 RES1   0.0000
   186 C5I     -0.0055  -6.1064  17.5541   C.2       1 RES1   0.0000
   187 H5I      0.1273  -5.8616  16.6678   H         1 RES1   0.0000
   188 C6I      0.2097  -5.3281  18.6889   C.2       1 RES1   0.0000
   189 H6I      0.5232  -4.4534  18.6832   H         1 RES1   0.0000
   190 C7I      1.7371  -7.7838  22.8546   C.2       1 RES1   0.0000
   191 H7I      2.2554  -7.2373  23.3986   H         1 RES1   0.0000
   192 C8I      1.8451  -9.1721  22.7971   C.2       1 RES1   0.0000
   193 H8I      2.4203  -9.7191  23.2822   H         1 RES1   0.0000
   194 C9I      0.9130  -9.5529  21.8664   C.2       1 RES1   0.0000
   195 H9I      0.7400 -10.4252  21.5971   H         1 RES1   0.0000
   196 C10I     1.9621  -2.1420  30.9183   C.2       1 RES1   0.0000
   197 H10I     2.2059  -2.4492  30.0748   H         1 RES1   0.0000
   198 C11I     2.4393  -2.6604  32.1223   C.2       1 RES1   0.0000
   199 H11I     3.0437  -3.3574  32.2399   H         1 RES1   0.0000
   200 C12I     1.8187  -1.9156  33.0939   C.2       1 RES1   0.0000
   201 H12I     1.9301  -2.0206  34.0106   H         1 RES1   0.0000
   202 C13I    -0.9903  -3.9529  21.4447   C.1       1 RES1   0.0000
   203 C14I     0.0163  -5.0493  23.5331   C.1       1 RES1   0.0000
   204 C15I     1.5168  -4.6126  21.4414   C.1       1 RES1   0.0000
   205 C16I    -0.3311  -1.4662  28.7902   C.1       1 RES1   0.0000
   206 C17I     0.4419  -5.5453  30.0420   C.3       1 RES1   0.0000
   207 H13I     0.9615  -5.4739  30.8472   H         1 RES1   0.0000
   208 H14I     0.2109  -6.4637  29.8894   H         1 RES1   0.0000
   209 H15I    -0.3582  -5.0248  30.1318   H         1 RES1   0.0000
   210 C18I     2.5535  -6.2555  28.5038   C.3       1 RES1   0.0000
   211 H16I     3.1910  -6.2127  29.2215   H         1 RES1   0.0000
   212 H17I     3.0095  -6.1719  27.6648   H         1 RES1   0.0000
   213 H18I     2.0916  -7.0964  28.5370   H         1 RES1   0.0000
   214 N1I     -2.0609  -7.6716  21.2458   N.pl3     1 RES1   0.0000
   215 N2I     -1.8268  -6.5117  21.9298   N.2       1 RES1   0.0000
   216 N3I     -0.5032  -7.2564  19.3703   N.pl3     1 RES1   0.0000
   217 N4I     -0.1002  -6.0208  19.7827   N.2       1 RES1   0.0000
   218 N5I      0.2909  -8.4522  21.4084   N.pl3     1 RES1   0.0000
   219 N6I      0.7950  -7.3469  22.0268   N.2       1 RES1   0.0000
   220 N7I      1.0182  -1.0031  32.4988   N.pl3     1 RES1   0.0000
   221 N8I      1.1073  -1.1427  31.1459   N.2       1 RES1   0.0000
   222 N9I     -0.4552  -2.3375  28.0296   N.1       1 RES1   0.0000
   223 N10I     0.0721  -4.6028  24.6043   N.1       1 RES1   0.0000
   224 N11I    -1.5849  -2.9635  21.3337   N.1       1 RES1   0.0000
   225 N12I     2.4041  -3.8835  21.2249   N.1       1 RES1   0.0000
   226 S1I      1.3892  -4.9406  28.6732   S.o       1 RES1   0.0000
   227 B1I     -0.9041  -8.2918  20.4375   B         1 RES1  -1.0000
   228 H19I    -1.2019  -9.2578  19.9714   H         1 RES1   0.0000
   229 B2I      0.0000   0.0000  33.0623   B         1 RES1  -1.0000
   230 O1I     -0.7524  -1.7538  25.1274   O.3       1 RES1   0.0000
   231 H20I    -0.7247  -1.9614  24.3041   H         1 RES1   0.0000
   232 H21I    -0.2109  -1.1164  25.2786   H         1 RES1   0.0000
   233 O2I      0.4399  -5.1177  27.4853   O.2       1 RES1   0.0000
   234 H22I     0.0000   0.0000  34.2435   H         1 RES1   0.0000
   235 C10J     0.8740   2.7702  30.9183   C.2       1 RES1   0.0000
   236 H10J     1.0181   3.1349  30.0748   H         1 RES1   0.0000
   237 C11J     1.0843   3.4427  32.1223   C.2       1 RES1   0.0000
   238 H11J     1.3857   4.3146  32.2399   H         1 RES1   0.0000
   239 C12J     0.7497   2.5328  33.0939   C.2       1 RES1   0.0000
   240 H12J     0.7848   2.6818  34.0106   H         1 RES1   0.0000
   241 N7J      0.3596   1.3834  32.4988   N.pl3     1 RES1   0.0000
   242 N8J      0.4360   1.5303  31.1459   N.2       1 RES1   0.0000
   243 C10K    -2.8361  -0.6282  30.9183   C.2       1 RES1   0.0000
   244 H10K    -3.2240  -0.6858  30.0748   H         1 RES1   0.0000
   245 C11K    -3.5236  -0.7823  32.1223   C.2       1 RES1   0.0000
   246 H11K    -4.4294  -0.9572  32.2399   H         1 RES1   0.0000
   247 C12K    -2.5683  -0.6172  33.0939   C.2       1 RES1   0.0000
   248 H12K    -2.7149  -0.6613  34.0106   H         1 RES1   0.0000
   249 N7K     -1.3778  -0.3802  32.4988   N.pl3     1 RES1   0.0000
   250 N8K     -1.5433  -0.3876  31.1459   N.2       1 RES1   0.0000
   251 Fe2J     4.8447   2.7218  21.7230   Fe        1 RES1   1.0000
   252 Fe3J     3.1573   1.6332  26.3692   Fe        1 RES1   0.0000
   253 C1J      8.6493   1.1478  21.4281   C.2       1 RES1   0.0000
   254 H1J      9.5034   1.1858  21.0623   H         1 RES1   0.0000
   255 C2J      8.1713   0.1569  22.2457   C.2       1 RES1   0.0000
   256 H2J      8.6220  -0.6021  22.5406   H         1 RES1   0.0000
   257 C3J      6.8563   0.5351  22.5404   C.2       1 RES1   0.0000
   258 H3J      6.2771   0.0551  23.0873   H         1 RES1   0.0000
   259 C4J      6.5593   3.2613  18.0273   C.2       1 RES1   0.0000
   260 H4J      7.3117   3.4268  17.5068   H         1 RES1   0.0000
   261 C5J      5.2910   3.0484  17.5541   C.2       1 RES1   0.0000
   262 H5J      5.0127   3.0410  16.6678   H         1 RES1   0.0000
   263 C6J      4.5094   2.8457  18.6889   C.2       1 RES1   0.0000
   264 H6J      3.5951   2.6798  18.6832   H         1 RES1   0.0000
   265 C7J      5.8724   5.3963  22.8546   C.2       1 RES1   0.0000
   266 H7J      5.1400   5.5718  23.3986   H         1 RES1   0.0000
   267 C8J      7.0207   6.1839  22.7971   C.2       1 RES1   0.0000
   268 H8J      7.2068   6.9556  23.2822   H         1 RES1   0.0000
   269 C9J      7.8166   5.5671  21.8664   C.2       1 RES1   0.0000
   270 H9J      8.6585   5.8535  21.5971   H         1 RES1   0.0000
   271 C13J     3.9185   1.1189  21.4447   C.1       1 RES1   0.0000
   272 C14J     4.3647   2.5388  23.5331   C.1       1 RES1   0.0000
   273 C15J     3.2362   3.6199  21.4414   C.1       1 RES1   0.0000
   274 C16J     1.4353   0.4464  28.7902   C.1       1 RES1   0.0000
   275 C17J     4.5814   3.1553  30.0420   C.3       1 RES1   0.0000
   276 H13J     4.2597   3.5696  30.8472   H         1 RES1   0.0000
   277 H14J     5.4923   3.4145  29.8894   H         1 RES1   0.0000
   278 H15J     4.5308   2.2022  30.1318   H         1 RES1   0.0000
   279 C18J     4.1407   5.3392  28.5038   C.3       1 RES1   0.0000
   280 H16J     3.7849   5.8698  29.2215   H         1 RES1   0.0000
   281 H17J     3.8402   5.6922  27.6648   H         1 RES1   0.0000
   282 H18J     5.0999   5.3596  28.5370   H         1 RES1   0.0000
   283 N1J      7.6742   2.0510  21.2458   N.pl3     1 RES1   0.0000
   284 N2J      6.5527   1.6738  21.9298   N.2       1 RES1   0.0000
   285 N3J      6.5358   3.1925  19.3703   N.pl3     1 RES1   0.0000
   286 N4J      5.2643   2.9237  19.7827   N.2       1 RES1   0.0000
   287 N5J      7.1744   4.4781  21.4084   N.pl3     1 RES1   0.0000
   288 N6J      5.9650   4.3619  22.0268   N.2       1 RES1   0.0000
   289 N9J      2.2519   0.7745  28.0296   N.1       1 RES1   0.0000
   290 N10J     3.9501   2.3638  24.6043   N.1       1 RES1   0.0000
   291 N11J     3.3589   0.1092  21.3337   N.1       1 RES1   0.0000
   292 N12J     2.1612   4.0238  21.2249   N.1       1 RES1   0.0000
   293 S1J      3.5841   3.6733  28.6732   S.o       1 RES1   0.0000
   294 B1J      7.6330   3.3629  20.4375   B         1 RES1  -1.0000
   295 H19J     8.6185   3.5880  19.9714   H         1 RES1   0.0000
   296 O1J      1.8950   0.2253  25.1274   O.3       1 RES1   0.0000
   297 H20J     2.0609   0.3531  24.3041   H         1 RES1   0.0000
   298 H21J     1.0723   0.3755  25.2786   H         1 RES1   0.0000
   299 O2J      4.2121   2.9398  27.4853   O.2       1 RES1   0.0000
   300 Fe2K    -4.7795   2.8347  21.7230   Fe        1 RES1   1.0000
   301 Fe3K    -2.9930   1.9177  26.3692   Fe        1 RES1   0.0000
   302 C1K     -5.3187   6.9166  21.4281   C.2       1 RES1   0.0000
   303 H1K     -5.7786   7.6373  21.0623   H         1 RES1   0.0000
   304 C2K     -4.2216   6.9981  22.2457   C.2       1 RES1   0.0000
   305 H2K     -3.7896   7.7679  22.5406   H         1 RES1   0.0000
   306 C3K     -3.8916   5.6702  22.5404   C.2       1 RES1   0.0000
   307 H3K     -3.1863   5.4085  23.0873   H         1 RES1   0.0000
   308 C4K     -6.1040   4.0499  18.0273   C.2       1 RES1   0.0000
   309 H4K     -6.6235   4.6187  17.5068   H         1 RES1   0.0000
   310 C5K     -5.2855   3.0580  17.5541   C.2       1 RES1   0.0000
   311 H5K     -5.1400   2.8206  16.6678   H         1 RES1   0.0000
   312 C6K     -4.7192   2.4824  18.6889   C.2       1 RES1   0.0000
   313 H6K     -4.1183   1.7736  18.6832   H         1 RES1   0.0000
   314 C7K     -7.6095   2.3875  22.8546   C.2       1 RES1   0.0000
   315 H7K     -7.3953   1.6654  23.3986   H         1 RES1   0.0000
   316 C8K     -8.8658   2.9882  22.7971   C.2       1 RES1   0.0000
   317 H8K     -9.6271   2.7635  23.2822   H         1 RES1   0.0000
   318 C9K     -8.7296   3.9858  21.8664   C.2       1 RES1   0.0000
   319 H9K     -9.3985   4.5718  21.5971   H         1 RES1   0.0000
   320 C13K    -2.9282   2.8341  21.4447   C.1       1 RES1   0.0000
   321 C14K    -4.3810   2.5106  23.5331   C.1       1 RES1   0.0000
   322 C15K    -4.7530   0.9927  21.4414   C.1       1 RES1   0.0000
   323 C16K    -1.1042   1.0199  28.7902   C.1       1 RES1   0.0000
   324 C17K    -5.0233   2.3900  30.0420   C.3       1 RES1   0.0000
   325 H13K    -5.2213   1.9042  30.8472   H         1 RES1   0.0000
   326 H14K    -5.7032   3.0492  29.8894   H         1 RES1   0.0000
   327 H15K    -4.1725   2.8227  30.1318   H         1 RES1   0.0000
   328 C18K    -6.6942   0.9164  28.5038   C.3       1 RES1   0.0000
   329 H16K    -6.9758   0.3429  29.2215   H         1 RES1   0.0000
   330 H17K    -6.8497   0.4796  27.6648   H         1 RES1   0.0000
   331 H18K    -7.1915   1.7369  28.5370   H         1 RES1   0.0000
   332 N1K     -5.6133   5.6206  21.2458   N.pl3     1 RES1   0.0000
   333 N2K     -4.7259   4.8379  21.9298   N.2       1 RES1   0.0000
   334 N3K     -6.0327   4.0640  19.3703   N.pl3     1 RES1   0.0000
   335 N4K     -5.1641   3.0972  19.7827   N.2       1 RES1   0.0000
   336 N5K     -7.4653   3.9742  21.4084   N.pl3     1 RES1   0.0000
   337 N6K     -6.7601   2.9849  22.0268   N.2       1 RES1   0.0000
   338 N9K     -1.7967   1.5630  28.0296   N.1       1 RES1   0.0000
   339 N10K    -4.0222   2.2389  24.6043   N.1       1 RES1   0.0000
   340 N11K    -1.7740   2.8543  21.3337   N.1       1 RES1   0.0000
   341 N12K    -4.5653  -0.1402  21.2249   N.1       1 RES1   0.0000
   342 S1K     -4.9732   1.2672  28.6732   S.o       1 RES1   0.0000
   343 B1K     -6.7288   4.9289  20.4375   B         1 RES1  -1.0000
   344 H19K    -7.4165   5.6698  19.9714   H         1 RES1   0.0000
   345 O1K     -1.1426   1.5285  25.1274   O.3       1 RES1   0.0000
   346 H20K    -1.3362   1.6083  24.3041   H         1 RES1   0.0000
   347 H21K    -0.8614   0.7409  25.2786   H         1 RES1   0.0000
   348 O2K     -4.6520   2.1779  27.4853   O.2       1 RES1   0.0000
@<TRIPOS>BOND
     1     1    31    1
     2     2    28    1
     3     3    48    1
     4     4     5    1
     5     6     4    2
     6     7     6    1
     7     8     6    1
     8     9     8    1
     9    10    11    1
    10    12    10    2
    11    13    12    1
    12    14    12    1
    13    15    14    1
    14    16    17    1
    15    18    16    1
    16    19    18    1
    17    20    18    2
    18    21    20    1
    19    22    23    1
    20    24    22    1
    21    25    24    1
    22    26    24    2
    23    27    26    1
    24    28    50    3
    25    29     2    1
    26    30     2    1
    27    31    48    3
    28    32    33    1
    29    34    32    1
    30    35    32    1
    31    36    37    1
    32    38    36    1
    33    39    36    1
    34    40     4    1
    35    41     2    1
    36    42    10    1
    37    43     2    1
    38    44    20    1
    39    45     2    1
    40    46    26    1
    41    47     1    1
    42    49     3    1
    43    50   252    1
    44    51    30    3
    45    52    32    1
    46    53    40    1
    47    54    53    1
    48    55    46    1
    49    56     3    1
    50    57    56    1
    51    58    56    1
    52    59     3    1
    53    60    55    1
    54    61    62    1
    55    63    61    1
    56    64    63    1
    57    65    63    2
    58    66    65    1
    59    67    55    1
    60    68     1    1
    61    69    70    1
    62    71    69    1
    63    72    71    1
    64    73    71    2
    65    74    73    1
    66    75    55    1
    67    76     1    1
    68    77    97    1
    69    78   115    1
    70    79    80    1
    71    81    79    2
    72    82    81    1
    73    83    81    1
    74    84    83    1
    75    85    86    1
    76    87    85    1
    77    88    87    1
    78    89    87    2
    79    90    89    1
    80    91    92    1
    81    93    91    1
    82    94    93    1
    83    95    93    2
    84    96    95    1
    85    97   117    3
    86    98    77    1
    87    99    77    1
    88   100     1    1
    89   101   102    1
    90   103   101    1
    91   104   101    1
    92   105   106    1
    93   107   105    1
    94   108   105    1
    95   109    79    1
    96   110    77    1
    97   111    85    2
    98   112    77    1
    99   113    95    1
   100   114    77    1
   101   115   100    3
   102   116    78    1
   103   117   301    1
   104   118    99    3
   105   119   101    1
   106   120   109    1
   107   121   120    1
   108   122    78    1
   109   123   122    1
   110   124   122    1
   111   125    78    1
   112   126   146    1
   113   127   164    1
   114   128   129    1
   115   130   128    2
   116   131   130    1
   117   132   130    1
   118   133   132    1
   119   134   135    1
   120   136   134    2
   121   137   136    1
   122   138   136    1
   123   139   138    1
   124   140   141    1
   125   142   140    1
   126   143   142    1
   127   144   142    2
   128   145   144    1
   129   146   166    3
   130   147   126    1
   131   148   126    1
   132   149     1    1
   133   150   151    1
   134   152   150    1
   135   153   150    1
   136   154   155    1
   137   156   154    1
   138   157   154    1
   139   158   128    1
   140   159   126    1
   141   160   134    1
   142   161   126    1
   143   162   144    1
   144   163   126    1
   145   164   149    3
   146   165   127    1
   147   166   177    1
   148   167   148    3
   149   168   150    1
   150   169   158    1
   151   170   169    1
   152   171   127    1
   153   172   171    1
   154   173   171    1
   155   174   127    1
   156   175   205    1
   157   176   202    1
   158   177   118    1
   159   178   179    1
   160   180   178    2
   161   181   180    1
   162   182   180    1
   163   183   182    1
   164   184   185    1
   165   186   184    2
   166   187   186    1
   167   188   186    1
   168   189   188    1
   169   190   191    1
   170   192   190    1
   171   193   192    1
   172   194   192    2
   173   195   194    1
   174   196   197    1
   175   198   196    1
   176   199   198    1
   177   200   198    2
   178   201   200    1
   179   202   224    3
   180   203   176    1
   181   204   176    1
   182   205   222    3
   183   206   207    1
   184   208   206    1
   185   209   206    1
   186   210   211    1
   187   212   210    1
   188   213   210    1
   189   214   178    1
   190   215   176    1
   191   216   184    1
   192   217   176    1
   193   218   194    1
   194   219   176    1
   195   220   200    1
   196   221   175    1
   197   222   177    1
   198   223   177    1
   199   224    78    1
   200   225   127    1
   201   226   206    1
   202   227   214    1
   203   228   227    1
   204   229   220    1
   205   230   177    1
   206   231   230    1
   207   232   230    1
   208   233   177    1
   209   234   229    1
   210   235   236    1
   211   237   235    1
   212   238   237    1
   213   239   237    2
   214   240   239    1
   215   241   229    1
   216   242   175    1
   217   243   244    1
   218   245   243    1
   219   246   245    1
   220   247   245    2
   221   248   247    1
   222   249   229    1
   223   250   175    1
   224   251   271    1
   225   252   167    1
   226   253   254    1
   227   255   253    2
   228   256   255    1
   229   257   255    1
   230   258   257    1
   231   259   260    1
   232   261   259    2
   233   262   261    1
   234   263   261    1
   235   264   263    1
   236   265   266    1
   237   267   265    1
   238   268   267    1
   239   269   267    2
   240   270   269    1
   241   271   291    3
   242   272   251    1
   243   273   251    1
   244   274   175    1
   245   275   276    1
   246   277   275    1
   247   278   275    1
   248   279   280    1
   249   281   279    1
   250   282   279    1
   251   283   253    1
   252   284   251    1
   253   285   259    1
   254   286   251    1
   255   287   269    1
   256   288   251    1
   257   289   252    1
   258   290   252    1
   259   291   127    1
   260   292     3    1
   261   293   275    1
   262   294   283    1
   263   295   294    1
   264   296   252    1
   265   297   296    1
   266   298   296    1
   267   299   252    1
   268   300   320    1
   269   301    51    1
   270   302   303    1
   271   304   302    2
   272   305   304    1
   273   306   304    1
   274   307   306    1
   275   308   309    1
   276   310   308    2
   277   311   310    1
   278   312   310    1
   279   313   312    1
   280   314   315    1
   281   316   314    1
   282   317   316    1
   283   318   316    2
   284   319   318    1
   285   320   340    3
   286   321   300    1
   287   322   300    1
   288   323   175    1
   289   324   325    1
   290   326   324    1
   291   327   324    1
   292   328   329    1
   293   330   328    1
   294   331   328    1
   295   332   302    1
   296   333   300    1
   297   334   308    1
   298   335   300    1
   299   336   318    1
   300   337   300    1
   301   338   301    1
   302   339   301    1
   303   340     3    1
   304   341    78    1
   305   342   324    1
   306   343   332    1
   307   344   343    1
   308   345   301    1
   309   346   345    1
   310   347   345    1
   311   348   301    1
   312     8    41    2
   313    14    43    2
   314    16    45    2
   315    22    47    2
   316    29    49    3
   317    36    52    1
   318    40    41    1
   319    42    43    1
   320    42    53    1
   321    44    45    1
   322    44    53    1
   323    46    47    1
   324    52    59    2
   325    61    68    2
   326    65    67    1
   327    67    68    1
   328    69    76    2
   329    73    75    1
   330    75    76    1
   331    83   110    2
   332    89   112    1
   333    91   114    2
   334    98   116    3
   335   105   119    1
   336   109   110    1
   337   111   112    1
   338   111   120    1
   339   113   114    1
   340   113   120    1
   341   119   125    2
   342   132   159    2
   343   138   161    2
   344   140   163    2
   345   147   165    3
   346   154   168    1
   347   158   159    1
   348   160   161    1
   349   160   169    1
   350   162   163    1
   351   162   169    1
   352   168   174    2
   353   182   215    2
   354   188   217    2
   355   190   219    2
   356   196   221    2
   357   203   223    3
   358   204   225    3
   359   210   226    1
   360   214   215    1
   361   216   217    1
   362   216   227    1
   363   218   219    1
   364   218   227    1
   365   220   221    1
   366   226   233    2
   367   235   242    2
   368   239   241    1
   369   241   242    1
   370   243   250    2
   371   247   249    1
   372   249   250    1
   373   257   284    2
   374   263   286    2
   375   265   288    2
   376   272   290    3
   377   273   292    3
   378   274   289    3
   379   279   293    1
   380   283   284    1
   381   285   286    1
   382   285   294    1
   383   287   288    1
   384   287   294    1
   385   293   299    2
   386   306   333    2
   387   312   335    2
   388   314   337    2
   389   321   339    3
   390   322   341    3
   391   323   338    3
   392   328   342    1
   393   332   333    1
   394   334   335    1
   395   334   343    1
   396   336   337    1
   397   336   343    1
   398   342   348    2
@<TRIPOS>SUBSTRUCTURE
     1 RES1        1 GROUP             0 ****  ****    0  
@<TRIPOS>CRYSIN
   23.5670   23.5670   23.7670   90.0000   90.0000  120.0000   233     1
