@<TRIPOS>MOLECULE
DOXVEU
   348   398     1     0     0
SMALL
USER_CHARGES
****
Generated from the CSD

@<TRIPOS>ATOM
     1 Fe1      0.0000   0.0000  17.5825   Fe        1 RES1   1.0000
     2 Fe2      0.0244   5.5608  25.7585   Fe        1 RES1   1.0000
     3 Fe3      0.1356   3.5865  21.1021   Fe        1 RES1   0.0000
     4 C1       3.2606   8.1014  26.0505   C.2       1 RES1   0.0000
     5 H1       3.6477   8.8657  26.4138   H         1 RES1   0.0000
     6 C2       3.8840   7.1940  25.2470   C.2       1 RES1   0.0000
     7 H2       4.7675   7.2105  24.9553   H         1 RES1   0.0000
     8 C3       2.9185   6.2386  24.9567   C.2       1 RES1   0.0000
     9 H3       3.0562   5.4913  24.4193   H         1 RES1   0.0000
    10 C4       0.3696   7.3556  29.4391   C.2       1 RES1   0.0000
    11 H4       0.5867   8.0989  29.9544   H         1 RES1   0.0000
    12 C5      -0.0725   6.1532  29.9167   C.2       1 RES1   0.0000
    13 H5      -0.2154   5.9180  30.8058   H         1 RES1   0.0000
    14 C6      -0.2636   5.3609  28.7948   C.2       1 RES1   0.0000
    15 H6      -0.5701   4.4834  28.8090   H         1 RES1   0.0000
    16 C7      -1.8274   7.7623  24.6513   C.2       1 RES1   0.0000
    17 H7      -2.3516   7.2064  24.1229   H         1 RES1   0.0000
    18 C8      -1.9488   9.1417  24.7051   C.2       1 RES1   0.0000
    19 H8      -2.5409   9.6779  24.2272   H         1 RES1   0.0000
    20 C9      -1.0118   9.5439  25.6117   C.2       1 RES1   0.0000
    21 H9      -0.8521  10.4220  25.8754   H         1 RES1   0.0000
    22 C10     -1.9693   2.1320  16.5808   C.2       1 RES1   0.0000
    23 H10     -2.2255   2.4282  17.4234   H         1 RES1   0.0000
    24 C11     -2.4283   2.6636  15.3856   C.2       1 RES1   0.0000
    25 H11     -3.0312   3.3620  15.2677   H         1 RES1   0.0000
    26 C12     -1.8019   1.9354  14.4211   C.2       1 RES1   0.0000
    27 H12     -1.9030   2.0551  13.5057   H         1 RES1   0.0000
    28 C13      0.9721   3.9705  26.0450   C.1       1 RES1   0.0000
    29 C14     -0.0500   5.0581  23.9531   C.1       1 RES1   0.0000
    30 C15     -1.5543   4.5976  26.0452   C.1       1 RES1   0.0000
    31 C16      0.3180   1.4710  18.7123   C.1       1 RES1   0.0000
    32 C17     -0.4201   5.5965  17.4248   C.3       1 RES1   0.0000
    33 H13     -0.9318   5.5346  16.6147   H         1 RES1   0.0000
    34 H14     -0.1821   6.5117  17.5847   H         1 RES1   0.0000
    35 H15      0.3773   5.0688  17.3404   H         1 RES1   0.0000
    36 C18     -2.5218   6.3179  18.9364   C.3       1 RES1   0.0000
    37 H16     -3.1454   6.2932  18.2084   H         1 RES1   0.0000
    38 H17     -2.9931   6.2314  19.7665   H         1 RES1   0.0000
    39 H18     -2.0458   7.1507  18.9222   H         1 RES1   0.0000
    40 N1       1.9965   7.7031  26.2250   N.pl3     1 RES1   0.0000
    41 N2       1.7755   6.5391  25.5496   N.2       1 RES1   0.0000
    42 N3       0.4364   7.2820  28.0978   N.pl3     1 RES1   0.0000
    43 N4       0.0530   6.0353  27.6956   N.2       1 RES1   0.0000
    44 N5      -0.3607   8.4574  26.0590   N.pl3     1 RES1   0.0000
    45 N6      -0.8619   7.3428  25.4557   N.2       1 RES1   0.0000
    46 N7      -1.0078   1.0096  15.0073   N.pl3     1 RES1   0.0000
    47 N8      -1.1126   1.1409  16.3593   N.2       1 RES1   0.0000
    48 N9       0.4362   2.3497  19.4620   N.1       1 RES1   0.0000
    49 N10     -0.1025   4.6303  22.8693   N.1       1 RES1   0.0000
    50 N11      1.5890   2.9992  26.1598   N.1       1 RES1   0.0000
    51 N12     -2.4357   3.8736  26.2613   N.1       1 RES1   0.0000
    52 S1      -1.3819   4.9950  18.7756   S.o       1 RES1   0.0000
    53 B1       0.8271   8.3137  27.0216   B         1 RES1  -1.0000
    54 H19      1.1104   9.2739  27.4572   H         1 RES1   0.0000
    55 B2       0.0000   0.0000  14.4519   B         1 RES1  -1.0000
    56 O1       0.7480   1.7742  22.3640   O.3       1 RES1   0.0000
    57 H20      0.7200   1.9850  23.1862   H         1 RES1   0.0000
    58 H21      0.2095   1.1337  22.2162   H         1 RES1   0.0000
    59 O2      -0.4613   5.1496  19.9782   O.2       1 RES1   0.0000
    60 H22      0.0000   0.0000  13.4179   H         1 RES1   0.0000
    61 C10A    -0.8618  -2.7714  16.5808   C.2       1 RES1   0.0000
    62 H10A    -0.9902  -3.1414  17.4234   H         1 RES1   0.0000
    63 C11A    -1.0926  -3.4348  15.3856   C.2       1 RES1   0.0000
    64 H11A    -1.3960  -4.3061  15.2677   H         1 RES1   0.0000
    65 C12A    -0.7751  -2.5282  14.4211   C.2       1 RES1   0.0000
    66 H12A    -0.8283  -2.6756  13.5057   H         1 RES1   0.0000
    67 N7A     -0.3705  -1.3776  15.0073   N.pl3     1 RES1   0.0000
    68 N8A     -0.4318  -1.5340  16.3593   N.2       1 RES1   0.0000
    69 C10B     2.8310   0.6394  16.5808   C.2       1 RES1   0.0000
    70 H10B     3.2157   0.7132  17.4234   H         1 RES1   0.0000
    71 C11B     3.5209   0.7711  15.3856   C.2       1 RES1   0.0000
    72 H11B     4.4272   0.9441  15.2677   H         1 RES1   0.0000
    73 C12B     2.5770   0.5928  14.4211   C.2       1 RES1   0.0000
    74 H12B     2.7313   0.6205  13.5057   H         1 RES1   0.0000
    75 N7B      1.3783   0.3679  15.0073   N.pl3     1 RES1   0.0000
    76 N8B      1.5444   0.3931  16.3593   N.2       1 RES1   0.0000
    77 Fe2A    -4.8280  -2.7593  25.7585   Fe        1 RES1   1.0000
    78 Fe3A    -3.1738  -1.6758  21.1021   Fe        1 RES1   0.0000
    79 C1A     -8.6463  -1.2269  26.0505   C.2       1 RES1   0.0000
    80 H1A     -9.5018  -1.2739  26.4138   H         1 RES1   0.0000
    81 C2A     -8.1722  -0.2333  25.2470   C.2       1 RES1   0.0000
    82 H2A     -8.6282   0.5236  24.9553   H         1 RES1   0.0000
    83 C3A     -6.8620  -0.5918  24.9567   C.2       1 RES1   0.0000
    84 H3A     -6.2837  -0.0989  24.4193   H         1 RES1   0.0000
    85 C4A     -6.5550  -3.3577  29.4391   C.2       1 RES1   0.0000
    86 H4A     -7.3072  -3.5413  29.9544   H         1 RES1   0.0000
    87 C5A     -5.2926  -3.1394  29.9167   C.2       1 RES1   0.0000
    88 H5A     -5.0175  -3.1456  30.8058   H         1 RES1   0.0000
    89 C6A     -4.5108  -2.9087  28.7948   C.2       1 RES1   0.0000
    90 H6A     -3.5977  -2.7354  28.8090   H         1 RES1   0.0000
    91 C7A     -5.8086  -5.4637  24.6513   C.2       1 RES1   0.0000
    92 H7A     -5.0651  -5.6398  24.1229   H         1 RES1   0.0000
    93 C8A     -6.9426  -6.2586  24.7051   C.2       1 RES1   0.0000
    94 H8A     -7.1108  -7.0394  24.2272   H         1 RES1   0.0000
    95 C9A     -7.7593  -5.6482  25.6117   C.2       1 RES1   0.0000
    96 H9A     -8.5997  -5.9490  25.8754   H         1 RES1   0.0000
    97 C13A    -3.9246  -1.1434  26.0450   C.1       1 RES1   0.0000
    98 C14A    -4.3554  -2.5723  23.9531   C.1       1 RES1   0.0000
    99 C15A    -3.2045  -3.6448  26.0452   C.1       1 RES1   0.0000
   100 C16A    -1.4329  -0.4601  18.7123   C.1       1 RES1   0.0000
   101 C17A    -4.6366  -3.1621  17.4248   C.3       1 RES1   0.0000
   102 H13A    -4.3272  -3.5743  16.6147   H         1 RES1   0.0000
   103 H14A    -5.5482  -3.4135  17.5847   H         1 RES1   0.0000
   104 H15A    -4.5783  -2.2077  17.3404   H         1 RES1   0.0000
   105 C18A    -4.2106  -5.3429  18.9364   C.3       1 RES1   0.0000
   106 H16A    -3.8773  -5.8706  18.2084   H         1 RES1   0.0000
   107 H17A    -3.9000  -5.7078  19.7665   H         1 RES1   0.0000
   108 H18A    -5.1698  -5.3470  18.9222   H         1 RES1   0.0000
   109 N1A     -7.6694  -2.1225  26.2250   N.pl3     1 RES1   0.0000
   110 N2A     -6.5508  -1.7319  25.5496   N.2       1 RES1   0.0000
   111 N3A     -6.5246  -3.2631  28.0978   N.pl3     1 RES1   0.0000
   112 N4A     -5.2532  -2.9718  27.6956   N.2       1 RES1   0.0000
   113 N5A     -7.1439  -4.5411  26.0590   N.pl3     1 RES1   0.0000
   114 N6A     -5.9281  -4.4178  25.4557   N.2       1 RES1   0.0000
   115 N9A     -2.2530  -0.7971  19.4620   N.1       1 RES1   0.0000
   116 N10A    -3.9587  -2.4039  22.8693   N.1       1 RES1   0.0000
   117 N11A    -3.3919  -0.1235  26.1598   N.1       1 RES1   0.0000
   118 N12A    -2.1368  -4.0462  26.2613   N.1       1 RES1   0.0000
   119 S1A     -3.6348  -3.6943  18.7756   S.o       1 RES1   0.0000
   120 B1A     -7.6134  -3.4405  27.0216   B         1 RES1  -1.0000
   121 H19A    -8.5866  -3.6753  27.4572   H         1 RES1   0.0000
   122 O1A     -1.9105  -0.2393  22.3640   O.3       1 RES1   0.0000
   123 H20A    -2.0791  -0.3690  23.1862   H         1 RES1   0.0000
   124 H21A    -1.0866  -0.3855  22.2162   H         1 RES1   0.0000
   125 O2A     -4.2290  -2.9743  19.9782   O.2       1 RES1   0.0000
   126 Fe2B     4.8036  -2.8015  25.7585   Fe        1 RES1   1.0000
   127 Fe3B     3.0382  -1.9106  21.1021   Fe        1 RES1   0.0000
   128 C1B      5.3857  -6.8745  26.0505   C.2       1 RES1   0.0000
   129 H1B      5.8541  -7.5918  26.4138   H         1 RES1   0.0000
   130 C2B      4.2882  -6.9606  25.2470   C.2       1 RES1   0.0000
   131 H2B      3.8607  -7.7340  24.9553   H         1 RES1   0.0000
   132 C3B      3.9435  -5.6468  24.9567   C.2       1 RES1   0.0000
   133 H3B      3.2276  -5.3924  24.4193   H         1 RES1   0.0000
   134 C4B      6.1853  -3.9979  29.4391   C.2       1 RES1   0.0000
   135 H4B      6.7205  -4.5576  29.9544   H         1 RES1   0.0000
   136 C5B      5.3651  -3.0138  29.9167   C.2       1 RES1   0.0000
   137 H5B      5.2329  -2.7725  30.8058   H         1 RES1   0.0000
   138 C6B      4.7744  -2.4521  28.7948   C.2       1 RES1   0.0000
   139 H6B      4.1677  -1.7480  28.8090   H         1 RES1   0.0000
   140 C7B      7.6360  -2.2986  24.6513   C.2       1 RES1   0.0000
   141 H7B      7.4167  -1.5666  24.1229   H         1 RES1   0.0000
   142 C8B      8.8914  -2.8832  24.7051   C.2       1 RES1   0.0000
   143 H8B      9.6517  -2.6385  24.2272   H         1 RES1   0.0000
   144 C9B      8.7712  -3.8957  25.6117   C.2       1 RES1   0.0000
   145 H9B      9.4518  -4.4731  25.8754   H         1 RES1   0.0000
   146 C13B     2.9525  -2.8271  26.0450   C.1       1 RES1   0.0000
   147 C14B     4.4054  -2.4857  23.9531   C.1       1 RES1   0.0000
   148 C15B     4.7587  -0.9527  26.0452   C.1       1 RES1   0.0000
   149 C16B     1.1149  -1.0109  18.7123   C.1       1 RES1   0.0000
   150 C17B     5.0567  -2.4344  17.4248   C.3       1 RES1   0.0000
   151 H13B     5.2591  -1.9603  16.6147   H         1 RES1   0.0000
   152 H14B     5.7303  -3.0982  17.5847   H         1 RES1   0.0000
   153 H15B     4.2011  -2.8611  17.3404   H         1 RES1   0.0000
   154 C18B     6.7324  -0.9750  18.9364   C.3       1 RES1   0.0000
   155 H16B     7.0228  -0.4226  18.2084   H         1 RES1   0.0000
   156 H17B     6.8931  -0.5236  19.7665   H         1 RES1   0.0000
   157 H18B     7.2156  -1.8036  18.9222   H         1 RES1   0.0000
   158 N1B      5.6728  -5.5806  26.2250   N.pl3     1 RES1   0.0000
   159 N2B      4.7753  -4.8072  25.5496   N.2       1 RES1   0.0000
   160 N3B      6.0882  -4.0189  28.0978   N.pl3     1 RES1   0.0000
   161 N4B      5.2003  -3.0635  27.6956   N.2       1 RES1   0.0000
   162 N5B      7.5047  -3.9163  26.0590   N.pl3     1 RES1   0.0000
   163 N6B      6.7900  -2.9250  25.4557   N.2       1 RES1   0.0000
   164 N9B      1.8168  -1.5526  19.4620   N.1       1 RES1   0.0000
   165 N10B     4.0612  -2.2264  22.8693   N.1       1 RES1   0.0000
   166 N11B     1.8029  -2.8757  26.1598   N.1       1 RES1   0.0000
   167 N12B     4.5725   0.1725  26.2613   N.1       1 RES1   0.0000
   168 S1B      5.0167  -1.3007  18.7756   S.o       1 RES1   0.0000
   169 B1B      6.7863  -4.8732  27.0216   B         1 RES1  -1.0000
   170 H19B     7.4762  -5.5985  27.4572   H         1 RES1   0.0000
   171 O1B      1.1625  -1.5349  22.3640   O.3       1 RES1   0.0000
   172 H20B     1.3591  -1.6161  23.1862   H         1 RES1   0.0000
   173 H21B     0.8771  -0.7483  22.2162   H         1 RES1   0.0000
   174 O2B      4.6903  -2.1753  19.9782   O.2       1 RES1   0.0000
   175 Fe1I     0.0000   0.0000  29.8475   Fe        1 RES1   1.0000
   176 Fe2I    -0.0244  -5.5608  21.6715   Fe        1 RES1   1.0000
   177 Fe3I    -0.1356  -3.5865  26.3279   Fe        1 RES1   0.0000
   178 C1I     -3.2606  -8.1014  21.3795   C.2       1 RES1   0.0000
   179 H1I     -3.6477  -8.8657  21.0162   H         1 RES1   0.0000
   180 C2I     -3.8840  -7.1940  22.1830   C.2       1 RES1   0.0000
   181 H2I     -4.7675  -7.2105  22.4747   H         1 RES1   0.0000
   182 C3I     -2.9185  -6.2386  22.4733   C.2       1 RES1   0.0000
   183 H3I     -3.0562  -5.4913  23.0107   H         1 RES1   0.0000
   184 C4I     -0.3696  -7.3556  17.9909   C.2       1 RES1   0.0000
   185 H4I     -0.5867  -8.0989  17.4756   H         1 RES1   0.0000
   186 C5I      0.0725  -6.1532  17.5133   C.2       1 RES1   0.0000
   187 H5I      0.2154  -5.9180  16.6242   H         1 RES1   0.0000
   188 C6I      0.2636  -5.3609  18.6352   C.2       1 RES1   0.0000
   189 H6I      0.5701  -4.4834  18.6210   H         1 RES1   0.0000
   190 C7I      1.8274  -7.7623  22.7787   C.2       1 RES1   0.0000
   191 H7I      2.3516  -7.2064  23.3071   H         1 RES1   0.0000
   192 C8I      1.9488  -9.1417  22.7249   C.2       1 RES1   0.0000
   193 H8I      2.5409  -9.6779  23.2028   H         1 RES1   0.0000
   194 C9I      1.0118  -9.5439  21.8183   C.2       1 RES1   0.0000
   195 H9I      0.8521 -10.4220  21.5546   H         1 RES1   0.0000
   196 C10I     1.9693  -2.1320  30.8492   C.2       1 RES1   0.0000
   197 H10I     2.2255  -2.4282  30.0066   H         1 RES1   0.0000
   198 C11I     2.4283  -2.6636  32.0444   C.2       1 RES1   0.0000
   199 H11I     3.0312  -3.3620  32.1623   H         1 RES1   0.0000
   200 C12I     1.8019  -1.9354  33.0089   C.2       1 RES1   0.0000
   201 H12I     1.9030  -2.0551  33.9243   H         1 RES1   0.0000
   202 C13I    -0.9721  -3.9705  21.3850   C.1       1 RES1   0.0000
   203 C14I     0.0500  -5.0581  23.4769   C.1       1 RES1   0.0000
   204 C15I     1.5543  -4.5976  21.3848   C.1       1 RES1   0.0000
   205 C16I    -0.3180  -1.4710  28.7177   C.1       1 RES1   0.0000
   206 C17I     0.4201  -5.5965  30.0052   C.3       1 RES1   0.0000
   207 H13I     0.9318  -5.5346  30.8153   H         1 RES1   0.0000
   208 H14I     0.1821  -6.5117  29.8453   H         1 RES1   0.0000
   209 H15I    -0.3773  -5.0688  30.0896   H         1 RES1   0.0000
   210 C18I     2.5218  -6.3179  28.4936   C.3       1 RES1   0.0000
   211 H16I     3.1454  -6.2932  29.2216   H         1 RES1   0.0000
   212 H17I     2.9931  -6.2314  27.6635   H         1 RES1   0.0000
   213 H18I     2.0458  -7.1507  28.5078   H         1 RES1   0.0000
   214 N1I     -1.9965  -7.7031  21.2050   N.pl3     1 RES1   0.0000
   215 N2I     -1.7755  -6.5391  21.8804   N.2       1 RES1   0.0000
   216 N3I     -0.4364  -7.2820  19.3322   N.pl3     1 RES1   0.0000
   217 N4I     -0.0530  -6.0353  19.7344   N.2       1 RES1   0.0000
   218 N5I      0.3607  -8.4574  21.3710   N.pl3     1 RES1   0.0000
   219 N6I      0.8619  -7.3428  21.9743   N.2       1 RES1   0.0000
   220 N7I      1.0078  -1.0096  32.4227   N.pl3     1 RES1   0.0000
   221 N8I      1.1126  -1.1409  31.0707   N.2       1 RES1   0.0000
   222 N9I     -0.4362  -2.3497  27.9680   N.1       1 RES1   0.0000
   223 N10I     0.1025  -4.6303  24.5607   N.1       1 RES1   0.0000
   224 N11I    -1.5890  -2.9992  21.2702   N.1       1 RES1   0.0000
   225 N12I     2.4357  -3.8736  21.1687   N.1       1 RES1   0.0000
   226 S1I      1.3819  -4.9950  28.6544   S.o       1 RES1   0.0000
   227 B1I     -0.8271  -8.3137  20.4084   B         1 RES1  -1.0000
   228 H19I    -1.1104  -9.2739  19.9728   H         1 RES1   0.0000
   229 B2I      0.0000   0.0000  32.9781   B         1 RES1  -1.0000
   230 O1I     -0.7480  -1.7742  25.0660   O.3       1 RES1   0.0000
   231 H20I    -0.7200  -1.9850  24.2438   H         1 RES1   0.0000
   232 H21I    -0.2095  -1.1337  25.2138   H         1 RES1   0.0000
   233 O2I      0.4613  -5.1496  27.4518   O.2       1 RES1   0.0000
   234 H22I     0.0000   0.0000  34.0121   H         1 RES1   0.0000
   235 C10J     0.8618   2.7714  30.8492   C.2       1 RES1   0.0000
   236 H10J     0.9902   3.1414  30.0066   H         1 RES1   0.0000
   237 C11J     1.0926   3.4348  32.0444   C.2       1 RES1   0.0000
   238 H11J     1.3960   4.3061  32.1623   H         1 RES1   0.0000
   239 C12J     0.7751   2.5282  33.0089   C.2       1 RES1   0.0000
   240 H12J     0.8283   2.6756  33.9243   H         1 RES1   0.0000
   241 N7J      0.3705   1.3776  32.4227   N.pl3     1 RES1   0.0000
   242 N8J      0.4318   1.5340  31.0707   N.2       1 RES1   0.0000
   243 C10K    -2.8310  -0.6394  30.8492   C.2       1 RES1   0.0000
   244 H10K    -3.2157  -0.7132  30.0066   H         1 RES1   0.0000
   245 C11K    -3.5209  -0.7711  32.0444   C.2       1 RES1   0.0000
   246 H11K    -4.4272  -0.9441  32.1623   H         1 RES1   0.0000
   247 C12K    -2.5770  -0.5928  33.0089   C.2       1 RES1   0.0000
   248 H12K    -2.7313  -0.6205  33.9243   H         1 RES1   0.0000
   249 N7K     -1.3783  -0.3679  32.4227   N.pl3     1 RES1   0.0000
   250 N8K     -1.5444  -0.3931  31.0707   N.2       1 RES1   0.0000
   251 Fe2J     4.8280   2.7593  21.6715   Fe        1 RES1   1.0000
   252 Fe3J     3.1738   1.6758  26.3279   Fe        1 RES1   0.0000
   253 C1J      8.6463   1.2269  21.3795   C.2       1 RES1   0.0000
   254 H1J      9.5018   1.2739  21.0162   H         1 RES1   0.0000
   255 C2J      8.1722   0.2333  22.1830   C.2       1 RES1   0.0000
   256 H2J      8.6282  -0.5236  22.4747   H         1 RES1   0.0000
   257 C3J      6.8620   0.5918  22.4733   C.2       1 RES1   0.0000
   258 H3J      6.2837   0.0989  23.0107   H         1 RES1   0.0000
   259 C4J      6.5550   3.3577  17.9909   C.2       1 RES1   0.0000
   260 H4J      7.3072   3.5413  17.4756   H         1 RES1   0.0000
   261 C5J      5.2926   3.1394  17.5133   C.2       1 RES1   0.0000
   262 H5J      5.0175   3.1456  16.6242   H         1 RES1   0.0000
   263 C6J      4.5108   2.9087  18.6352   C.2       1 RES1   0.0000
   264 H6J      3.5977   2.7354  18.6210   H         1 RES1   0.0000
   265 C7J      5.8086   5.4637  22.7787   C.2       1 RES1   0.0000
   266 H7J      5.0651   5.6398  23.3071   H         1 RES1   0.0000
   267 C8J      6.9426   6.2586  22.7249   C.2       1 RES1   0.0000
   268 H8J      7.1108   7.0394  23.2028   H         1 RES1   0.0000
   269 C9J      7.7593   5.6482  21.8183   C.2       1 RES1   0.0000
   270 H9J      8.5997   5.9490  21.5546   H         1 RES1   0.0000
   271 C13J     3.9246   1.1434  21.3850   C.1       1 RES1   0.0000
   272 C14J     4.3554   2.5723  23.4769   C.1       1 RES1   0.0000
   273 C15J     3.2045   3.6448  21.3848   C.1       1 RES1   0.0000
   274 C16J     1.4329   0.4601  28.7177   C.1       1 RES1   0.0000
   275 C17J     4.6366   3.1621  30.0052   C.3       1 RES1   0.0000
   276 H13J     4.3272   3.5743  30.8153   H         1 RES1   0.0000
   277 H14J     5.5482   3.4135  29.8453   H         1 RES1   0.0000
   278 H15J     4.5783   2.2077  30.0896   H         1 RES1   0.0000
   279 C18J     4.2106   5.3429  28.4936   C.3       1 RES1   0.0000
   280 H16J     3.8773   5.8706  29.2216   H         1 RES1   0.0000
   281 H17J     3.9000   5.7078  27.6635   H         1 RES1   0.0000
   282 H18J     5.1698   5.3470  28.5078   H         1 RES1   0.0000
   283 N1J      7.6694   2.1225  21.2050   N.pl3     1 RES1   0.0000
   284 N2J      6.5508   1.7319  21.8804   N.2       1 RES1   0.0000
   285 N3J      6.5246   3.2631  19.3322   N.pl3     1 RES1   0.0000
   286 N4J      5.2532   2.9718  19.7344   N.2       1 RES1   0.0000
   287 N5J      7.1439   4.5411  21.3710   N.pl3     1 RES1   0.0000
   288 N6J      5.9281   4.4178  21.9743   N.2       1 RES1   0.0000
   289 N9J      2.2530   0.7971  27.9680   N.1       1 RES1   0.0000
   290 N10J     3.9587   2.4039  24.5607   N.1       1 RES1   0.0000
   291 N11J     3.3919   0.1235  21.2702   N.1       1 RES1   0.0000
   292 N12J     2.1368   4.0462  21.1687   N.1       1 RES1   0.0000
   293 S1J      3.6348   3.6943  28.6544   S.o       1 RES1   0.0000
   294 B1J      7.6134   3.4405  20.4084   B         1 RES1  -1.0000
   295 H19J     8.5866   3.6753  19.9728   H         1 RES1   0.0000
   296 O1J      1.9105   0.2393  25.0660   O.3       1 RES1   0.0000
   297 H20J     2.0791   0.3690  24.2438   H         1 RES1   0.0000
   298 H21J     1.0866   0.3855  25.2138   H         1 RES1   0.0000
   299 O2J      4.2290   2.9743  27.4518   O.2       1 RES1   0.0000
   300 Fe2K    -4.8036   2.8015  21.6715   Fe        1 RES1   1.0000
   301 Fe3K    -3.0382   1.9106  26.3279   Fe        1 RES1   0.0000
   302 C1K     -5.3857   6.8745  21.3795   C.2       1 RES1   0.0000
   303 H1K     -5.8541   7.5918  21.0162   H         1 RES1   0.0000
   304 C2K     -4.2882   6.9606  22.1830   C.2       1 RES1   0.0000
   305 H2K     -3.8607   7.7340  22.4747   H         1 RES1   0.0000
   306 C3K     -3.9435   5.6468  22.4733   C.2       1 RES1   0.0000
   307 H3K     -3.2276   5.3924  23.0107   H         1 RES1   0.0000
   308 C4K     -6.1853   3.9979  17.9909   C.2       1 RES1   0.0000
   309 H4K     -6.7205   4.5576  17.4756   H         1 RES1   0.0000
   310 C5K     -5.3651   3.0138  17.5133   C.2       1 RES1   0.0000
   311 H5K     -5.2329   2.7725  16.6242   H         1 RES1   0.0000
   312 C6K     -4.7744   2.4521  18.6352   C.2       1 RES1   0.0000
   313 H6K     -4.1677   1.7480  18.6210   H         1 RES1   0.0000
   314 C7K     -7.6360   2.2986  22.7787   C.2       1 RES1   0.0000
   315 H7K     -7.4167   1.5666  23.3071   H         1 RES1   0.0000
   316 C8K     -8.8914   2.8832  22.7249   C.2       1 RES1   0.0000
   317 H8K     -9.6517   2.6385  23.2028   H         1 RES1   0.0000
   318 C9K     -8.7712   3.8957  21.8183   C.2       1 RES1   0.0000
   319 H9K     -9.4518   4.4731  21.5546   H         1 RES1   0.0000
   320 C13K    -2.9525   2.8271  21.3850   C.1       1 RES1   0.0000
   321 C14K    -4.4054   2.4857  23.4769   C.1       1 RES1   0.0000
   322 C15K    -4.7587   0.9527  21.3848   C.1       1 RES1   0.0000
   323 C16K    -1.1149   1.0109  28.7177   C.1       1 RES1   0.0000
   324 C17K    -5.0567   2.4344  30.0052   C.3       1 RES1   0.0000
   325 H13K    -5.2591   1.9603  30.8153   H         1 RES1   0.0000
   326 H14K    -5.7303   3.0982  29.8453   H         1 RES1   0.0000
   327 H15K    -4.2011   2.8611  30.0896   H         1 RES1   0.0000
   328 C18K    -6.7324   0.9750  28.4936   C.3       1 RES1   0.0000
   329 H16K    -7.0228   0.4226  29.2216   H         1 RES1   0.0000
   330 H17K    -6.8931   0.5236  27.6635   H         1 RES1   0.0000
   331 H18K    -7.2156   1.8036  28.5078   H         1 RES1   0.0000
   332 N1K     -5.6728   5.5806  21.2050   N.pl3     1 RES1   0.0000
   333 N2K     -4.7753   4.8072  21.8804   N.2       1 RES1   0.0000
   334 N3K     -6.0882   4.0189  19.3322   N.pl3     1 RES1   0.0000
   335 N4K     -5.2003   3.0635  19.7344   N.2       1 RES1   0.0000
   336 N5K     -7.5047   3.9163  21.3710   N.pl3     1 RES1   0.0000
   337 N6K     -6.7900   2.9250  21.9743   N.2       1 RES1   0.0000
   338 N9K     -1.8168   1.5526  27.9680   N.1       1 RES1   0.0000
   339 N10K    -4.0612   2.2264  24.5607   N.1       1 RES1   0.0000
   340 N11K    -1.8029   2.8757  21.2702   N.1       1 RES1   0.0000
   341 N12K    -4.5725  -0.1725  21.1687   N.1       1 RES1   0.0000
   342 S1K     -5.0167   1.3007  28.6544   S.o       1 RES1   0.0000
   343 B1K     -6.7863   4.8732  20.4084   B         1 RES1  -1.0000
   344 H19K    -7.4762   5.5985  19.9728   H         1 RES1   0.0000
   345 O1K     -1.1625   1.5349  25.0660   O.3       1 RES1   0.0000
   346 H20K    -1.3591   1.6161  24.2438   H         1 RES1   0.0000
   347 H21K    -0.8771   0.7483  25.2138   H         1 RES1   0.0000
   348 O2K     -4.6903   2.1753  27.4518   O.2       1 RES1   0.0000
@<TRIPOS>BOND
     1     1    31    1
     2     2    28    1
     3     3    48    1
     4     4     5    1
     5     6     4    2
     6     7     6    1
     7     8     6    1
     8     9     8    1
     9    10    11    1
    10    12    10    2
    11    13    12    1
    12    14    12    1
    13    15    14    1
    14    16    17    1
    15    18    16    1
    16    19    18    1
    17    20    18    2
    18    21    20    1
    19    22    23    1
    20    24    22    1
    21    25    24    1
    22    26    24    2
    23    27    26    1
    24    28    50    3
    25    29     2    1
    26    30     2    1
    27    31    48    3
    28    32    33    1
    29    34    32    1
    30    35    32    1
    31    36    37    1
    32    38    36    1
    33    39    36    1
    34    40     4    1
    35    41     2    1
    36    42    10    1
    37    43     2    1
    38    44    20    1
    39    45     2    1
    40    46    26    1
    41    47     1    1
    42    49     3    1
    43    50   252    1
    44    51    30    3
    45    52    32    1
    46    53    40    1
    47    54    53    1
    48    55    46    1
    49    56     3    1
    50    57    56    1
    51    58    56    1
    52    59     3    1
    53    60    55    1
    54    61    62    1
    55    63    61    1
    56    64    63    1
    57    65    63    2
    58    66    65    1
    59    67    55    1
    60    68     1    1
    61    69    70    1
    62    71    69    1
    63    72    71    1
    64    73    71    2
    65    74    73    1
    66    75    55    1
    67    76     1    1
    68    77    97    1
    69    78   115    1
    70    79    80    1
    71    81    79    2
    72    82    81    1
    73    83    81    1
    74    84    83    1
    75    85    86    1
    76    87    85    1
    77    88    87    1
    78    89    87    2
    79    90    89    1
    80    91    92    1
    81    93    91    1
    82    94    93    1
    83    95    93    2
    84    96    95    1
    85    97   117    3
    86    98    77    1
    87    99    77    1
    88   100     1    1
    89   101   102    1
    90   103   101    1
    91   104   101    1
    92   105   106    1
    93   107   105    1
    94   108   105    1
    95   109    79    1
    96   110    77    1
    97   111    85    2
    98   112    77    1
    99   113    95    1
   100   114    77    1
   101   115   100    3
   102   116    78    1
   103   117   301    1
   104   118    99    3
   105   119   101    1
   106   120   109    1
   107   121   120    1
   108   122    78    1
   109   123   122    1
   110   124   122    1
   111   125    78    1
   112   126   146    1
   113   127   164    1
   114   128   129    1
   115   130   128    2
   116   131   130    1
   117   132   130    1
   118   133   132    1
   119   134   135    1
   120   136   134    2
   121   137   136    1
   122   138   136    1
   123   139   138    1
   124   140   141    1
   125   142   140    1
   126   143   142    1
   127   144   142    2
   128   145   144    1
   129   146   166    3
   130   147   126    1
   131   148   126    1
   132   149     1    1
   133   150   151    1
   134   152   150    1
   135   153   150    1
   136   154   155    1
   137   156   154    1
   138   157   154    1
   139   158   128    1
   140   159   126    1
   141   160   134    1
   142   161   126    1
   143   162   144    1
   144   163   126    1
   145   164   149    3
   146   165   127    1
   147   166   177    1
   148   167   148    3
   149   168   150    1
   150   169   158    1
   151   170   169    1
   152   171   127    1
   153   172   171    1
   154   173   171    1
   155   174   127    1
   156   175   205    1
   157   176   202    1
   158   177   118    1
   159   178   179    1
   160   180   178    2
   161   181   180    1
   162   182   180    1
   163   183   182    1
   164   184   185    1
   165   186   184    2
   166   187   186    1
   167   188   186    1
   168   189   188    1
   169   190   191    1
   170   192   190    1
   171   193   192    1
   172   194   192    2
   173   195   194    1
   174   196   197    1
   175   198   196    1
   176   199   198    1
   177   200   198    2
   178   201   200    1
   179   202   224    3
   180   203   176    1
   181   204   176    1
   182   205   222    3
   183   206   207    1
   184   208   206    1
   185   209   206    1
   186   210   211    1
   187   212   210    1
   188   213   210    1
   189   214   178    1
   190   215   176    1
   191   216   184    1
   192   217   176    1
   193   218   194    1
   194   219   176    1
   195   220   200    1
   196   221   175    1
   197   222   177    1
   198   223   177    1
   199   224    78    1
   200   225   127    1
   201   226   206    1
   202   227   214    1
   203   228   227    1
   204   229   220    1
   205   230   177    1
   206   231   230    1
   207   232   230    1
   208   233   177    1
   209   234   229    1
   210   235   236    1
   211   237   235    1
   212   238   237    1
   213   239   237    2
   214   240   239    1
   215   241   229    1
   216   242   175    1
   217   243   244    1
   218   245   243    1
   219   246   245    1
   220   247   245    2
   221   248   247    1
   222   249   229    1
   223   250   175    1
   224   251   271    1
   225   252   167    1
   226   253   254    1
   227   255   253    2
   228   256   255    1
   229   257   255    1
   230   258   257    1
   231   259   260    1
   232   261   259    2
   233   262   261    1
   234   263   261    1
   235   264   263    1
   236   265   266    1
   237   267   265    1
   238   268   267    1
   239   269   267    2
   240   270   269    1
   241   271   291    3
   242   272   251    1
   243   273   251    1
   244   274   175    1
   245   275   276    1
   246   277   275    1
   247   278   275    1
   248   279   280    1
   249   281   279    1
   250   282   279    1
   251   283   253    1
   252   284   251    1
   253   285   259    1
   254   286   251    1
   255   287   269    1
   256   288   251    1
   257   289   252    1
   258   290   252    1
   259   291   127    1
   260   292     3    1
   261   293   275    1
   262   294   283    1
   263   295   294    1
   264   296   252    1
   265   297   296    1
   266   298   296    1
   267   299   252    1
   268   300   320    1
   269   301    51    1
   270   302   303    1
   271   304   302    2
   272   305   304    1
   273   306   304    1
   274   307   306    1
   275   308   309    1
   276   310   308    2
   277   311   310    1
   278   312   310    1
   279   313   312    1
   280   314   315    1
   281   316   314    1
   282   317   316    1
   283   318   316    2
   284   319   318    1
   285   320   340    3
   286   321   300    1
   287   322   300    1
   288   323   175    1
   289   324   325    1
   290   326   324    1
   291   327   324    1
   292   328   329    1
   293   330   328    1
   294   331   328    1
   295   332   302    1
   296   333   300    1
   297   334   308    1
   298   335   300    1
   299   336   318    1
   300   337   300    1
   301   338   301    1
   302   339   301    1
   303   340     3    1
   304   341    78    1
   305   342   324    1
   306   343   332    1
   307   344   343    1
   308   345   301    1
   309   346   345    1
   310   347   345    1
   311   348   301    1
   312     8    41    2
   313    14    43    2
   314    16    45    2
   315    22    47    2
   316    29    49    3
   317    36    52    1
   318    40    41    1
   319    42    43    1
   320    42    53    1
   321    44    45    1
   322    44    53    1
   323    46    47    1
   324    52    59    2
   325    61    68    2
   326    65    67    1
   327    67    68    1
   328    69    76    2
   329    73    75    1
   330    75    76    1
   331    83   110    2
   332    89   112    1
   333    91   114    2
   334    98   116    3
   335   105   119    1
   336   109   110    1
   337   111   112    1
   338   111   120    1
   339   113   114    1
   340   113   120    1
   341   119   125    2
   342   132   159    2
   343   138   161    2
   344   140   163    2
   345   147   165    3
   346   154   168    1
   347   158   159    1
   348   160   161    1
   349   160   169    1
   350   162   163    1
   351   162   169    1
   352   168   174    2
   353   182   215    2
   354   188   217    2
   355   190   219    2
   356   196   221    2
   357   203   223    3
   358   204   225    3
   359   210   226    1
   360   214   215    1
   361   216   217    1
   362   216   227    1
   363   218   219    1
   364   218   227    1
   365   220   221    1
   366   226   233    2
   367   235   242    2
   368   239   241    1
   369   241   242    1
   370   243   250    2
   371   247   249    1
   372   249   250    1
   373   257   284    2
   374   263   286    2
   375   265   288    2
   376   272   290    3
   377   273   292    3
   378   274   289    3
   379   279   293    1
   380   283   284    1
   381   285   286    1
   382   285   294    1
   383   287   288    1
   384   287   294    1
   385   293   299    2
   386   306   333    2
   387   312   335    2
   388   314   337    2
   389   321   339    3
   390   322   341    3
   391   323   338    3
   392   328   342    1
   393   332   333    1
   394   334   335    1
   395   334   343    1
   396   336   337    1
   397   336   343    1
   398   342   348    2
@<TRIPOS>SUBSTRUCTURE
     1 RES1        1 GROUP             0 ****  ****    0  
@<TRIPOS>CRYSIN
   23.8020   23.8020   23.7150   90.0000   90.0000  120.0000   233     1
