@<TRIPOS>MOLECULE
DOYHEG
   105   120     1     0     0
SMALL
NO_CHARGES
****
Generated from the CSD

@<TRIPOS>ATOM
     1 F1      12.1602  22.9787   5.9867   F         1 RES1   0.0000
     2 F2      14.0056  22.6323   7.8458   F         1 RES1   0.0000
     3 F3      13.9896  20.4026   9.3840   F         1 RES1   0.0000
     4 F4      12.0459  18.5332   9.0105   F         1 RES1   0.0000
     5 F5      10.1439  18.9414   7.2012   F         1 RES1   0.0000
     6 F6      10.0001  25.2733   0.5699   F         1 RES1   0.0000
     7 F7      11.3463  25.9753  -1.5935   F         1 RES1   0.0000
     8 F8      12.1430  24.1105  -3.3447   F         1 RES1   0.0000
     9 F9      11.5221  21.4850  -2.9574   F         1 RES1   0.0000
    10 F10     10.1698  20.7784  -0.7663   F         1 RES1   0.0000
    11 F11      4.6165  25.9753   3.8067   F         1 RES1   0.0000
    12 F12      2.6506  27.6808   3.2396   F         1 RES1   0.0000
    13 F13      0.6012  26.8675   1.6682   F         1 RES1   0.0000
    14 F14      0.5323  24.3084   0.7802   F         1 RES1   0.0000
    15 F15      2.4810  22.6648   1.3998   F         1 RES1   0.0000
    16 F16      3.4301  18.0678   5.5911   F         1 RES1   0.0000
    17 F17      2.0777  16.9824   7.6023   F         1 RES1   0.0000
    18 F18      2.8387  17.3828  10.1724   F         1 RES1   0.0000
    19 F19      4.9496  18.9399  10.6870   F         1 RES1   0.0000
    20 F20      6.3106  20.1058   8.6315   F         1 RES1   0.0000
    21 F21     11.4852  18.3508   3.4886   F         1 RES1   0.0000
    22 F22     12.9630  16.1876   3.2534   F         1 RES1   0.0000
    23 F23     11.9672  13.9409   2.1689   F         1 RES1   0.0000
    24 F24      9.4407  13.9363   1.2588   F         1 RES1   0.0000
    25 F25      7.9310  16.1196   1.4635   F         1 RES1   0.0000
    26 N1       7.7331  22.2133   5.2149   N.2       1 RES1   0.0000
    27 N2       9.2182  21.4927   3.3115   N.2       1 RES1   0.0000
    28 N3       7.1060  22.8009   2.4013   N.2       1 RES1   0.0000
    29 N4       5.4795  21.4061   4.1276   N.2       1 RES1   0.0000
    30 N5       7.5302  19.6481   4.4126   N.2       1 RES1   0.0000
    31 N6       7.2302  20.2078   1.9753   N.2       1 RES1   0.0000
    32 O1       6.0623  23.7472   5.6160   O.2       1 RES1   0.0000
    33 O2       5.5226  21.0799   0.6557   O.2       1 RES1   0.0000
    34 C1       6.9241  23.0405   6.0365   C.2       1 RES1   0.0000
    35 C2       7.4122  22.9462   7.4225   C.2       1 RES1   0.0000
    36 H1       7.0151  23.3297   8.1722   H         1 RES1   0.0000
    37 C3       8.5346  22.2071   7.4142   C.2       1 RES1   0.0000
    38 H2       9.0657  22.0045   8.1529   H         1 RES1   0.0000
    39 C4       8.7645  21.7850   6.0503   C.2       1 RES1   0.0000
    40 C5       9.9657  21.2531   5.5468   C.2       1 RES1   0.0000
    41 C6      10.2239  21.2531   4.2051   C.2       1 RES1   0.0000
    42 C7      11.4963  21.2376   3.5079   C.2       1 RES1   0.0000
    43 H3      12.3163  21.0072   3.8814   H         1 RES1   0.0000
    44 C8      11.2898  21.6103   2.2492   C.2       1 RES1   0.0000
    45 H4      11.9340  21.6937   1.5824   H         1 RES1   0.0000
    46 C9       9.8526  21.8669   2.1053   C.2       1 RES1   0.0000
    47 C10      9.2243  22.5968   1.1426   C.2       1 RES1   0.0000
    48 C11      7.9003  23.1333   1.3418   C.2       1 RES1   0.0000
    49 C12      7.2782  24.0796   0.4786   C.2       1 RES1   0.0000
    50 H5       7.6298  24.4260  -0.3098   H         1 RES1   0.0000
    51 C13      6.0893  24.3718   1.0236   C.2       1 RES1   0.0000
    52 H6       5.4783  25.0027   0.7165   H         1 RES1   0.0000
    53 C14      5.9467  23.5322   2.1551   C.2       1 RES1   0.0000
    54 C15      4.7320  23.3235   2.8550   C.2       1 RES1   0.0000
    55 C16      4.5550  22.3494   3.7818   C.2       1 RES1   0.0000
    56 C17      3.4116  22.1978   4.6754   C.2       1 RES1   0.0000
    57 H7       2.6248  22.6926   4.6422   H         1 RES1   0.0000
    58 C18      3.6809  21.2639   5.5109   C.2       1 RES1   0.0000
    59 H8       3.1276  20.9778   6.2025   H         1 RES1   0.0000
    60 C19      4.9939  20.7243   5.1983   C.2       1 RES1   0.0000
    61 C20      5.6504  19.7254   5.9729   C.2       1 RES1   0.0000
    62 C21      6.8712  19.2167   5.5966   C.2       1 RES1   0.0000
    63 C22      7.4589  17.9580   6.0254   C.2       1 RES1   0.0000
    64 H9       7.2646  17.4818   6.8028   H         1 RES1   0.0000
    65 C23      8.3404  17.6240   5.0682   C.2       1 RES1   0.0000
    66 H10      8.8776  16.8648   5.0655   H         1 RES1   0.0000
    67 C24      8.3133  18.6353   4.0557   C.2       1 RES1   0.0000
    68 C25      8.7608  18.5116   2.7112   C.2       1 RES1   0.0000
    69 C26      8.1117  19.2043   1.7401   C.2       1 RES1   0.0000
    70 C27      8.1228  18.8672   0.2988   C.2       1 RES1   0.0000
    71 H11      8.6945  18.2673  -0.1245   H         1 RES1   0.0000
    72 C28      7.1774  19.5692  -0.2684   C.2       1 RES1   0.0000
    73 H12      6.9659  19.5522  -1.1758   H         1 RES1   0.0000
    74 C29      6.5036  20.3887   0.7497   C.2       1 RES1   0.0000
    75 C30     11.0771  20.9747   6.5289   C.ar      1 RES1   0.0000
    76 C31     12.1024  21.8886   6.7005   C.ar      1 RES1   0.0000
    77 C32     13.0552  21.6860   7.7379   C.ar      1 RES1   0.0000
    78 C33     13.0060  20.6191   8.4295   C.ar      1 RES1   0.0000
    79 C34     12.1024  19.6218   8.2635   C.ar      1 RES1   0.0000
    80 C35     11.1078  19.8553   7.3119   C.ar      1 RES1   0.0000
    81 C36      9.9915  22.9941  -0.0581   C.ar      1 RES1   0.0000
    82 C37     10.3124  24.2837  -0.2988   C.ar      1 RES1   0.0000
    83 C38     10.9972  24.6641  -1.4275   C.ar      1 RES1   0.0000
    84 C39     11.4078  23.7317  -2.2962   C.ar      1 RES1   0.0000
    85 C40     11.1472  22.4962  -2.1219   C.ar      1 RES1   0.0000
    86 C41     10.4206  22.1081  -1.0042   C.ar      1 RES1   0.0000
    87 C42      3.6526  24.2512   2.6116   C.ar      1 RES1   0.0000
    88 C43      3.6206  25.5238   3.0514   C.ar      1 RES1   0.0000
    89 C44      2.6162  26.4484   2.7499   C.ar      1 RES1   0.0000
    90 C45      1.5835  26.0139   1.9697   C.ar      1 RES1   0.0000
    91 C46      1.5577  24.7831   1.5437   C.ar      1 RES1   0.0000
    92 C47      2.5842  23.8739   1.8204   C.ar      1 RES1   0.0000
    93 C48      4.9558  19.1239   7.0905   C.ar      1 RES1   0.0000
    94 C49      3.8014  18.3059   6.8526   C.ar      1 RES1   0.0000
    95 C50      3.1141  17.7338   7.9094   C.ar      1 RES1   0.0000
    96 C51      3.5444  17.9426   9.1599   C.ar      1 RES1   0.0000
    97 C52      4.5489  18.7559   9.4144   C.ar      1 RES1   0.0000
    98 C53      5.2533  19.2893   8.3825   C.ar      1 RES1   0.0000
    99 C54      9.6817  17.3395   2.4235   C.ar      1 RES1   0.0000
   100 C55     10.9726  17.2730   2.9380   C.ar      1 RES1   0.0000
   101 C56     11.7422  16.1953   2.7914   C.ar      1 RES1   0.0000
   102 C57     11.2590  15.0727   2.2851   C.ar      1 RES1   0.0000
   103 C58      9.9657  15.0681   1.8121   C.ar      1 RES1   0.0000
   104 C59      9.1862  16.1706   1.9200   C.ar      1 RES1   0.0000
   105 Fe1      7.3443  21.3188   3.5566   Fe        1 RES1   0.0000
@<TRIPOS>BOND
     1     1    76    1
     2     2    77    1
     3     3    78    1
     4     4    79    1
     5     5    80    1
     6     6    82    1
     7     7    83    1
     8     8    84    1
     9     9    85    1
    10    10    86    1
    11    11    88    1
    12    12    89    1
    13    13    90    1
    14    14    91    1
    15    15    92    1
    16    16    94    1
    17    17    95    1
    18    18    96    1
    19    19    97    1
    20    20    98    1
    21    21   100    1
    22    22   101    1
    23    23   102    1
    24    24   103    1
    25    25   104    1
    26    26    34    1
    27    27    41    1
    28    28    48    1
    29    29    55    1
    30    30    62    2
    31    31    69    2
    32    32    34    2
    33    33    74    2
    34    34    35    1
    35    35    36    1
    36    37    35    2
    37    38    37    1
    38    39    26    2
    39    40    39    1
    40    41    40    2
    41    42    41    1
    42    43    42    1
    43    44    42    2
    44    45    44    1
    45    46    27    1
    46    47    46    2
    47    48    47    1
    48    49    48    2
    49    50    49    1
    50    51    49    1
    51    52    51    1
    52    53    28    1
    53    54    53    1
    54    55    54    2
    55    56    55    1
    56    57    56    1
    57    58    56    2
    58    59    58    1
    59    60    29    1
    60    61    60    2
    61    62    61    1
    62    63    62    1
    63    64    63    1
    64    65    63    2
    65    66    65    1
    66    67    30    1
    67    68    67    2
    68    69    68    1
    69    70    69    1
    70    71    70    1
    71    72    70    2
    72    73    72    1
    73    74    31    1
    74    75    40    1
    75    76    75   ar
    76    77    76   ar
    77    78    77   ar
    78    79    78   ar
    79    80    75   ar
    80    81    47    1
    81    82    81   ar
    82    83    82   ar
    83    84    83   ar
    84    85    84   ar
    85    86    81   ar
    86    87    54    1
    87    88    87   ar
    88    89    88   ar
    89    90    89   ar
    90    91    90   ar
    91    92    87   ar
    92    93    61    1
    93    94    93   ar
    94    95    94   ar
    95    96    95   ar
    96    97    96   ar
    97    98    93   ar
    98    99    68    1
    99   100    99   ar
   100   101   100   ar
   101   102   101   ar
   102   103   102   ar
   103   104    99   ar
   104   105    26    1
   105    27   105    1
   106    28   105    1
   107    29   105    1
   108    30   105    1
   109    31   105    1
   110    37    39    1
   111    44    46    1
   112    51    53    2
   113    58    60    1
   114    65    67    1
   115    72    74    1
   116    79    80   ar
   117    85    86   ar
   118    91    92   ar
   119    97    98   ar
   120   103   104   ar
@<TRIPOS>SUBSTRUCTURE
     1 RES1        1 GROUP             0 ****  ****    0  
@<TRIPOS>CRYSIN
   12.2942   15.4624   27.6650   90.0000   90.0000   90.0000    19     1
