@<TRIPOS>MOLECULE
DUBSUR
   163   180     3     0     0
SMALL
USER_CHARGES
****
Generated from the CSD

@<TRIPOS>ATOM
     1 Fe1      5.8932   3.6390  13.2856   Fe        1 RES1   2.0000
     2 N1       6.7688   5.3740  12.3509   N.2       1 RES1   0.0000
     3 N2       4.1104   5.0784  13.2055   N.2       1 RES1   0.0000
     4 N3       6.4529   7.6096  12.2190   N.pl3     1 RES1   0.0000
     5 N4       3.8838   7.3387  13.2394   N.3       1 RES1   0.0000
     6 N5       7.5947   2.2728  13.0551   N.2       1 RES1   0.0000
     7 N6       5.3074   2.5614  11.4849   N.2       1 RES1   0.0000
     8 N7       8.3398   0.6526  11.6500   N.pl3     1 RES1   0.0000
     9 N8       6.1969   1.1515   9.9487   N.pl3     1 RES1   0.0000
    10 N9       6.5046   4.6977  15.2458   N.2       1 RES1   0.0000
    11 N10      4.7321   2.5785  14.8009   N.2       1 RES1   0.0000
    12 N11      5.7665   4.8537  17.3774   N.pl3     1 RES1   0.0000
    13 N12      3.8946   2.8713  16.8913   N.3       1 RES1   0.0000
    14 C1       8.0617   5.9567  11.8905   C.3       1 RES1   0.0000
    15 H1       8.2140   5.7587  10.9326   H         1 RES1   0.0000
    16 H2       8.8173   5.5920  12.4161   H         1 RES1   0.0000
    17 C2       7.9213   7.4715  12.1182   C.3       1 RES1   0.0000
    18 H3       8.3711   7.7575  12.9522   H         1 RES1   0.0000
    19 H4       8.2830   7.9891  11.3557   H         1 RES1   0.0000
    20 C3       5.9868   6.3811  12.4833   C.2       1 RES1   0.0000
    21 C4       4.6060   6.2284  12.9639   C.2       1 RES1   0.0000
    22 C5       5.7677   8.7883  12.7267   C.3       1 RES1   0.0000
    23 H5       6.0471   9.5853  12.2099   H         1 RES1   0.0000
    24 H6       6.0118   8.9338  13.6752   H         1 RES1   0.0000
    25 C6       4.2686   8.5986  12.6061   C.3       1 RES1   0.0000
    26 H7       3.7992   9.3514  13.0459   H         1 RES1   0.0000
    27 H8       4.0079   8.5867  11.6511   H         1 RES1   0.0000
    28 C7       2.7489   5.3630  13.7313   C.3       1 RES1   0.0000
    29 H9       2.7032   5.1762  14.7023   H         1 RES1   0.0000
    30 H10      2.0725   4.8080  13.2679   H         1 RES1   0.0000
    31 C8       2.5065   6.8627  13.4528   C.3       1 RES1   0.0000
    32 H11      1.9460   6.9971  12.6476   H         1 RES1   0.0000
    33 H12      2.0818   7.3120  14.2264   H         1 RES1   0.0000
    34 C9       8.9199   1.8401  13.5900   C.3       1 RES1   0.0000
    35 H13      8.8127   1.4010  14.4709   H         1 RES1   0.0000
    36 H14      9.5240   2.6172  13.6931   H         1 RES1   0.0000
    37 C10      9.4856   0.8437  12.5498   C.3       1 RES1   0.0000
    38 H15     10.2611   1.2271  12.0688   H         1 RES1   0.0000
    39 H16      9.7545  -0.0081  12.9762   H         1 RES1   0.0000
    40 C11      7.4222   1.5665  12.0016   C.2       1 RES1   0.0000
    41 C12      6.2486   1.7595  11.1492   C.2       1 RES1   0.0000
    42 C13      8.3896   0.1423  10.2972   C.3       1 RES1   0.0000
    43 H17      8.8557  -0.7312  10.2967   H         1 RES1   0.0000
    44 H18      8.9127   0.7660   9.7339   H         1 RES1   0.0000
    45 C14      7.0158  -0.0302   9.6998   C.3       1 RES1   0.0000
    46 H19      7.0949  -0.1781   8.7236   H         1 RES1   0.0000
    47 H20      6.5788  -0.8252  10.0962   H         1 RES1   0.0000
    48 C15      4.3947   2.5968  10.3113   C.3       1 RES1   0.0000
    49 H21      4.4676   3.4618   9.8356   H         1 RES1   0.0000
    50 H22      3.4545   2.4658  10.5937   H         1 RES1   0.0000
    51 C16      4.8623   1.4331   9.4074   C.3       1 RES1   0.0000
    52 H23      4.2651   0.6476   9.4913   H         1 RES1   0.0000
    53 H24      4.9079   1.7086   8.4577   H         1 RES1   0.0000
    54 C17      7.2807   5.7988  15.8755   C.3       1 RES1   0.0000
    55 H25      7.2378   6.6176  15.3211   H         1 RES1   0.0000
    56 H26      8.2286   5.5382  15.9877   H         1 RES1   0.0000
    57 C18      6.6153   6.0351  17.2471   C.3       1 RES1   0.0000
    58 H27      7.2875   6.0783  17.9726   H         1 RES1   0.0000
    59 H28      6.0782   6.8671  17.2501   H         1 RES1   0.0000
    60 C19      5.7198   4.2811  16.1598   C.2       1 RES1   0.0000
    61 C20      4.7815   3.2008  15.9249   C.2       1 RES1   0.0000
    62 C21      4.7041   4.6421  18.3530   C.3       1 RES1   0.0000
    63 H29      3.9617   5.2720  18.1762   H         1 RES1   0.0000
    64 H30      5.0503   4.8216  19.2632   H         1 RES1   0.0000
    65 C22      4.1911   3.2167  18.2770   C.3       1 RES1   0.0000
    66 H31      4.8732   2.5963  18.6371   H         1 RES1   0.0000
    67 H32      3.3717   3.1275  18.8258   H         1 RES1   0.0000
    68 C23      3.6213   1.6105  14.9579   C.3       1 RES1   0.0000
    69 H33      3.8900   0.7127  14.6389   H         1 RES1   0.0000
    70 H34      2.8246   1.9052  14.4488   H         1 RES1   0.0000
    71 C24      3.3248   1.5867  16.4719   C.3       1 RES1   0.0000
    72 H35      2.3515   1.5448  16.6514   H         1 RES1   0.0000
    73 H36      3.7735   0.8261  16.9188   H         1 RES1   0.0000
    74 B1       7.4625  11.0895   1.6872   B         2 RES2  -1.0000
    75 C25      6.1497  10.9652   0.7091   C.ar      2 RES2   0.0000
    76 C26      6.1220  10.4036  -0.5690   C.ar      2 RES2   0.0000
    77 H37      6.9201  10.0246  -0.9194   H         2 RES2   0.0000
    78 C27      4.9725  10.3783  -1.3471   C.ar      2 RES2   0.0000
    79 H38      4.9991   9.9967  -2.2166   H         2 RES2   0.0000
    80 C28      3.7926  10.9023  -0.8673   C.ar      2 RES2   0.0000
    81 H39      3.0081  10.8939  -1.4032   H         2 RES2   0.0000
    82 C29      3.7676  11.4385   0.4010   C.ar      2 RES2   0.0000
    83 H40      2.9580  11.7921   0.7523   H         2 RES2   0.0000
    84 C30      4.9234  11.4617   1.1654   C.ar      2 RES2   0.0000
    85 H41      4.8820  11.8319   2.0394   H         2 RES2   0.0000
    86 C31      7.7377  12.6672   2.0400   C.ar      2 RES2   0.0000
    87 C32      7.2029  13.7210   1.2862   C.ar      2 RES2   0.0000
    88 H42      6.6034  13.5135   0.5792   H         2 RES2   0.0000
    89 C33      7.5076  15.0472   1.5239   C.ar      2 RES2   0.0000
    90 H43      7.1187  15.7241   0.9831   H         2 RES2   0.0000
    91 C34      8.3731  15.3981   2.5420   C.ar      2 RES2   0.0000
    92 H44      8.5742  16.3097   2.7180   H         2 RES2   0.0000
    93 C35      8.9377  14.3928   3.2956   C.ar      2 RES2   0.0000
    94 H45      9.5395  14.6113   3.9979   H         2 RES2   0.0000
    95 C36      8.6359  13.0636   3.0365   C.ar      2 RES2   0.0000
    96 H46      9.0571  12.3922   3.5599   H         2 RES2   0.0000
    97 C37      7.1373  10.1370   2.9898   C.ar      2 RES2   0.0000
    98 C38      7.0066  10.5624   4.3187   C.ar      2 RES2   0.0000
    99 H47      7.0955  11.4888   4.5097   H         2 RES2   0.0000
   100 C39      6.7527   9.6857   5.3732   C.ar      2 RES2   0.0000
   101 H48      6.6892  10.0184   6.2608   H         2 RES2   0.0000
   102 C40      6.5935   8.3427   5.1324   C.ar      2 RES2   0.0000
   103 H49      6.4382   7.7404   5.8506   H         2 RES2   0.0000
   104 C41      6.6632   7.8777   3.8315   C.ar      2 RES2   0.0000
   105 H50      6.5325   6.9546   3.6484   H         2 RES2   0.0000
   106 C42      6.9220   8.7605   2.7960   C.ar      2 RES2   0.0000
   107 H51      6.9568   8.4191   1.9102   H         2 RES2   0.0000
   108 C43      8.8658  10.5969   0.9674   C.ar      2 RES2   0.0000
   109 C44      9.7411   9.6515   1.4974   C.ar      2 RES2   0.0000
   110 H52      9.4896   9.2017   2.2956   H         2 RES2   0.0000
   111 C45     10.9631   9.3330   0.9150   C.ar      2 RES2   0.0000
   112 H53     11.5250   8.6827   1.3204   H         2 RES2   0.0000
   113 C46     11.3617   9.9553  -0.2416   C.ar      2 RES2   0.0000
   114 H54     12.1864   9.7277  -0.6537   H         2 RES2   0.0000
   115 C47     10.5417  10.9166  -0.7950   C.ar      2 RES2   0.0000
   116 H55     10.8086  11.3655  -1.5887   H         2 RES2   0.0000
   117 C48      9.3316  11.2302  -0.1972   C.ar      2 RES2   0.0000
   118 H56      8.7915  11.9044  -0.5930   H         2 RES2   0.0000
   119 B2       2.5986   3.2362   1.9879   B         3 RES3  -1.0000
   120 C49      2.6740   2.1656   0.7392   C.ar      3 RES3   0.0000
   121 C50      2.2705   0.8385   0.8939   C.ar      3 RES3   0.0000
   122 H57      1.9507   0.5596   1.7441   H         3 RES3   0.0000
   123 C51      2.3116  -0.0965  -0.1365   C.ar      3 RES3   0.0000
   124 H58      2.0357  -0.9917   0.0204   H         3 RES3   0.0000
   125 C52      2.7586   0.2834  -1.3901   C.ar      3 RES3   0.0000
   126 H59      2.7977  -0.3459  -2.1010   H         3 RES3   0.0000
   127 C53      3.1448   1.5903  -1.5882   C.ar      3 RES3   0.0000
   128 H60      3.4392   1.8686  -2.4474   H         3 RES3   0.0000
   129 C54      3.1075   2.5055  -0.5452   C.ar      3 RES3   0.0000
   130 H61      3.3882   3.3979  -0.7109   H         3 RES3   0.0000
   131 C55      1.1245   3.0719   2.6962   C.ar      3 RES3   0.0000
   132 C56     -0.0301   2.9388   1.9121   C.ar      3 RES3   0.0000
   133 H62      0.0630   2.9126   0.9670   H         3 RES3   0.0000
   134 C57     -1.3029   2.8432   2.4562   C.ar      3 RES3   0.0000
   135 H63     -2.0552   2.7449   1.8840   H         3 RES3   0.0000
   136 C58     -1.4823   2.8902   3.8187   C.ar      3 RES3   0.0000
   137 H64     -2.3548   2.8444   4.1920   H         3 RES3   0.0000
   138 C59     -0.3730   3.0050   4.6384   C.ar      3 RES3   0.0000
   139 H65     -0.4794   3.0323   5.5821   H         3 RES3   0.0000
   140 C60      0.9024   3.0805   4.0747   C.ar      3 RES3   0.0000
   141 H66      1.6516   3.1402   4.6551   H         3 RES3   0.0000
   142 C61      2.7951   4.7612   1.4118   C.ar      3 RES3   0.0000
   143 C62      1.7619   5.6800   1.2132   C.ar      3 RES3   0.0000
   144 H67      0.8737   5.4200   1.4289   H         3 RES3   0.0000
   145 C63      1.9784   6.9601   0.7128   C.ar      3 RES3   0.0000
   146 H68      1.2419   7.5476   0.5880   H         3 RES3   0.0000
   147 C64      3.2506   7.3827   0.3968   C.ar      3 RES3   0.0000
   148 H69      3.4031   8.2627   0.0730   H         3 RES3   0.0000
   149 C65      4.2969   6.5036   0.5596   C.ar      3 RES3   0.0000
   150 H70      5.1801   6.7762   0.3390   H         3 RES3   0.0000
   151 C66      4.0754   5.2293   1.0409   C.ar      3 RES3   0.0000
   152 H71      4.8159   4.6410   1.1266   H         3 RES3   0.0000
   153 C67      3.7594   2.9205   3.1191   C.ar      3 RES3   0.0000
   154 C68      4.2027   1.6346   3.4286   C.ar      3 RES3   0.0000
   155 H72      3.8583   0.9012   2.9327   H         3 RES3   0.0000
   156 C69      5.1316   1.3842   4.4390   C.ar      3 RES3   0.0000
   157 H73      5.4036   0.4912   4.6160   H         3 RES3   0.0000
   158 C70      5.6587   2.4133   5.1818   C.ar      3 RES3   0.0000
   159 H74      6.2905   2.2408   5.8697   H         3 RES3   0.0000
   160 C71      5.2518   3.6982   4.9085   C.ar      3 RES3   0.0000
   161 H75      5.6084   4.4231   5.4082   H         3 RES3   0.0000
   162 C72      4.3194   3.9422   3.9035   C.ar      3 RES3   0.0000
   163 H76      4.0510   4.8386   3.7409   H         3 RES3   0.0000
@<TRIPOS>BOND
     1     1     2    1
     2     2    14    1
     3     3     1    1
     4     4    17    1
     5     5    21    1
     6     6     1    1
     7     7     1    1
     8     8    37    1
     9     9    41    1
    10    10     1    1
    11    11     1    1
    12    12    57    1
    13    13    61    1
    14    14    15    1
    15    16    14    1
    16    17    14    1
    17    18    17    1
    18    19    17    1
    19    20     2    2
    20    21     3    2
    21    22     4    1
    22    23    22    1
    23    24    22    1
    24    25     5    1
    25    26    25    1
    26    27    25    1
    27    28     3    1
    28    29    28    1
    29    30    28    1
    30    31     5    1
    31    32    31    1
    32    33    31    1
    33    34     6    1
    34    35    34    1
    35    36    34    1
    36    37    34    1
    37    38    37    1
    38    39    37    1
    39    40     6    2
    40    41     7    2
    41    42     8    1
    42    43    42    1
    43    44    42    1
    44    45     9    1
    45    46    45    1
    46    47    45    1
    47    48     7    1
    48    49    48    1
    49    50    48    1
    50    51     9    1
    51    52    51    1
    52    53    51    1
    53    54    10    1
    54    55    54    1
    55    56    54    1
    56    57    54    1
    57    58    57    1
    58    59    57    1
    59    60    10    2
    60    61    11    2
    61    62    12    1
    62    63    62    1
    63    64    62    1
    64    65    13    1
    65    66    65    1
    66    67    65    1
    67    68    11    1
    68    69    68    1
    69    70    68    1
    70    71    13    1
    71    72    71    1
    72    73    71    1
    73     4    20    1
    74     8    40    1
    75    12    60    1
    76    20    21    1
    77    22    25    1
    78    28    31    1
    79    40    41    1
    80    42    45    1
    81    48    51    1
    82    60    61    1
    83    62    65    1
    84    68    71    1
    85    74    75    1
    86    75    76   ar
    87    76    77    1
    88    78    76   ar
    89    79    78    1
    90    80    78   ar
    91    81    80    1
    92    82    80   ar
    93    83    82    1
    94    84    75   ar
    95    85    84    1
    96    86    74    1
    97    87    86   ar
    98    88    87    1
    99    89    87   ar
   100    90    89    1
   101    91    89   ar
   102    92    91    1
   103    93    91   ar
   104    94    93    1
   105    95    86   ar
   106    96    95    1
   107    97    74    1
   108    98    97   ar
   109    99    98    1
   110   100    98   ar
   111   101   100    1
   112   102   100   ar
   113   103   102    1
   114   104   102   ar
   115   105   104    1
   116   106    97   ar
   117   107   106    1
   118   108    74    1
   119   109   108   ar
   120   110   109    1
   121   111   109   ar
   122   112   111    1
   123   113   111   ar
   124   114   113    1
   125   115   113   ar
   126   116   115    1
   127   117   108   ar
   128   118   117    1
   129    82    84   ar
   130    93    95   ar
   131   104   106   ar
   132   115   117   ar
   133   119   120    1
   134   120   121   ar
   135   121   122    1
   136   123   121   ar
   137   124   123    1
   138   125   123   ar
   139   126   125    1
   140   127   125   ar
   141   128   127    1
   142   129   120   ar
   143   130   129    1
   144   131   119    1
   145   132   131   ar
   146   133   132    1
   147   134   132   ar
   148   135   134    1
   149   136   134   ar
   150   137   136    1
   151   138   136   ar
   152   139   138    1
   153   140   131   ar
   154   141   140    1
   155   142   119    1
   156   143   142   ar
   157   144   143    1
   158   145   143   ar
   159   146   145    1
   160   147   145   ar
   161   148   147    1
   162   149   147   ar
   163   150   149    1
   164   151   142   ar
   165   152   151    1
   166   153   119    1
   167   154   153   ar
   168   155   154    1
   169   156   154   ar
   170   157   156    1
   171   158   156   ar
   172   159   158    1
   173   160   158   ar
   174   161   160    1
   175   162   153   ar
   176   163   162    1
   177   127   129   ar
   178   138   140   ar
   179   149   151   ar
   180   160   162   ar
@<TRIPOS>SUBSTRUCTURE
     1 RES1        1 GROUP             0 ****  ****    0  
     2 RES2       74 GROUP             0 ****  ****    0  
     3 RES3      119 GROUP             0 ****  ****    0  
@<TRIPOS>CRYSIN
   12.3866   30.5360   16.6689   90.0000  100.9000   90.0000   231     1
