@<TRIPOS>MOLECULE
DUGPIF
   104   115     1     0     0
SMALL
NO_CHARGES
****
Generated from the CSD

@<TRIPOS>ATOM
     1 C1       5.4350   5.2755  14.2984   C.1       1 RES1   0.0000
     2 C2       7.4821   3.8459  13.2299   C.1       1 RES1   0.0000
     3 C3       7.0914   5.0915  10.8543   C.1       1 RES1   0.0000
     4 C4       5.0522   6.3584  11.8621   C.1       1 RES1   0.0000
     5 C5       7.5049   6.5750  13.0925   C.1       1 RES1   0.0000
     6 Fe1      6.3198   5.3053  12.6061   Fe        1 RES1   0.0000
     7 H1       5.4143   4.1035  12.2237   H         1 RES1   0.0000
     8 N1       4.8882   5.2642  15.3390   N.1       1 RES1   0.0000
     9 N2       8.1582   3.0008  13.5523   N.1       1 RES1   0.0000
    10 N3       7.5640   5.0377   9.7875   N.1       1 RES1   0.0000
    11 O1       4.2238   6.9685  11.3942   O.2       1 RES1   0.0000
    12 O2       8.3054   7.3436  13.3985   O.2       1 RES1   0.0000
    13 C6       1.7062   1.9888  18.1286   C.3       1 RES1   0.0000
    14 H2       1.2176   1.2711  17.6541   H         1 RES1   0.0000
    15 H3       1.3129   2.0978  19.0301   H         1 RES1   0.0000
    16 C7       3.1275   1.6689  18.2235   C.3       1 RES1   0.0000
    17 H4       3.2324   0.7615  18.6080   H         1 RES1   0.0000
    18 H5       3.5211   1.6618  17.3154   H         1 RES1   0.0000
    19 C8       5.2133   2.3016  19.2379   C.3       1 RES1   0.0000
    20 H6       5.6573   2.1784  18.3609   H         1 RES1   0.0000
    21 H7       5.2927   1.4551  19.7435   H         1 RES1   0.0000
    22 C9       5.8758   3.3632  19.9676   C.3       1 RES1   0.0000
    23 H8       5.4064   3.5232  20.8250   H         1 RES1   0.0000
    24 H9       6.8080   3.0999  20.1705   H         1 RES1   0.0000
    25 C10      6.6149   5.5997  19.8155   C.3       1 RES1   0.0000
    26 H10      7.5741   5.3605  19.8662   H         1 RES1   0.0000
    27 H11      6.2823   5.7610  20.7334   H         1 RES1   0.0000
    28 C11      6.4296   6.8354  18.9679   C.3       1 RES1   0.0000
    29 H12      7.0194   7.5587  19.2968   H         1 RES1   0.0000
    30 H13      6.6754   6.6372  18.0288   H         1 RES1   0.0000
    31 C12      4.8816   8.5057  18.3658   C.3       1 RES1   0.0000
    32 H14      5.1941   8.4406  17.4283   H         1 RES1   0.0000
    33 H15      5.4054   9.2120  18.8207   H         1 RES1   0.0000
    34 C13      3.4586   8.8482  18.3920   C.3       1 RES1   0.0000
    35 H16      3.1305   8.8596  19.3263   H         1 RES1   0.0000
    36 H17      3.3197   9.7471  18.0010   H         1 RES1   0.0000
    37 C14      1.3607   8.1631  17.4725   C.3       1 RES1   0.0000
    38 H18      1.2504   9.0775  17.1093   H         1 RES1   0.0000
    39 H19      0.9010   8.1193  18.3478   H         1 RES1   0.0000
    40 C15      0.7803   7.1864  16.5513   C.3       1 RES1   0.0000
    41 H20     -0.1355   7.4596  16.2945   H         1 RES1   0.0000
    42 H21      1.3297   7.1213  15.7300   H         1 RES1   0.0000
    43 C16      0.2557   4.8976  16.4139   C.3       1 RES1   0.0000
    44 H22      0.8136   4.8339  15.5991   H         1 RES1   0.0000
    45 H23     -0.6689   5.1184  16.1374   H         1 RES1   0.0000
    46 C17      0.2636   3.5515  17.1485   C.3       1 RES1   0.0000
    47 H24     -0.2286   3.6194  18.0042   H         1 RES1   0.0000
    48 H25     -0.1618   2.8508  16.5922   H         1 RES1   0.0000
    49 K1       3.5657   5.2080  17.7138   K         1 RES1   0.0000
    50 O3       1.6349   3.2401  17.3809   O.3       1 RES1   0.0000
    51 O4       3.8322   2.6031  19.0301   O.3       1 RES1   0.0000
    52 O5       5.8695   4.5395  19.1954   O.3       1 RES1   0.0000
    53 O6       5.0751   7.2530  19.0301   O.3       1 RES1   0.0000
    54 O7       2.7413   7.8687  17.6328   O.3       1 RES1   0.0000
    55 O8       0.7466   5.8998  17.2353   O.3       1 RES1   0.0000
    56 C18     11.4169   4.4277   4.6941   C.3       1 RES1   0.0000
    57 H26     12.3818   4.6018   4.5551   H         1 RES1   0.0000
    58 H27     10.9982   4.2889   3.8073   H         1 RES1   0.0000
    59 C19     11.2403   3.1948   5.5351   C.3       1 RES1   0.0000
    60 H28     11.7412   2.4389   5.1375   H         1 RES1   0.0000
    61 H29     11.5877   3.3547   6.4481   H         1 RES1   0.0000
    62 C20      9.6748   1.6844   6.3630   C.3       1 RES1   0.0000
    63 H30     10.0122   1.8189   7.2842   H         1 RES1   0.0000
    64 H31     10.1711   0.9342   5.9507   H         1 RES1   0.0000
    65 C21      8.2178   1.3928   6.3843   C.3       1 RES1   0.0000
    66 H32      7.8940   1.2923   5.4533   H         1 RES1   0.0000
    67 H33      8.0646   0.5351   6.8539   H         1 RES1   0.0000
    68 C22      6.1252   2.1062   7.1516   C.3       1 RES1   0.0000
    69 H34      6.0097   1.2669   7.6621   H         1 RES1   0.0000
    70 H35      5.7191   1.9789   6.2567   H         1 RES1   0.0000
    71 C23      5.4245   3.2259   7.8617   C.3       1 RES1   0.0000
    72 H36      4.4683   2.9994   7.9844   H         1 RES1   0.0000
    73 H37      5.8281   3.3618   8.7551   H         1 RES1   0.0000
    74 C24      4.9331   5.5105   7.7079   C.3       1 RES1   0.0000
    75 H38      5.3429   5.6521   8.5980   H         1 RES1   0.0000
    76 H39      3.9720   5.3152   7.8405   H         1 RES1   0.0000
    77 C25      5.0829   6.7689   6.8784   C.3       1 RES1   0.0000
    78 H40      4.7623   6.6132   5.9556   H         1 RES1   0.0000
    79 H41      4.5575   7.5078   7.2760   H         1 RES1   0.0000
    80 C26      6.6803   8.3089   6.0832   C.3       1 RES1   0.0000
    81 H42      6.3758   8.1688   5.1506   H         1 RES1   0.0000
    82 H43      6.1702   9.0634   6.4694   H         1 RES1   0.0000
    83 C27      8.1150   8.5991   6.1094   C.3       1 RES1   0.0000
    84 H44      8.2836   9.4371   5.6104   H         1 RES1   0.0000
    85 H45      8.3973   8.7421   7.0469   H         1 RES1   0.0000
    86 C28     10.3123   7.8376   5.3355   C.3       1 RES1   0.0000
    87 H46     10.7782   7.9098   6.2059   H         1 RES1   0.0000
    88 H47     10.4199   8.6911   4.8463   H         1 RES1   0.0000
    89 C29     10.8653   6.7292   4.5518   C.3       1 RES1   0.0000
    90 H48     10.3397   6.6033   3.7223   H         1 RES1   0.0000
    91 H49     11.8027   6.9246   4.3015   H         1 RES1   0.0000
    92 K2       8.4508   5.0432   7.0878   K         1 RES1   0.0000
    93 O9      10.8101   5.5558   5.3453   O.3       1 RES1   0.0000
    94 O10      9.8451   2.8862   5.5875   O.3       1 RES1   0.0000
    95 O11      7.4982   2.3823   7.0077   O.3       1 RES1   0.0000
    96 O12      5.5477   4.4262   7.0796   O.3       1 RES1   0.0000
    97 O13      6.4681   7.0930   6.8751   O.3       1 RES1   0.0000
    98 O14      8.9095   7.5474   5.5384   O.3       1 RES1   0.0000
    99 C30     10.6716   4.8764  11.7181   C.3       1 RES1   0.0000
   100 H50      9.8539   5.2939  12.0601   H         1 RES1   0.0000
   101 H51     11.4513   5.3874  12.0192   H         1 RES1   0.0000
   102 H52     10.7339   3.9577  12.0552   H         1 RES1   0.0000
   103 C31     10.6347   4.8565  10.1900   C.1       1 RES1   0.0000
   104 N4      10.6533   4.7801   9.0545   N.1       1 RES1   0.0000
@<TRIPOS>BOND
     1     1     6    1
     2     2     6    1
     3     3     6    1
     4     4     6    1
     5     5     6    1
     6     6     7    1
     7     8     1    3
     8     9     2    3
     9    10     3    3
    10    11     4    3
    11    12     5    3
    12    13    14    1
    13    15    13    1
    14    16    13    1
    15    17    16    1
    16    18    16    1
    17    19    20    1
    18    21    19    1
    19    22    19    1
    20    23    22    1
    21    24    22    1
    22    25    26    1
    23    27    25    1
    24    28    25    1
    25    29    28    1
    26    30    28    1
    27    31    32    1
    28    33    31    1
    29    34    31    1
    30    35    34    1
    31    36    34    1
    32    37    38    1
    33    39    37    1
    34    40    37    1
    35    41    40    1
    36    42    40    1
    37    43    44    1
    38    45    43    1
    39    46    43    1
    40    47    46    1
    41    48    46    1
    42    49     8    1
    43    50    13    1
    44    51    16    1
    45    52    22    1
    46    53    28    1
    47    54    34    1
    48    55    40    1
    49    56    57    1
    50    58    56    1
    51    59    56    1
    52    60    59    1
    53    61    59    1
    54    62    63    1
    55    64    62    1
    56    65    62    1
    57    66    65    1
    58    67    65    1
    59    68    69    1
    60    70    68    1
    61    71    68    1
    62    72    71    1
    63    73    71    1
    64    74    75    1
    65    76    74    1
    66    77    74    1
    67    78    77    1
    68    79    77    1
    69    80    81    1
    70    82    80    1
    71    83    80    1
    72    84    83    1
    73    85    83    1
    74    86    87    1
    75    88    86    1
    76    89    86    1
    77    90    89    1
    78    91    89    1
    79    92    10    1
    80    93    56    1
    81    94    59    1
    82    95    65    1
    83    96    71    1
    84    97    77    1
    85    98    83    1
    86    99   100    1
    87   101    99    1
    88   102    99    1
    89   103    99    1
    90   104    92    1
    91    19    51    1
    92    25    52    1
    93    31    53    1
    94    37    54    1
    95    43    55    1
    96    46    50    1
    97    49    50    1
    98    49    51    1
    99    49    52    1
   100    49    53    1
   101    49    54    1
   102    49    55    1
   103    62    94    1
   104    68    95    1
   105    74    96    1
   106    80    97    1
   107    86    98    1
   108    89    93    1
   109    92    93    1
   110    92    94    1
   111    92    95    1
   112    92    96    1
   113    92    97    1
   114    92    98    1
   115   103   104    3
@<TRIPOS>SUBSTRUCTURE
     1 RES1        1 GROUP             0 ****  ****    0  
@<TRIPOS>CRYSIN
    8.7717   14.1549   16.3775   90.0000   92.5290   90.0000     4     1
