@<TRIPOS>MOLECULE
DUJTAF
   199   244     2     0     0
SMALL
NO_CHARGES
****
Generated from the CSD

@<TRIPOS>ATOM
     1 C1      -3.4313   1.1303   8.5936   C.ar      1 RES1   0.0000
     2 C2      -4.5445   0.7684   7.8031   C.ar      1 RES1   0.0000
     3 C3      -5.3711   1.8215   7.4244   C.ar      1 RES1   0.0000
     4 C4       0.5290  -2.1284   7.6931   C.ar      1 RES1   0.0000
     5 C5       0.1965  -3.1632   6.8002   C.ar      1 RES1   0.0000
     6 C6       1.2050  -3.6328   6.0532   C.ar      1 RES1   0.0000
     7 C7       1.8185  -1.6751   7.8210   C.ar      1 RES1   0.0000
     8 C8       2.8894  -2.1955   7.0381   C.ar      1 RES1   0.0000
     9 C9       2.5202  -3.1733   6.1478   C.ar      1 RES1   0.0000
    10 C10     -3.1925   2.4415   8.9646   C.ar      1 RES1   0.0000
    11 C11     -4.0393   3.4884   8.5962   C.ar      1 RES1   0.0000
    12 C12     -5.0992   3.1550   7.8261   C.ar      1 RES1   0.0000
    13 C13      1.6183   4.0820   9.3253   C.ar      1 RES1   0.0000
    14 C14      1.6789   5.4278   8.9569   C.ar      1 RES1   0.0000
    15 C15      2.8105   5.8567   8.3455   C.ar      1 RES1   0.0000
    16 C16      3.9016   4.9806   8.1382   C.ar      1 RES1   0.0000
    17 C17      3.8667   3.6531   8.4913   C.ar      1 RES1   0.0000
    18 C18      2.6966   3.2059   9.0900   C.ar      1 RES1   0.0000
    19 C19      0.2645   5.8628  12.7817   C.3       1 RES1   0.0000
    20 O1      -0.0037   4.4949  12.5799   O.3       1 RES1   0.0000
    21 C20      1.8773   4.7021  15.7060   C.3       1 RES1   0.0000
    22 O2       1.4750   3.4482  15.2869   O.3       1 RES1   0.0000
    23 O3       1.7893   0.0049  11.6284   O.3       1 RES1   0.0000
    24 O4       1.1571   1.0256  14.2763   O.3       1 RES1   0.0000
    25 O5      -0.6179   1.9593  12.1636   O.3       1 RES1   0.0000
    26 N1       0.6190   3.3543   9.9376   N.ar      1 RES1   0.0000
    27 N2       1.0911   2.1081  10.0373   N.ar      1 RES1   0.0000
    28 N3       2.3200   1.9882   9.5720   N.ar      1 RES1   0.0000
    29 N4      -2.4376   0.3497   9.1025   N.ar      1 RES1   0.0000
    30 N5      -0.2370  -1.4555   8.6210   N.ar      1 RES1   0.0000
    31 N6       1.8332  -0.7074   8.8131   N.ar      1 RES1   0.0000
    32 N7       0.5860  -0.6200   9.2427   N.ar      1 RES1   0.0000
    33 N8      -2.0610   2.4232   9.7032   N.ar      1 RES1   0.0000
    34 N9      -1.6201   1.1770   9.7549   N.ar      1 RES1   0.0000
    35 Cl1      3.1760   2.5322  17.8565   Cl        1 RES1   0.0000
    36 Cl2      4.9212   0.2769   8.6021   Cl        1 RES1   0.0000
    37 Cl3     -1.6958   5.6374  10.1228   Cl        1 RES1   0.0000
    38 Fe1      2.1301   1.7300  16.0186   Fe        1 RES1   0.0000
    39 Fe2      2.8573   0.9880  13.0867   Fe        1 RES1   0.0000
    40 Fe3      2.3240  -1.8723  12.2585   Fe        1 RES1   0.0000
    41 Fe4      3.3086   0.1535  10.1108   Fe        1 RES1   0.0000
    42 Fe5      0.0112   0.5070  11.0157   Fe        1 RES1   0.0000
    43 Fe6     -1.1168   3.7257  11.1431   Fe        1 RES1   0.0000
    44 Fe7      0.5272   2.8718  13.6239   Fe        1 RES1   0.0000
    45 O6      -1.1855   2.8786  14.5841   O.3       1 RES1   0.0000
    46 O7       3.7162  -1.6580  10.8389   O.3       1 RES1   0.0000
    47 O8       3.4019  -0.8457  13.5423   O.3       1 RES1   0.0000
    48 O9       4.2138   1.1039  11.6054   O.3       1 RES1   0.0000
    49 O10      2.7131  -3.5447  13.2901   O.3       1 RES1   0.0000
    50 O11      2.2135   2.7741  12.6213   O.3       1 RES1   0.0000
    51 O12      3.6628   1.6426  14.7947   O.3       1 RES1   0.0000
    52 C21     -1.6753   3.9621  15.3350   C.3       1 RES1   0.0000
    53 C22      4.9468   2.1203  15.0433   C.3       1 RES1   0.0000
    54 C23      2.9923   3.8625  12.4005   C.3       1 RES1   0.0000
    55 C24      5.5125   1.5938  11.5869   C.3       1 RES1   0.0000
    56 C25      3.6922  -4.4398  13.1348   C.3       1 RES1   0.0000
    57 C26      4.8494  -2.3520  10.6122   C.3       1 RES1   0.0000
    58 C27      4.7208  -1.1933  13.9381   C.3       1 RES1   0.0000
    59 H1      -4.7300  -0.1809   7.5473   H         1 RES1   0.0000
    60 H2      -6.1701   1.6344   6.8514   H         1 RES1   0.0000
    61 H3      -0.7329  -3.5209   6.7209   H         1 RES1   0.0000
    62 H4       1.0029  -4.3626   5.3982   H         1 RES1   0.0000
    63 H5       3.8318  -1.8804   7.1379   H         1 RES1   0.0000
    64 H6       3.2091  -3.5636   5.5364   H         1 RES1   0.0000
    65 H7      -3.8648   4.4296   8.8776   H         1 RES1   0.0000
    66 H8      -5.7275   3.8787   7.5370   H         1 RES1   0.0000
    67 H9       0.9148   6.0519   9.1411   H         1 RES1   0.0000
    68 H10      2.8674   6.8020   8.0359   H         1 RES1   0.0000
    69 H11      4.7282   5.3424   7.7135   H         1 RES1   0.0000
    70 H12      4.6492   3.0473   8.3404   H         1 RES1   0.0000
    71 H13      0.8229   5.9950  13.5671   H         1 RES1   0.0000
    72 H14     -0.6448   6.3324  12.9352   H         1 RES1   0.0000
    73 H15      0.6650   6.2511  11.9630   H         1 RES1   0.0000
    74 H16     -2.5588   3.7181  15.7264   H         1 RES1   0.0000
    75 H17     -1.0287   4.1674  16.0744   H         1 RES1   0.0000
    76 H18     -1.7708   4.7590  14.7440   H         1 RES1   0.0000
    77 H19      3.5838  -5.1554  13.8255   H         1 RES1   0.0000
    78 H20      4.5684  -3.9885  13.2499   H         1 RES1   0.0000
    79 H21      3.6242  -4.8403  12.2240   H         1 RES1   0.0000
    80 H22      5.0515  -0.5204  14.5982   H         1 RES1   0.0000
    81 H23      4.7043  -2.1000  14.3654   H         1 RES1   0.0000
    82 H24      5.3142  -1.2075  13.1399   H         1 RES1   0.0000
    83 H25      5.3068  -1.9821   9.8089   H         1 RES1   0.0000
    84 H26      5.4336  -2.3033  11.4053   H         1 RES1   0.0000
    85 H27      4.5978  -3.3156  10.4331   H         1 RES1   0.0000
    86 H28      2.3329   4.6289  16.5886   H         1 RES1   0.0000
    87 H29      1.0893   5.3018  15.7725   H         1 RES1   0.0000
    88 H30      2.5257   5.0781  15.0305   H         1 RES1   0.0000
    89 H31      5.5254   1.9353  14.2477   H         1 RES1   0.0000
    90 H32      5.3252   1.6466  15.8416   H         1 RES1   0.0000
    91 H33      4.9119   3.0981  15.2173   H         1 RES1   0.0000
    92 H34      2.4027   4.6390  12.1907   H         1 RES1   0.0000
    93 H35      3.5103   4.0536  13.2397   H         1 RES1   0.0000
    94 H36      3.6095   3.6775  11.6560   H         1 RES1   0.0000
    95 H37      5.8928   1.4942  10.6634   H         1 RES1   0.0000
    96 H38      6.0710   1.0815  12.2342   H         1 RES1   0.0000
    97 H39      5.5089   2.5614  11.8377   H         1 RES1   0.0000
    98 C1D      3.4313  -1.1303  16.9903   C.ar      1 RES1   0.0000
    99 C2D      4.5445  -0.7684  17.7808   C.ar      1 RES1   0.0000
   100 C3D      5.3711  -1.8215  18.1595   C.ar      1 RES1   0.0000
   101 C4D     -0.5290   2.1284  17.8908   C.ar      1 RES1   0.0000
   102 C5D     -0.1965   3.1632  18.7837   C.ar      1 RES1   0.0000
   103 C6D     -1.2050   3.6328  19.5307   C.ar      1 RES1   0.0000
   104 C7D     -1.8185   1.6751  17.7629   C.ar      1 RES1   0.0000
   105 C8D     -2.8894   2.1955  18.5458   C.ar      1 RES1   0.0000
   106 C9D     -2.5202   3.1733  19.4361   C.ar      1 RES1   0.0000
   107 C10D     3.1925  -2.4415  16.6193   C.ar      1 RES1   0.0000
   108 C11D     4.0393  -3.4884  16.9877   C.ar      1 RES1   0.0000
   109 C12D     5.0992  -3.1550  17.7578   C.ar      1 RES1   0.0000
   110 C13D    -1.6183  -4.0820  16.2586   C.ar      1 RES1   0.0000
   111 C14D    -1.6789  -5.4278  16.6270   C.ar      1 RES1   0.0000
   112 C15D    -2.8105  -5.8567  17.2384   C.ar      1 RES1   0.0000
   113 C16D    -3.9016  -4.9806  17.4457   C.ar      1 RES1   0.0000
   114 C17D    -3.8667  -3.6531  17.0926   C.ar      1 RES1   0.0000
   115 C18D    -2.6966  -3.2059  16.4939   C.ar      1 RES1   0.0000
   116 C19D    -0.2645  -5.8628  12.8022   C.3       1 RES1   0.0000
   117 O1D      0.0037  -4.4949  13.0040   O.3       1 RES1   0.0000
   118 C20D    -1.8773  -4.7021   9.8779   C.3       1 RES1   0.0000
   119 O2D     -1.4750  -3.4482  10.2970   O.3       1 RES1   0.0000
   120 O3D     -1.7893  -0.0049  13.9555   O.3       1 RES1   0.0000
   121 O4D     -1.1571  -1.0256  11.3076   O.3       1 RES1   0.0000
   122 O5D      0.6179  -1.9593  13.4203   O.3       1 RES1   0.0000
   123 N1D     -0.6190  -3.3543  15.6463   N.ar      1 RES1   0.0000
   124 N2D     -1.0911  -2.1081  15.5466   N.ar      1 RES1   0.0000
   125 N3D     -2.3200  -1.9882  16.0119   N.ar      1 RES1   0.0000
   126 N4D      2.4376  -0.3497  16.4814   N.ar      1 RES1   0.0000
   127 N5D      0.2370   1.4555  16.9629   N.ar      1 RES1   0.0000
   128 N6D     -1.8332   0.7074  16.7708   N.ar      1 RES1   0.0000
   129 N7D     -0.5860   0.6200  16.3412   N.ar      1 RES1   0.0000
   130 N8D      2.0610  -2.4232  15.8807   N.ar      1 RES1   0.0000
   131 N9D      1.6201  -1.1770  15.8290   N.ar      1 RES1   0.0000
   132 Cl1D    -3.1760  -2.5322   7.7274   Cl        1 RES1   0.0000
   133 Cl2D    -4.9212  -0.2769  16.9818   Cl        1 RES1   0.0000
   134 Cl3D     1.6958  -5.6374  15.4611   Cl        1 RES1   0.0000
   135 Fe1D    -2.1301  -1.7300   9.5653   Fe        1 RES1   0.0000
   136 Fe2D    -2.8573  -0.9880  12.4972   Fe        1 RES1   0.0000
   137 Fe3D    -2.3240   1.8723  13.3254   Fe        1 RES1   0.0000
   138 Fe4D    -3.3086  -0.1535  15.4731   Fe        1 RES1   0.0000
   139 Fe5D    -0.0112  -0.5070  14.5682   Fe        1 RES1   0.0000
   140 Fe6D     1.1168  -3.7257  14.4408   Fe        1 RES1   0.0000
   141 Fe7D    -0.5272  -2.8718  11.9600   Fe        1 RES1   0.0000
   142 O6D      1.1855  -2.8786  10.9998   O.3       1 RES1   0.0000
   143 O7D     -3.7162   1.6580  14.7450   O.3       1 RES1   0.0000
   144 O8D     -3.4019   0.8457  12.0416   O.3       1 RES1   0.0000
   145 O9D     -4.2138  -1.1039  13.9785   O.3       1 RES1   0.0000
   146 O10D    -2.7131   3.5447  12.2938   O.3       1 RES1   0.0000
   147 O11D    -2.2135  -2.7741  12.9626   O.3       1 RES1   0.0000
   148 O12D    -3.6628  -1.6426  10.7892   O.3       1 RES1   0.0000
   149 C21D     1.6753  -3.9621  10.2489   C.3       1 RES1   0.0000
   150 C22D    -4.9468  -2.1203  10.5406   C.3       1 RES1   0.0000
   151 C23D    -2.9923  -3.8625  13.1834   C.3       1 RES1   0.0000
   152 C24D    -5.5125  -1.5938  13.9970   C.3       1 RES1   0.0000
   153 C25D    -3.6922   4.4398  12.4491   C.3       1 RES1   0.0000
   154 C26D    -4.8494   2.3520  14.9717   C.3       1 RES1   0.0000
   155 C27D    -4.7208   1.1933  11.6458   C.3       1 RES1   0.0000
   156 H1D      4.7300   0.1809  18.0366   H         1 RES1   0.0000
   157 H2D      6.1701  -1.6344  18.7325   H         1 RES1   0.0000
   158 H3D      0.7329   3.5209  18.8630   H         1 RES1   0.0000
   159 H4D     -1.0029   4.3626  20.1857   H         1 RES1   0.0000
   160 H5D     -3.8318   1.8804  18.4460   H         1 RES1   0.0000
   161 H6D     -3.2091   3.5636  20.0475   H         1 RES1   0.0000
   162 H7D      3.8648  -4.4296  16.7063   H         1 RES1   0.0000
   163 H8D      5.7275  -3.8787  18.0469   H         1 RES1   0.0000
   164 H9D     -0.9148  -6.0519  16.4428   H         1 RES1   0.0000
   165 H10D    -2.8674  -6.8020  17.5480   H         1 RES1   0.0000
   166 H11D    -4.7282  -5.3424  17.8704   H         1 RES1   0.0000
   167 H12D    -4.6492  -3.0473  17.2435   H         1 RES1   0.0000
   168 H13D    -0.8229  -5.9950  12.0168   H         1 RES1   0.0000
   169 H14D     0.6448  -6.3324  12.6487   H         1 RES1   0.0000
   170 H15D    -0.6650  -6.2511  13.6209   H         1 RES1   0.0000
   171 H16D     2.5588  -3.7181   9.8575   H         1 RES1   0.0000
   172 H17D     1.0287  -4.1674   9.5095   H         1 RES1   0.0000
   173 H18D     1.7708  -4.7590  10.8399   H         1 RES1   0.0000
   174 H19D    -3.5838   5.1554  11.7584   H         1 RES1   0.0000
   175 H20D    -4.5684   3.9885  12.3340   H         1 RES1   0.0000
   176 H21D    -3.6242   4.8403  13.3599   H         1 RES1   0.0000
   177 H22D    -5.0515   0.5204  10.9857   H         1 RES1   0.0000
   178 H23D    -4.7043   2.1000  11.2185   H         1 RES1   0.0000
   179 H24D    -5.3142   1.2075  12.4440   H         1 RES1   0.0000
   180 H25D    -5.3068   1.9821  15.7750   H         1 RES1   0.0000
   181 H26D    -5.4336   2.3033  14.1786   H         1 RES1   0.0000
   182 H27D    -4.5978   3.3156  15.1508   H         1 RES1   0.0000
   183 H28D    -2.3329  -4.6289   8.9953   H         1 RES1   0.0000
   184 H29D    -1.0893  -5.3018   9.8114   H         1 RES1   0.0000
   185 H30D    -2.5257  -5.0781  10.5534   H         1 RES1   0.0000
   186 H31D    -5.5254  -1.9353  11.3362   H         1 RES1   0.0000
   187 H32D    -5.3252  -1.6466   9.7423   H         1 RES1   0.0000
   188 H33D    -4.9119  -3.0981  10.3666   H         1 RES1   0.0000
   189 H34D    -2.4027  -4.6390  13.3932   H         1 RES1   0.0000
   190 H35D    -3.5103  -4.0536  12.3442   H         1 RES1   0.0000
   191 H36D    -3.6095  -3.6775  13.9279   H         1 RES1   0.0000
   192 H37D    -5.8928  -1.4942  14.9205   H         1 RES1   0.0000
   193 H38D    -6.0710  -1.0815  13.3497   H         1 RES1   0.0000
   194 H39D    -5.5089  -2.5614  13.7462   H         1 RES1   0.0000
   195 Cl4      9.1612   1.9048   6.1491   Cl        2 RES2   0.0000
   196 Cl5      7.8785   3.1770   8.3521   Cl        2 RES2   0.0000
   197 C28      7.7866   2.2829   6.9921   C.3       2 RES2   0.0000
   198 H40      7.3586   1.4149   7.2479   H         2 RES2   0.0000
   199 H41      7.1878   2.7769   6.3627   H         2 RES2   0.0000
@<TRIPOS>BOND
     1     1     2   ar
     2     2     3   ar
     3     3    12   ar
     4     4     5   ar
     5     5     6   ar
     6     6     9   ar
     7     7     4   ar
     8     8     7   ar
     9     9     8   ar
    10    10     1   ar
    11    11    10   ar
    12    12    11   ar
    13    13    14   ar
    14    14    15   ar
    15    15    16   ar
    16    16    17   ar
    17    17    18   ar
    18    18    13   ar
    19    19    20    1
    20    20    43    1
    21    21    22    1
    22    22    38    1
    23    23    39    1
    24    24    38    1
    25    25    42    1
    26    26    13   ar
    27    27    26   ar
    28    28    18   ar
    29    29     1   ar
    30    30     4   ar
    31    31     7   ar
    32    32    30   ar
    33    33    10   ar
    34    34    29   ar
    35    35    38    1
    36    36    41    1
    37    37    43    1
    38    38    51    1
    39    39    24    1
    40    40    23    1
    41    41    23    1
    42    42    23    1
    43    43    25    1
    44    44    20    1
    45    45    44    1
    46    46    40    1
    47    47    39    1
    48    48    39    1
    49    49    40    1
    50    50    39    1
    51    51    39    1
    52    52    45    1
    53    53    51    1
    54    54    50    1
    55    55    48    1
    56    56    49    1
    57    57    46    1
    58    58    47    1
    59    59     2    1
    60    60     3    1
    61    61     5    1
    62    62     6    1
    63    63     8    1
    64    64     9    1
    65    65    11    1
    66    66    12    1
    67    67    14    1
    68    68    15    1
    69    69    16    1
    70    70    17    1
    71    71    19    1
    72    72    19    1
    73    73    19    1
    74    74    52    1
    75    75    52    1
    76    76    52    1
    77    77    56    1
    78    78    56    1
    79    79    56    1
    80    80    58    1
    81    81    58    1
    82    82    58    1
    83    83    57    1
    84    84    57    1
    85    85    57    1
    86    86    21    1
    87    87    21    1
    88    88    21    1
    89    89    53    1
    90    90    53    1
    91    91    53    1
    92    92    54    1
    93    93    54    1
    94    94    54    1
    95    95    55    1
    96    96    55    1
    97    97    55    1
    98    98    99   ar
    99    99   100   ar
   100   100   109   ar
   101   101   102   ar
   102   102   103   ar
   103   103   106   ar
   104   104   101   ar
   105   105   104   ar
   106   106   105   ar
   107   107    98   ar
   108   108   107   ar
   109   109   108   ar
   110   110   111   ar
   111   111   112   ar
   112   112   113   ar
   113   113   114   ar
   114   114   115   ar
   115   115   110   ar
   116   116   117    1
   117   117   140    1
   118   118   119    1
   119   119   135    1
   120   120   136    1
   121   121    42    1
   122   122    40    1
   123   123   110   ar
   124   124   123   ar
   125   125   115   ar
   126   126    38    1
   127   127    38    1
   128   128   104   ar
   129   129   127   ar
   130   130   107   ar
   131   131   126   ar
   132   132   135    1
   133   133   138    1
   134   134   140    1
   135   135    29    1
   136   136   121    1
   137   137    25    1
   138   138   120    1
   139   139    24    1
   140   140    49    1
   141   141   117    1
   142   142    40    1
   143   143   137    1
   144   144   136    1
   145   145   136    1
   146   146    43    1
   147   147   136    1
   148   148   135    1
   149   149   142    1
   150   150   148    1
   151   151   147    1
   152   152   145    1
   153   153   146    1
   154   154   143    1
   155   155   144    1
   156   156    99    1
   157   157   100    1
   158   158   102    1
   159   159   103    1
   160   160   105    1
   161   161   106    1
   162   162   108    1
   163   163   109    1
   164   164   111    1
   165   165   112    1
   166   166   113    1
   167   167   114    1
   168   168   116    1
   169   169   116    1
   170   170   116    1
   171   171   149    1
   172   172   149    1
   173   173   149    1
   174   174   153    1
   175   175   153    1
   176   176   153    1
   177   177   155    1
   178   178   155    1
   179   179   155    1
   180   180   154    1
   181   181   154    1
   182   182   154    1
   183   183   118    1
   184   184   118    1
   185   185   118    1
   186   186   150    1
   187   187   150    1
   188   188   150    1
   189   189   151    1
   190   190   151    1
   191   191   151    1
   192   192   152    1
   193   193   152    1
   194   194   152    1
   195    22    44    1
   196    24    44    1
   197    25    44    1
   198    26    43    1
   199    27    28   ar
   200    27    42    1
   201    28    41    1
   202    30   135    1
   203    31    32   ar
   204    31    41    1
   205    32    42    1
   206    33    34   ar
   207    33    43    1
   208    34    42    1
   209    40    47    1
   210    41    46    1
   211    41    48    1
   212    44    50    1
   213    45   137    1
   214    98   126   ar
   215   101   127   ar
   216   119   141    1
   217   120   137    1
   218   120   139    1
   219   121   135    1
   220   121   141    1
   221   122   139    1
   222   122   140    1
   223   122   141    1
   224   123   140    1
   225   124   125   ar
   226   124   139    1
   227   125   138    1
   228   128   129   ar
   229   128   138    1
   230   129   139    1
   231   130   131   ar
   232   130   140    1
   233   131   139    1
   234   136   148    1
   235   137   144    1
   236   137   146    1
   237   138   143    1
   238   138   145    1
   239   141   142    1
   240   141   147    1
   241   195   197    1
   242   196   197    1
   243   197   198    1
   244   199   197    1
@<TRIPOS>SUBSTRUCTURE
     1 RES1        1 GROUP             0 ****  ****    0  
     2 RES2      195 GROUP             0 ****  ****    0  
@<TRIPOS>CRYSIN
   18.3690   20.3288   25.5839   90.0000   90.0000   90.0000    61     1
