@<TRIPOS>MOLECULE
DUZJAM
   183   191     1     0     0
SMALL
NO_CHARGES
****
Generated from the CSD

@<TRIPOS>ATOM
     1 Fe1      4.6126   4.7184  19.2387   Fe        1 RES1   0.0000
     2 P1       3.3575   3.5243  20.8669   P.3       1 RES1   0.0000
     3 P2       5.0678   5.5365  21.4260   P.3       1 RES1   0.0000
     4 P3       4.7513   3.6668  22.5892   P.3       1 RES1   0.0000
     5 P4       3.1268   5.1203  22.4062   P.3       1 RES1   0.0000
     6 N1       2.3375   6.7042  19.0221   N.1       1 RES1   0.0000
     7 O1       3.6176   3.2966  16.8326   O.2       1 RES1   0.0000
     8 N2       6.7817   2.6275  19.6063   N.1       1 RES1   0.0000
     9 O2       6.4424   6.6739  17.9504   O.2       1 RES1   0.0000
    10 C1       1.8832   8.7559  20.9769   C.ar      1 RES1   0.0000
    11 C2       8.1946   1.0062  20.7241   C.ar      1 RES1   0.0000
    12 C3       7.8541   1.7257  19.5730   C.ar      1 RES1   0.0000
    13 C4       8.0289   2.1874  17.0888   C.ar      1 RES1   0.0000
    14 C5       8.5236   1.5464  18.3474   C.ar      1 RES1   0.0000
    15 C6       3.1457   8.8656  23.4876   C.ar      1 RES1   0.0000
    16 C7       3.8038   9.2540  22.3250   C.ar      1 RES1   0.0000
    17 H1       4.6987   9.5655  22.3937   H         1 RES1   0.0000
    18 C8       7.4200   1.0597  22.0025   C.ar      1 RES1   0.0000
    19 C9       7.9588   1.7320  23.1128   C.ar      1 RES1   0.0000
    20 C10      1.8362   8.4185  23.3676   C.ar      1 RES1   0.0000
    21 H2       1.3690   8.1454  24.1483   H         1 RES1   0.0000
    22 C11      2.5932   7.8062  15.1945   C.3       1 RES1   0.0000
    23 H3       2.0392   8.5901  15.4748   H         1 RES1   0.0000
    24 C12      3.2164   9.2077  21.0730   C.ar      1 RES1   0.0000
    25 C13      1.4005   7.7103  18.7236   C.ar      1 RES1   0.0000
    26 C14      0.8958   6.4757  16.5775   C.ar      1 RES1   0.0000
    27 C15      6.9958   1.5423  16.3698   C.ar      1 RES1   0.0000
    28 C16      9.1858   2.6313  22.9763   C.3       1 RES1   0.0000
    29 H4       9.6547   2.3758  22.1307   H         1 RES1   0.0000
    30 C17      9.2977   0.1449  20.6443   C.ar      1 RES1   0.0000
    31 H5       9.5659  -0.3412  21.4152   H         1 RES1   0.0000
    32 C18      0.7285   7.6464  17.4936   C.ar      1 RES1   0.0000
    33 C19      3.9653   9.6715  19.8273   C.3       1 RES1   0.0000
    34 H6       3.6259   9.1338  19.0554   H         1 RES1   0.0000
    35 C20      8.5796   3.3943  16.6235   C.ar      1 RES1   0.0000
    36 C21      1.1865   8.3585  22.1338   C.ar      1 RES1   0.0000
    37 C22      8.0841   3.9259  15.4350   C.ar      1 RES1   0.0000
    38 H7       8.4547   4.7379  15.1100   H         1 RES1   0.0000
    39 C23      3.8742   7.8279  16.0267   C.3       1 RES1   0.0000
    40 H8       3.6473   7.7600  16.9775   H         1 RES1   0.0000
    41 H9       4.3543   8.6671  15.8648   H         1 RES1   0.0000
    42 H10      4.4427   7.0720  15.7712   H         1 RES1   0.0000
    43 C24     -0.2641   7.8765  22.0749   C.3       1 RES1   0.0000
    44 H11     -0.5779   7.9664  21.1297   H         1 RES1   0.0000
    45 C25     -0.3863   9.7059  18.0863   C.ar      1 RES1   0.0000
    46 H12     -0.9960  10.3996  17.8636   H         1 RES1   0.0000
    47 C26      6.1558   0.8745  24.4980   C.ar      1 RES1   0.0000
    48 C27      9.6037   0.6741  18.3202   C.ar      1 RES1   0.0000
    49 H13     10.0780   0.5426  17.5077   H         1 RES1   0.0000
    50 C28      1.7773   6.5396  15.4807   C.ar      1 RES1   0.0000
    51 C29      1.1869   8.7339  19.6498   C.ar      1 RES1   0.0000
    52 C30      1.9124   5.4189  14.6709   C.ar      1 RES1   0.0000
    53 H14      2.5041   5.4558  13.9286   H         1 RES1   0.0000
    54 C31      0.2722   9.7357  19.3006   C.ar      1 RES1   0.0000
    55 H15      0.1020  10.4463  19.9079   H         1 RES1   0.0000
    56 C32     10.0027  -0.0108  19.4649   C.ar      1 RES1   0.0000
    57 H16     10.7589  -0.5850  19.4357   H         1 RES1   0.0000
    58 C33      5.9575   3.4385  19.4715   C.1       1 RES1   0.0000
    59 C34      9.7112   4.0851  17.3783   C.3       1 RES1   0.0000
    60 H17      9.6427   3.8165  18.3391   H         1 RES1   0.0000
    61 C35     -0.1650   8.6761  17.1936   C.ar      1 RES1   0.0000
    62 H18     -0.6274   8.6681  16.3637   H         1 RES1   0.0000
    63 C36      6.5498   2.1242  15.1885   C.ar      1 RES1   0.0000
    64 H19      5.8645   1.6895  14.6946   H         1 RES1   0.0000
    65 C37      6.4192   0.2065  16.8357   C.3       1 RES1   0.0000
    66 H20      6.5289   0.1502  17.8279   H         1 RES1   0.0000
    67 C38      3.8790   8.9049  24.8172   C.3       1 RES1   0.0000
    68 H21      4.4918   9.6947  24.7892   H         1 RES1   0.0000
    69 C39      0.3346   4.2146  15.9868   C.ar      1 RES1   0.0000
    70 H22     -0.1549   3.4194  16.1620   H         1 RES1   0.0000
    71 C40      7.0689   3.3162  14.7042   C.ar      1 RES1   0.0000
    72 C41      0.1482   5.3100  16.8200   C.ar      1 RES1   0.0000
    73 C42      3.6683  11.1468  19.5271   C.3       1 RES1   0.0000
    74 H23      2.7071  11.2608  19.3728   H         1 RES1   0.0000
    75 H24      4.1626  11.4228  18.7275   H         1 RES1   0.0000
    76 H25      3.9446  11.6967  20.2891   H         1 RES1   0.0000
    77 C43      6.5343   3.9469  13.4236   C.3       1 RES1   0.0000
    78 H26      5.8187   3.3425  13.0731   H         1 RES1   0.0000
    79 C44      1.2022   4.2356  14.9155   C.ar      1 RES1   0.0000
    80 C45      6.2253   0.3229  22.1236   C.ar      1 RES1   0.0000
    81 C46      3.2045   5.9394  19.1333   C.1       1 RES1   0.0000
    82 C47     10.1776   2.4617  24.1221   C.3       1 RES1   0.0000
    83 H27      9.7557   2.7368  24.9628   H         1 RES1   0.0000
    84 H28     10.9672   3.0179  23.9557   H         1 RES1   0.0000
    85 H29     10.4476   1.5217  24.1844   H         1 RES1   0.0000
    86 C48      7.3124   1.6218  24.3395   C.ar      1 RES1   0.0000
    87 H30      7.6751   2.0736  25.0925   H         1 RES1   0.0000
    88 C49     -0.8662   5.2358  17.9512   C.3       1 RES1   0.0000
    89 H31     -0.9237   6.1407  18.3730   H         1 RES1   0.0000
    90 C50      5.6175   0.2528  23.3772   C.ar      1 RES1   0.0000
    91 H32      4.8086  -0.2375  23.4683   H         1 RES1   0.0000
    92 C51      5.6337  -0.4255  20.9362   C.3       1 RES1   0.0000
    93 H33      5.9048   0.0722  20.1123   H         1 RES1   0.0000
    94 C52      2.9365   7.9911  13.7183   C.3       1 RES1   0.0000
    95 H34      3.2898   8.8945  13.5759   H         1 RES1   0.0000
    96 H35      2.1298   7.8668  13.1768   H         1 RES1   0.0000
    97 H36      3.6122   7.3317  13.4550   H         1 RES1   0.0000
    98 C53      7.6084   4.0474  12.3449   C.3       1 RES1   0.0000
    99 H37      8.3178   4.6516  12.6459   H         1 RES1   0.0000
   100 H38      7.2099   4.3958  11.5198   H         1 RES1   0.0000
   101 H39      7.9848   3.1587  12.1756   H         1 RES1   0.0000
   102 C54      5.8849   5.2892  13.7166   C.3       1 RES1   0.0000
   103 H40      5.1473   5.1640  14.3497   H         1 RES1   0.0000
   104 H41      5.5392   5.6737  12.8842   H         1 RES1   0.0000
   105 H42      6.5494   5.8956  14.1054   H         1 RES1   0.0000
   106 C55      2.9860   9.0807  26.0296   C.3       1 RES1   0.0000
   107 H43      2.4150   9.8672  25.9036   H         1 RES1   0.0000
   108 H44      3.5399   9.2036  26.8284   H         1 RES1   0.0000
   109 H45      2.4251   8.2845  26.1403   H         1 RES1   0.0000
   110 C56     -2.2586   4.8685  17.4314   C.3       1 RES1   0.0000
   111 H46     -2.5355   5.5175  16.7516   H         1 RES1   0.0000
   112 H47     -2.8981   4.8799  18.1739   H         1 RES1   0.0000
   113 H48     -2.2336   3.9719  17.0359   H         1 RES1   0.0000
   114 C57      9.6360   5.6126  17.3172   C.3       1 RES1   0.0000
   115 H49      9.7985   5.9115  16.3981   H         1 RES1   0.0000
   116 H50     10.3147   5.9974  17.9104   H         1 RES1   0.0000
   117 H51      8.7465   5.9080  17.6040   H         1 RES1   0.0000
   118 C58      5.7487   5.9047  18.4462   C.1       1 RES1   0.0000
   119 C59      1.3335   3.0191  14.0138   C.3       1 RES1   0.0000
   120 H52      1.1188   2.2169  14.5718   H         1 RES1   0.0000
   121 C60      3.9878   3.8354  17.7687   C.1       1 RES1   0.0000
   122 C61      5.4725   9.4387  19.9208   C.3       1 RES1   0.0000
   123 H53      5.8572  10.0523  20.5813   H         1 RES1   0.0000
   124 H54      5.8830   9.6020  19.0459   H         1 RES1   0.0000
   125 H55      5.6440   8.5140  20.1949   H         1 RES1   0.0000
   126 C62      6.2171  -1.8290  20.8231   C.3       1 RES1   0.0000
   127 H56      7.1954  -1.7746  20.7821   H         1 RES1   0.0000
   128 H57      5.8806  -2.2592  20.0093   H         1 RES1   0.0000
   129 H58      5.9529  -2.3578  21.6050   H         1 RES1   0.0000
   130 C63      5.4821   0.7834  25.8686   C.3       1 RES1   0.0000
   131 H59      6.0816   1.2434  26.5234   H         1 RES1   0.0000
   132 C64     -0.4350   4.2405  19.0290   C.3       1 RES1   0.0000
   133 H60     -0.4597   3.3313  18.6629   H         1 RES1   0.0000
   134 H61     -1.0461   4.3008  19.7930   H         1 RES1   0.0000
   135 H62      0.4761   4.4496  19.3221   H         1 RES1   0.0000
   136 C65      4.1085  -0.4851  20.9409   C.3       1 RES1   0.0000
   137 H63      3.8059  -1.0523  21.6801   H         1 RES1   0.0000
   138 H64      3.7935  -0.8583  20.0916   H         1 RES1   0.0000
   139 H65      3.7468   0.4193  21.0542   H         1 RES1   0.0000
   140 C66      8.7584   4.0961  22.8437   C.3       1 RES1   0.0000
   141 H66      8.1264   4.1853  22.0995   H         1 RES1   0.0000
   142 H67      9.5459   4.6521  22.6725   H         1 RES1   0.0000
   143 H68      8.3267   4.3863  23.6745   H         1 RES1   0.0000
   144 C67      7.1723  -0.9467  16.2138   C.3       1 RES1   0.0000
   145 H69      7.0682  -0.9192  15.2399   H         1 RES1   0.0000
   146 H70      6.8163  -1.7933  16.5565   H         1 RES1   0.0000
   147 H71      8.1236  -0.8774  16.4422   H         1 RES1   0.0000
   148 C68     -0.3726   6.3992  22.4670   C.3       1 RES1   0.0000
   149 H72      0.1575   5.8575  21.8460   H         1 RES1   0.0000
   150 H73     -1.3104   6.1192  22.4271   H         1 RES1   0.0000
   151 H74     -0.0332   6.2780  23.3782   H         1 RES1   0.0000
   152 C69      0.3074   3.0630  12.8851   C.3       1 RES1   0.0000
   153 H75     -0.5962   3.0780  13.2648   H         1 RES1   0.0000
   154 H76      0.4103   2.2703  12.3184   H         1 RES1   0.0000
   155 H77      0.4484   3.8699  12.3468   H         1 RES1   0.0000
   156 C70      4.7595   7.6599  24.9597   C.3       1 RES1   0.0000
   157 H78      4.1940   6.8605  24.9796   H         1 RES1   0.0000
   158 H79      5.2740   7.7179  25.7919   H         1 RES1   0.0000
   159 H80      5.3748   7.6068  24.1986   H         1 RES1   0.0000
   160 C71     -1.1705   8.7212  22.9455   C.3       1 RES1   0.0000
   161 H81     -0.8995   8.6313  23.8829   H         1 RES1   0.0000
   162 H82     -2.0970   8.4170  22.8431   H         1 RES1   0.0000
   163 H83     -1.1032   9.6599  22.6739   H         1 RES1   0.0000
   164 C72     11.0748   3.6329  16.8681   C.3       1 RES1   0.0000
   165 H84     11.1415   2.6571  16.9368   H         1 RES1   0.0000
   166 H85     11.7793   4.0471  17.4081   H         1 RES1   0.0000
   167 H86     11.1789   3.9020  15.9318   H         1 RES1   0.0000
   168 C73      2.7053   2.8197  13.4750   C.3       1 RES1   0.0000
   169 H87      2.9328   3.5644  12.8798   H         1 RES1   0.0000
   170 H88      2.7404   1.9785  12.9743   H         1 RES1   0.0000
   171 H89      3.3450   2.7866  14.2163   H         1 RES1   0.0000
   172 C74      4.9394   0.0487  16.5129   C.3       1 RES1   0.0000
   173 H90      4.4475   0.8296  16.8458   H         1 RES1   0.0000
   174 H91      4.5948  -0.7609  16.9448   H         1 RES1   0.0000
   175 H92      4.8211  -0.0220  15.5433   H         1 RES1   0.0000
   176 C75      5.3392  -0.6861  26.3337   C.3       1 RES1   0.0000
   177 H93      4.7196  -1.1574  25.7396   H         1 RES1   0.0000
   178 H94      4.9940  -0.7056  27.2502   H         1 RES1   0.0000
   179 H95      6.2163  -1.1233  26.3054   H         1 RES1   0.0000
   180 C76      4.1549   1.5433  25.8582   C.3       1 RES1   0.0000
   181 H96      4.2932   2.4353  25.4759   H         1 RES1   0.0000
   182 H97      3.8211   1.6294  26.7755   H         1 RES1   0.0000
   183 H98      3.5021   1.0533  25.3169   H         1 RES1   0.0000
@<TRIPOS>BOND
     1     1     2    1
     2     2     4    1
     3     3     1    1
     4     4     3    1
     5     5     2    1
     6     6    25    1
     7     7   121    3
     8     8    12    1
     9     9   118    3
    10    10    24   ar
    11    11    12   ar
    12    12    14   ar
    13    13    14    1
    14    14    48   ar
    15    15    16   ar
    16    16    17    1
    17    18    11    1
    18    19    18   ar
    19    20    15   ar
    20    21    20    1
    21    22    23    1
    22    24    16   ar
    23    25    32   ar
    24    26    32    1
    25    27    13   ar
    26    28    19    1
    27    29    28    1
    28    30    11   ar
    29    31    30    1
    30    32    61   ar
    31    33    24    1
    32    34    33    1
    33    35    13   ar
    34    36    10   ar
    35    37    35   ar
    36    38    37    1
    37    39    22    1
    38    40    39    1
    39    41    39    1
    40    42    39    1
    41    43    36    1
    42    44    43    1
    43    45    46    1
    44    47    86   ar
    45    48    49    1
    46    50    22    1
    47    51    10    1
    48    52    50   ar
    49    53    52    1
    50    54    45   ar
    51    55    54    1
    52    56    30   ar
    53    57    56    1
    54    58     1    1
    55    59    35    1
    56    60    59    1
    57    61    45   ar
    58    62    61    1
    59    63    27   ar
    60    64    63    1
    61    65    27    1
    62    66    65    1
    63    67    15    1
    64    68    67    1
    65    69    70    1
    66    71    37   ar
    67    72    26   ar
    68    73    33    1
    69    74    73    1
    70    75    73    1
    71    76    73    1
    72    77    71    1
    73    78    77    1
    74    79    52   ar
    75    80    18   ar
    76    81     1    1
    77    82    28    1
    78    83    82    1
    79    84    82    1
    80    85    82    1
    81    86    19   ar
    82    87    86    1
    83    88    72    1
    84    89    88    1
    85    90    47   ar
    86    91    90    1
    87    92    80    1
    88    93    92    1
    89    94    22    1
    90    95    94    1
    91    96    94    1
    92    97    94    1
    93    98    77    1
    94    99    98    1
    95   100    98    1
    96   101    98    1
    97   102    77    1
    98   103   102    1
    99   104   102    1
   100   105   102    1
   101   106    67    1
   102   107   106    1
   103   108   106    1
   104   109   106    1
   105   110    88    1
   106   111   110    1
   107   112   110    1
   108   113   110    1
   109   114    59    1
   110   115   114    1
   111   116   114    1
   112   117   114    1
   113   118     1    1
   114   119    79    1
   115   120   119    1
   116   121     1    1
   117   122    33    1
   118   123   122    1
   119   124   122    1
   120   125   122    1
   121   126    92    1
   122   127   126    1
   123   128   126    1
   124   129   126    1
   125   130    47    1
   126   131   130    1
   127   132    88    1
   128   133   132    1
   129   134   132    1
   130   135   132    1
   131   136    92    1
   132   137   136    1
   133   138   136    1
   134   139   136    1
   135   140    28    1
   136   141   140    1
   137   142   140    1
   138   143   140    1
   139   144    65    1
   140   145   144    1
   141   146   144    1
   142   147   144    1
   143   148    43    1
   144   149   148    1
   145   150   148    1
   146   151   148    1
   147   152   119    1
   148   153   152    1
   149   154   152    1
   150   155   152    1
   151   156    67    1
   152   157   156    1
   153   158   156    1
   154   159   156    1
   155   160    43    1
   156   161   160    1
   157   162   160    1
   158   163   160    1
   159   164    59    1
   160   165   164    1
   161   166   164    1
   162   167   164    1
   163   168   119    1
   164   169   168    1
   165   170   168    1
   166   171   168    1
   167   172    65    1
   168   173   172    1
   169   174   172    1
   170   175   172    1
   171   176   130    1
   172   177   176    1
   173   178   176    1
   174   179   176    1
   175   180   130    1
   176   181   180    1
   177   182   180    1
   178   183   180    1
   179     3     5    1
   180     4     5    1
   181     6    81    3
   182     8    58    3
   183    20    36   ar
   184    25    51   ar
   185    26    50   ar
   186    48    56   ar
   187    51    54   ar
   188    63    71   ar
   189    69    72   ar
   190    69    79   ar
   191    80    90   ar
@<TRIPOS>SUBSTRUCTURE
     1 RES1        1 GROUP             0 ****  ****    0  
@<TRIPOS>CRYSIN
   17.7725   15.6997   28.0844   90.0000  101.5380   90.0000   231     1
