@<TRIPOS>MOLECULE
ECOHOT
   104   114     2     0     0
SMALL
USER_CHARGES
****
Generated from the CSD

@<TRIPOS>ATOM
     1 Fe1      4.2807  10.1709  16.4570   Fe        1 RES1   2.0000
     2 N1       4.6602   9.2564  18.1736   N.ar      1 RES1   0.0000
     3 N2       5.0154  11.7711  17.4323   N.3       1 RES1   0.0000
     4 H1       5.5773  12.2169  16.8721   H         1 RES1   0.0000
     5 N3       2.4754  10.9024  16.9022   N.3       1 RES1   0.0000
     6 N4       4.1121  11.0995  14.8682   N.2       1 RES1   0.0000
     7 N5       5.9580   9.6096  15.6146   N.ar      1 RES1   0.0000
     8 N6       3.2060   8.6880  15.7787   N.ar      1 RES1   0.0000
     9 O1       0.2623   9.9668  17.2473   O.3       1 RES1   0.0000
    10 C1       4.3708   7.9888  18.5252   C.ar      1 RES1   0.0000
    11 H2       3.9200   7.4541  17.9115   H         1 RES1   0.0000
    12 C2       4.7010   7.4481  19.7255   C.ar      1 RES1   0.0000
    13 H3       4.4838   6.5662  19.9258   H         1 RES1   0.0000
    14 C3       5.3594   8.2279  20.6314   C.ar      1 RES1   0.0000
    15 H4       5.5824   7.8890  21.4675   H         1 RES1   0.0000
    16 C4       5.6843   9.5123  20.2949   C.ar      1 RES1   0.0000
    17 H5       6.1408  10.0530  20.8981   H         1 RES1   0.0000
    18 C5       5.3365   9.9941  19.0715   C.ar      1 RES1   0.0000
    19 C6       5.7803  11.3265  18.5980   C.3       1 RES1   0.0000
    20 H6       5.6750  11.9717  19.3135   H         1 RES1   0.0000
    21 H7       6.7216  11.2869  18.3681   H         1 RES1   0.0000
    22 C7       3.8879  12.6782  17.7869   C.3       1 RES1   0.0000
    23 H8       3.7240  13.3006  17.0628   H         1 RES1   0.0000
    24 H9       4.1091  13.1865  18.5829   H         1 RES1   0.0000
    25 C8       2.6589  11.8420  18.0356   C.3       1 RES1   0.0000
    26 H10      2.7590  11.3458  18.8623   H         1 RES1   0.0000
    27 H11      1.8807  12.4163  18.1183   H         1 RES1   0.0000
    28 C9       1.9034  11.5740  15.6807   C.3       1 RES1   0.0000
    29 H12      1.4022  12.3586  15.9536   H         1 RES1   0.0000
    30 H13      1.2872  10.9661  15.2418   H         1 RES1   0.0000
    31 C10      2.9777  11.9886  14.6947   C.3       1 RES1   0.0000
    32 H14      2.6410  11.9261  13.7861   H         1 RES1   0.0000
    33 H15      3.2446  12.9065  14.8604   H         1 RES1   0.0000
    34 C11      5.0131  10.9433  13.9639   C.2       1 RES1   0.0000
    35 H16      4.9702  11.3554  13.1308   H         1 RES1   0.0000
    36 C12      6.0848  10.0854  14.3461   C.ar      1 RES1   0.0000
    37 C13      7.1499   9.7466  13.5382   C.ar      1 RES1   0.0000
    38 H17      7.2024  10.0782  12.6715   H         1 RES1   0.0000
    39 C14      8.1303   8.9199  14.0206   C.ar      1 RES1   0.0000
    40 H18      8.8539   8.6796  13.4880   H         1 RES1   0.0000
    41 C15      8.0233   8.4550  15.3055   C.ar      1 RES1   0.0000
    42 H19      8.6823   7.9059  15.6635   H         1 RES1   0.0000
    43 C16      6.9321   8.8106  16.0562   C.ar      1 RES1   0.0000
    44 H20      6.8668   8.4766  16.9204   H         1 RES1   0.0000
    45 C17      1.6311   9.7322  17.2443   C.3       1 RES1   0.0000
    46 H21      1.8947   9.4017  18.1290   H         1 RES1   0.0000
    47 C18      1.9355   8.6772  16.2259   C.ar      1 RES1   0.0000
    48 C19      1.0110   7.7665  15.7776   C.ar      1 RES1   0.0000
    49 H22      0.1405   7.7773  16.1066   H         1 RES1   0.0000
    50 C20      1.3869   6.8401  14.8373   C.ar      1 RES1   0.0000
    51 H23      0.7692   6.2286  14.5059   H         1 RES1   0.0000
    52 C21      2.6762   6.8293  14.3966   C.ar      1 RES1   0.0000
    53 H24      2.9573   6.1973  13.7727   H         1 RES1   0.0000
    54 C22      3.5520   7.7569  14.8825   C.ar      1 RES1   0.0000
    55 H25      4.4306   7.7413  14.5757   H         1 RES1   0.0000
    56 C23     -0.2818  10.4903  18.4578   C.3       1 RES1   0.0000
    57 H26      0.1830  10.1118  19.2087   H         1 RES1   0.0000
    58 H27     -1.2141  10.2656  18.5131   H         1 RES1   0.0000
    59 H28     -0.1813  11.4443  18.4675   H         1 RES1   0.0000
    60 B1       7.0576   3.6189  16.9312   B         2 RES2  -1.0000
    61 C24      5.7976   3.7259  17.9905   C.ar      2 RES2   0.0000
    62 C25      4.5205   4.1139  17.6252   C.ar      2 RES2   0.0000
    63 H29      4.3647   4.3230  16.7324   H         2 RES2   0.0000
    64 C26      3.4628   4.2101  18.5077   C.ar      2 RES2   0.0000
    65 H30      2.6233   4.4624  18.1989   H         2 RES2   0.0000
    66 C27      3.6451   3.9349  19.8305   C.ar      2 RES2   0.0000
    67 H31      2.9361   3.9890  20.4308   H         2 RES2   0.0000
    68 C28      4.8909   3.5781  20.2524   C.ar      2 RES2   0.0000
    69 H32      5.0412   3.4014  21.1532   H         2 RES2   0.0000
    70 C29      5.9240   3.4783  19.3548   C.ar      2 RES2   0.0000
    71 H33      6.7596   3.2308  19.6787   H         2 RES2   0.0000
    72 C30      7.7525   2.1158  16.9879   C.ar      2 RES2   0.0000
    73 C31      8.3868   1.6629  18.1344   C.ar      2 RES2   0.0000
    74 H34      8.3670   2.2096  18.8864   H         2 RES2   0.0000
    75 C32      9.0457   0.4518  18.2319   C.ar      2 RES2   0.0000
    76 H35      9.4401   0.2067  19.0368   H         2 RES2   0.0000
    77 C33      9.1214  -0.3797  17.1648   C.ar      2 RES2   0.0000
    78 H36      9.5520  -1.2015  17.2293   H         2 RES2   0.0000
    79 C34      8.5537   0.0204  16.0024   C.ar      2 RES2   0.0000
    80 H37      8.6162  -0.5239  15.2499   H         2 RES2   0.0000
    81 C35      7.8712   1.2411  15.9138   C.ar      2 RES2   0.0000
    82 H38      7.4823   1.4754  15.1022   H         2 RES2   0.0000
    83 C36      6.5034   3.9409  15.4312   C.ar      2 RES2   0.0000
    84 C37      5.6161   3.1023  14.7519   C.ar      2 RES2   0.0000
    85 H39      5.3297   2.3285  15.1827   H         2 RES2   0.0000
    86 C38      5.1393   3.3522  13.4859   C.ar      2 RES2   0.0000
    87 H40      4.5627   2.7490  13.0744   H         2 RES2   0.0000
    88 C39      5.5228   4.4948  12.8343   C.ar      2 RES2   0.0000
    89 H41      5.2074   4.6702  11.9759   H         2 RES2   0.0000
    90 C40      6.3665   5.3755  13.4472   C.ar      2 RES2   0.0000
    91 H42      6.6220   6.1589  13.0153   H         2 RES2   0.0000
    92 C41      6.8423   5.0944  14.7154   C.ar      2 RES2   0.0000
    93 H43      7.4196   5.7047  15.1156   H         2 RES2   0.0000
    94 C42      8.2118   4.6979  17.3152   C.ar      2 RES2   0.0000
    95 C43      9.4987   4.5885  16.8025   C.ar      2 RES2   0.0000
    96 H44      9.6959   3.8604  16.2597   H         2 RES2   0.0000
    97 C44     10.4964   5.5077  17.0582   C.ar      2 RES2   0.0000
    98 H45     11.3415   5.3875  16.6841   H         2 RES2   0.0000
    99 C45     10.2562   6.5866  17.8516   C.ar      2 RES2   0.0000
   100 H46     10.9289   7.2042  18.0324   H         2 RES2   0.0000
   101 C46      9.0044   6.7392  18.3767   C.ar      2 RES2   0.0000
   102 H47      8.8180   7.4745  18.9133   H         2 RES2   0.0000
   103 C47      8.0050   5.8068  18.1167   C.ar      2 RES2   0.0000
   104 H48      7.1651   5.9330  18.4970   H         2 RES2   0.0000
@<TRIPOS>BOND
     1     1     2    1
     2     2    10   ar
     3     3     1    1
     4     4     3    1
     5     5     1    1
     6     6     1    1
     7     7     1    1
     8     8     1    1
     9     9    45    1
    10    10    11    1
    11    12    10   ar
    12    13    12    1
    13    14    12   ar
    14    15    14    1
    15    16    14   ar
    16    17    16    1
    17    18     2   ar
    18    19     3    1
    19    20    19    1
    20    21    19    1
    21    22     3    1
    22    23    22    1
    23    24    22    1
    24    25     5    1
    25    26    25    1
    26    27    25    1
    27    28     5    1
    28    29    28    1
    29    30    28    1
    30    31     6    1
    31    32    31    1
    32    33    31    1
    33    34     6    2
    34    35    34    1
    35    36     7   ar
    36    37    36   ar
    37    38    37    1
    38    39    37   ar
    39    40    39    1
    40    41    39   ar
    41    42    41    1
    42    43     7   ar
    43    44    43    1
    44    45     5    1
    45    46    45    1
    46    47     8   ar
    47    48    47   ar
    48    49    48    1
    49    50    48   ar
    50    51    50    1
    51    52    50   ar
    52    53    52    1
    53    54     8   ar
    54    55    54    1
    55    56     9    1
    56    57    56    1
    57    58    56    1
    58    59    56    1
    59    16    18   ar
    60    18    19    1
    61    22    25    1
    62    28    31    1
    63    34    36    1
    64    41    43   ar
    65    45    47    1
    66    52    54   ar
    67    60    61    1
    68    61    62   ar
    69    62    63    1
    70    64    62   ar
    71    65    64    1
    72    66    64   ar
    73    67    66    1
    74    68    66   ar
    75    69    68    1
    76    70    61   ar
    77    71    70    1
    78    72    60    1
    79    73    72   ar
    80    74    73    1
    81    75    73   ar
    82    76    75    1
    83    77    75   ar
    84    78    77    1
    85    79    77   ar
    86    80    79    1
    87    81    72   ar
    88    82    81    1
    89    83    60    1
    90    84    83   ar
    91    85    84    1
    92    86    84   ar
    93    87    86    1
    94    88    86   ar
    95    89    88    1
    96    90    88   ar
    97    91    90    1
    98    92    83   ar
    99    93    92    1
   100    94    60    1
   101    95    94   ar
   102    96    95    1
   103    97    95   ar
   104    98    97    1
   105    99    97   ar
   106   100    99    1
   107   101    99   ar
   108   102   101    1
   109   103    94   ar
   110   104   103    1
   111    68    70   ar
   112    79    81   ar
   113    90    92   ar
   114   101   103   ar
@<TRIPOS>SUBSTRUCTURE
     1 RES1        1 GROUP             0 ****  ****    0  
     2 RES2       60 GROUP             0 ****  ****    0  
@<TRIPOS>CRYSIN
   17.8500   12.0150   26.8640   90.0000   91.2270   90.0000    14     1
