@<TRIPOS>MOLECULE
ECOWAV
   112   113     4     0     0
SMALL
USER_CHARGES
****
Generated from the CSD

@<TRIPOS>ATOM
     1 Fe1     16.2114   1.7167   3.1439   Fe        1 RES1   0.0000
     2 B1      18.6866  -0.0743   3.8356   B         1 RES1   0.0000
     3 H1      19.4763  -0.6458   4.0618   H         1 RES1   0.0000
     4 N1      16.4841   0.6020   4.8329   N.ar      1 RES1   0.0000
     5 N2      17.6707  -0.0748   4.9957   N.ar      1 RES1   0.0000
     6 C1      14.3844   0.9024   6.1455   C.3       1 RES1   0.0000
     7 H2      14.3599   1.8386   5.8578   H         1 RES1   0.0000
     8 H3      14.1545   0.8467   7.0964   H         1 RES1   0.0000
     9 H4      13.7399   0.3821   5.6230   H         1 RES1   0.0000
    10 C2      15.7547   0.3532   5.9335   C.ar      1 RES1   0.0000
    11 C3      16.4765  -0.4819   6.8005   C.ar      1 RES1   0.0000
    12 H5      16.1910  -0.8095   7.6450   H         1 RES1   0.0000
    13 C4      17.6793  -0.7304   6.1826   C.ar      1 RES1   0.0000
    14 C5      18.8530  -1.5320   6.6481   C.3       1 RES1   0.0000
    15 H6      19.1557  -2.1196   5.9242   H         1 RES1   0.0000
    16 H7      18.5920  -2.0743   7.4209   H         1 RES1   0.0000
    17 H8      19.5800  -0.9280   6.9047   H         1 RES1   0.0000
    18 N3      18.1780   2.3206   3.2700   N.ar      1 RES1   0.0000
    19 N4      19.1290   1.3652   3.5660   N.ar      1 RES1   0.0000
    20 C6      18.1816   4.7281   2.6222   C.3       1 RES1   0.0000
    21 H9      17.9995   4.7306   1.6598   H         1 RES1   0.0000
    22 H10     18.7701   5.4797   2.8447   H         1 RES1   0.0000
    23 H11     17.3387   4.8154   3.1135   H         1 RES1   0.0000
    24 C7      18.8484   3.4468   2.9995   C.ar      1 RES1   0.0000
    25 C8      20.2290   3.2180   3.1075   C.ar      1 RES1   0.0000
    26 H12     20.9244   3.8490   2.9648   H         1 RES1   0.0000
    27 C9      20.3723   1.8913   3.4611   C.ar      1 RES1   0.0000
    28 C10     21.6096   1.1145   3.7657   C.3       1 RES1   0.0000
    29 H13     21.6244   0.8839   4.7178   H         1 RES1   0.0000
    30 H14     22.3964   1.6562   3.5491   H         1 RES1   0.0000
    31 H15     21.6201   0.2938   3.2301   H         1 RES1   0.0000
    32 N5      16.9370   0.1287   2.0565   N.ar      1 RES1   0.0000
    33 N6      17.9816  -0.6052   2.5819   N.ar      1 RES1   0.0000
    34 C11     15.5601   0.0481  -0.0122   C.3       1 RES1   0.0000
    35 H16     14.7563   0.2125   0.5234   H         1 RES1   0.0000
    36 H17     15.3646  -0.6260  -0.6973   H         1 RES1   0.0000
    37 H18     15.8409   0.8815  -0.4445   H         1 RES1   0.0000
    38 C12     16.6574  -0.4465   0.8751   C.ar      1 RES1   0.0000
    39 C13     17.5012  -1.5335   0.6469   C.ar      1 RES1   0.0000
    40 H19     17.5043  -2.1022  -0.1129   H         1 RES1   0.0000
    41 C14     18.3262  -1.6159   1.7443   C.ar      1 RES1   0.0000
    42 C15     19.3509  -2.6418   2.0931   C.3       1 RES1   0.0000
    43 H20     20.1166  -2.2056   2.5238   H         1 RES1   0.0000
    44 H21     19.6494  -3.0964   1.2780   H         1 RES1   0.0000
    45 H22     18.9599  -3.2974   2.7084   H         1 RES1   0.0000
    46 C16     14.4291   1.0800   2.9879   C.1       1 RES1  -1.0000
    47 N7      13.3365   0.6879   2.8884   N.1       1 RES1   0.0000
    48 C17     15.6050   3.2040   4.1605   C.1       1 RES1   0.0000
    49 N8      15.2176   4.1244   4.7671   N.1       1 RES1   0.0000
    50 C18     15.8821   2.7805   1.5946   C.1       1 RES1  -1.0000
    51 N9      15.5838   3.4467   0.6887   N.1       1 RES1   0.0000
    52 N10     14.4015  -3.4495   2.9494   N.4       2 RES2   1.0000
    53 C19     13.3373  -3.6574   4.0100   C.3       2 RES2   0.0000
    54 H23     12.5172  -3.9965   3.5706   H         2 RES2   0.0000
    55 H24     13.6512  -4.3566   4.6372   H         2 RES2   0.0000
    56 C20     12.9769  -2.4239   4.8092   C.3       2 RES2   0.0000
    57 H25     13.7344  -2.1696   5.3775   H         2 RES2   0.0000
    58 H26     12.1961  -2.6144   5.3703   H         2 RES2   0.0000
    59 H27     12.7658  -1.6876   4.1980   H         2 RES2   0.0000
    60 C21     13.9550  -2.4383   1.9142   C.3       2 RES2   0.0000
    61 H28     14.6525  -2.3752   1.2153   H         2 RES2   0.0000
    62 H29     13.8886  -1.5517   2.3499   H         2 RES2   0.0000
    63 C22     12.6314  -2.7468   1.2451   C.3       2 RES2   0.0000
    64 H30     12.6473  -3.6621   0.8962   H         2 RES2   0.0000
    65 H31     12.4838  -2.1185   0.5073   H         2 RES2   0.0000
    66 H32     11.9069  -2.6574   1.8982   H         2 RES2   0.0000
    67 C23     15.6697  -2.8778   3.5488   C.3       2 RES2   0.0000
    68 H33     15.4652  -1.9896   3.9327   H         2 RES2   0.0000
    69 H34     16.3306  -2.7445   2.8232   H         2 RES2   0.0000
    70 C24     16.3012  -3.7399   4.6278   C.3       2 RES2   0.0000
    71 H35     15.6708  -3.8502   5.3685   H         2 RES2   0.0000
    72 H36     17.1165  -3.3078   4.9562   H         2 RES2   0.0000
    73 H37     16.5246  -4.6191   4.2554   H         2 RES2   0.0000
    74 C25     14.6520  -4.8064   2.3082   C.3       2 RES2   0.0000
    75 H38     14.9857  -5.4240   3.0060   H         2 RES2   0.0000
    76 H39     13.7861  -5.1626   1.9861   H         2 RES2   0.0000
    77 C26     15.6311  -4.8200   1.1533   C.3       2 RES2   0.0000
    78 H40     15.2982  -4.2405   0.4356   H         2 RES2   0.0000
    79 H41     15.7265  -5.7352   0.8174   H         2 RES2   0.0000
    80 H42     16.5021  -4.4913   1.4591   H         2 RES2   0.0000
    81 N11     17.7068   3.5295   8.1261   N.4       3 RES3   1.0000
    82 C27     17.9495   5.0227   8.1574   C.3       3 RES3   0.0000
    83 H43     18.9151   5.1812   8.3064   H         3 RES3   0.0000
    84 H44     17.4627   5.4042   8.9302   H         3 RES3   0.0000
    85 C28     17.5274   5.7700   6.9079   C.3       3 RES3   0.0000
    86 H45     18.0546   5.4542   6.1446   H         3 RES3   0.0000
    87 H46     17.6770   6.7294   7.0355   H         3 RES3   0.0000
    88 H47     16.5766   5.6086   6.7362   H         3 RES3   0.0000
    89 C29     16.2204   3.2193   8.0513   C.3       3 RES3   0.0000
    90 H48     15.8515   3.6504   7.2398   H         3 RES3   0.0000
    91 H49     16.1102   2.2416   7.9443   H         3 RES3   0.0000
    92 C30     15.4021   3.6632   9.2397   C.3       3 RES3   0.0000
    93 H50     15.6704   3.1499  10.0307   H         3 RES3   0.0000
    94 H51     14.4512   3.5099   9.0574   H         3 RES3   0.0000
    95 H52     15.5539   4.6179   9.4034   H         3 RES3   0.0000
    96 C31     18.3268   2.9855   9.4021   C.3       3 RES3   0.0000
    97 H53     19.2841   3.2335   9.4159   H         3 RES3   0.0000
    98 H54     17.8937   3.4286  10.1741   H         3 RES3   0.0000
    99 C32     18.2183   1.4922   9.5860   C.3       3 RES3   0.0000
   100 H55     17.2746   1.2288   9.5737   H         3 RES3   0.0000
   101 H56     18.6170   1.2393  10.4448   H         3 RES3   0.0000
   102 H57     18.6942   1.0383   8.8585   H         3 RES3   0.0000
   103 C33     18.3225   2.8924   6.8944   C.3       3 RES3   0.0000
   104 H58     18.1389   1.9199   6.9136   H         3 RES3   0.0000
   105 H59     17.8805   3.2648   6.0909   H         3 RES3   0.0000
   106 C34     19.8136   3.0999   6.7677   C.3       3 RES3   0.0000
   107 H60     20.0013   4.0558   6.6555   H         3 RES3   0.0000
   108 H61     20.1478   2.6075   5.9887   H         3 RES3   0.0000
   109 H62     20.2589   2.7724   7.5768   H         3 RES3   0.0000
   110 O1      16.7378   5.9234  11.2484   O.3       4 RES4   0.0000
   111 H63     16.3764   6.4112  11.8412   H         4 RES4   0.0000
   112 H64     17.5365   5.7956  11.4916   H         4 RES4   0.0000
@<TRIPOS>BOND
     1     1     4    1
     2     2     3    1
     3     4     5   ar
     4     5     2    1
     5     6     7    1
     6     8     6    1
     7     9     6    1
     8    10     4   ar
     9    11    10   ar
    10    12    11    1
    11    13     5   ar
    12    14    13    1
    13    15    14    1
    14    16    14    1
    15    17    14    1
    16    18     1    1
    17    19     2    1
    18    20    21    1
    19    22    20    1
    20    23    20    1
    21    24    18   ar
    22    25    24   ar
    23    26    25    1
    24    27    19   ar
    25    28    27    1
    26    29    28    1
    27    30    28    1
    28    31    28    1
    29    32     1    1
    30    33     2    1
    31    34    35    1
    32    36    34    1
    33    37    34    1
    34    38    32   ar
    35    39    38   ar
    36    40    39    1
    37    41    33   ar
    38    42    41    1
    39    43    42    1
    40    44    42    1
    41    45    42    1
    42    46     1    1
    43    47    46    3
    44    48     1    1
    45    49    48    3
    46    50     1    1
    47    51    50    3
    48     6    10    1
    49    11    13   ar
    50    18    19   ar
    51    20    24    1
    52    25    27   ar
    53    32    33   ar
    54    34    38    1
    55    39    41   ar
    56    52    53    1
    57    53    54    1
    58    55    53    1
    59    56    53    1
    60    57    56    1
    61    58    56    1
    62    59    56    1
    63    60    52    1
    64    61    60    1
    65    62    60    1
    66    63    60    1
    67    64    63    1
    68    65    63    1
    69    66    63    1
    70    67    52    1
    71    68    67    1
    72    69    67    1
    73    70    67    1
    74    71    70    1
    75    72    70    1
    76    73    70    1
    77    74    52    1
    78    75    74    1
    79    76    74    1
    80    77    74    1
    81    78    77    1
    82    79    77    1
    83    80    77    1
    84    81    82    1
    85    82    83    1
    86    84    82    1
    87    85    82    1
    88    86    85    1
    89    87    85    1
    90    88    85    1
    91    89    81    1
    92    90    89    1
    93    91    89    1
    94    92    89    1
    95    93    92    1
    96    94    92    1
    97    95    92    1
    98    96    81    1
    99    97    96    1
   100    98    96    1
   101    99    96    1
   102   100    99    1
   103   101    99    1
   104   102    99    1
   105   103    81    1
   106   104   103    1
   107   105   103    1
   108   106   103    1
   109   107   106    1
   110   108   106    1
   111   109   106    1
   112   110   111    1
   113   112   110    1
@<TRIPOS>SUBSTRUCTURE
     1 RES1        1 GROUP             0 ****  ****    0  
     2 RES2       52 GROUP             0 ****  ****    0  
     3 RES3       81 GROUP             0 ****  ****    0  
     4 RES4      110 GROUP             0 ****  ****    0  
@<TRIPOS>CRYSIN
   18.3423   11.6145   18.9531   90.0000  108.9596   90.0000   231     1
