@<TRIPOS>MOLECULE
EGICAZ
   100   108     2     0     0
SMALL
USER_CHARGES
****
Generated from the CSD

@<TRIPOS>ATOM
     1 C1       3.8956   3.5253   0.8836   C.2       1 RES1   0.0000
     2 C2       2.9174   4.4996   0.5280   C.1       1 RES1   0.0000
     3 C3       5.1570   3.2794   0.2781   C.2       1 RES1   0.0000
     4 C4       5.7430   4.0731  -0.8162   C.ar      1 RES1   0.0000
     5 C5       6.6852   3.4450  -1.6399   C.ar      1 RES1   0.0000
     6 H1       6.9155   2.5366  -1.4906   H         1 RES1   0.0000
     7 C6       7.2787   4.1504  -2.6704   C.ar      1 RES1   0.0000
     8 H2       7.9203   3.7257  -3.2266   H         1 RES1   0.0000
     9 C7       6.9396   5.4798  -2.8961   C.ar      1 RES1   0.0000
    10 H3       7.3398   5.9559  -3.6155   H         1 RES1   0.0000
    11 C8       6.0231   6.1130  -2.0787   C.ar      1 RES1   0.0000
    12 H4       5.8019   7.0230  -2.2311   H         1 RES1   0.0000
    13 C9       5.4246   5.4161  -1.0331   C.ar      1 RES1   0.0000
    14 H5       4.7997   5.8547  -0.4674   H         1 RES1   0.0000
    15 C10      2.9271  -0.5151   2.7422   C.2       1 RES1   0.0000
    16 C11      2.0801  -1.3174   3.5591   C.1       1 RES1   0.0000
    17 C12      3.0433  -0.5330   1.3293   C.2       1 RES1   0.0000
    18 C13      2.1708  -1.3202   0.4288   C.ar      1 RES1   0.0000
    19 C14      2.7436  -1.9062  -0.7078   C.ar      1 RES1   0.0000
    20 H6       3.6794  -1.8382  -0.8604   H         1 RES1   0.0000
    21 C15      1.9381  -2.5859  -1.6100   C.ar      1 RES1   0.0000
    22 H7       2.3260  -3.0039  -2.3689   H         1 RES1   0.0000
    23 C16      0.5660  -2.6558  -1.4048   C.ar      1 RES1   0.0000
    24 H8       0.0158  -3.1104  -2.0311   H         1 RES1   0.0000
    25 C17     -0.0010  -2.0625  -0.2872   C.ar      1 RES1   0.0000
    26 H9      -0.9409  -2.1056  -0.1558   H         1 RES1   0.0000
    27 C18      0.7973  -1.4054   0.6442   C.ar      1 RES1   0.0000
    28 H10      0.4086  -1.0177   1.4203   H         1 RES1   0.0000
    29 C19      7.0540   1.6380   3.7578   C.2       1 RES1   0.0000
    30 C20      7.9980   2.3504   4.5544   C.1       1 RES1   0.0000
    31 C21      7.2487   0.3887   3.1080   C.2       1 RES1   0.0000
    32 C22      8.4030  -0.5039   3.3256   C.ar      1 RES1   0.0000
    33 C23      8.6842  -1.4552   2.3423   C.ar      1 RES1   0.0000
    34 H11      8.1673  -1.4799   1.5457   H         1 RES1   0.0000
    35 C24      9.7150  -2.3608   2.5267   C.ar      1 RES1   0.0000
    36 H12      9.8965  -3.0143   1.8615   H         1 RES1   0.0000
    37 C25     10.4842  -2.3167   3.6826   C.ar      1 RES1   0.0000
    38 H13     11.1909  -2.9390   3.8058   H         1 RES1   0.0000
    39 C26     10.2219  -1.3672   4.6558   C.ar      1 RES1   0.0000
    40 H14     10.7571  -1.3345   5.4397   H         1 RES1   0.0000
    41 C27      9.1793  -0.4619   4.4902   C.ar      1 RES1   0.0000
    42 H15      8.9946   0.1817   5.1640   H         1 RES1   0.0000
    43 Fe1      4.8793   1.2942   2.1365   Fe        1 RES1   0.0000
    44 N1       3.5939   2.6191   1.8881   N.2       1 RES1   0.0000
    45 N2       2.1112   5.2687   0.2573   N.1       1 RES1   0.0000
    46 N3       3.8390   0.3310   3.3462   N.2       1 RES1   0.0000
    47 N4       1.4356  -1.9558   4.2618   N.1       1 RES1   0.0000
    48 N5       5.8437   2.2209   3.4449   N.2       1 RES1   0.0000
    49 N6       8.7847   2.9408   5.1444   N.1       1 RES1   0.0000
    50 O1       2.4942   2.7352   2.4772   O.2       1 RES1   0.0000
    51 O2       5.8043   2.2749   0.7129   O.3       1 RES1  -1.0000
    52 O3       3.8972   0.3723   4.5954   O.2       1 RES1   0.0000
    53 O4       3.9679   0.1703   0.8137   O.3       1 RES1   0.0000
    54 O5       5.5317   3.3098   3.9832   O.2       1 RES1   0.0000
    55 O6       6.3485   0.0262   2.2886   O.3       1 RES1   0.0000
    56 C28      4.7329   4.1279   7.3105   C.ar      2 RES2   0.0000
    57 C29      4.6208   2.7913   7.6872   C.ar      2 RES2   0.0000
    58 H16      3.7663   2.3808   7.7411   H         2 RES2   0.0000
    59 C30      5.7637   2.0622   7.9824   C.ar      2 RES2   0.0000
    60 H17      5.6908   1.1502   8.2334   H         2 RES2   0.0000
    61 C31      7.0054   2.6589   7.9122   C.ar      2 RES2   0.0000
    62 H18      7.7868   2.1523   8.0996   H         2 RES2   0.0000
    63 C32      7.1164   3.9986   7.5693   C.ar      2 RES2   0.0000
    64 H19      7.9725   4.4085   7.5439   H         2 RES2   0.0000
    65 C33      5.9892   4.7411   7.2640   C.ar      2 RES2   0.0000
    66 H20      6.0673   5.6573   7.0255   H         2 RES2   0.0000
    67 C34      2.6831   6.0517   8.2497   C.ar      2 RES2   0.0000
    68 C35      2.7757   5.5148   9.5330   C.ar      2 RES2   0.0000
    69 H21      3.3028   4.7408   9.6909   H         2 RES2   0.0000
    70 C36      2.0923   6.1195  10.5770   C.ar      2 RES2   0.0000
    71 H22      2.1483   5.7534  11.4517   H         2 RES2   0.0000
    72 C37      1.3300   7.2504  10.3576   C.ar      2 RES2   0.0000
    73 H23      0.8530   7.6487  11.0753   H         2 RES2   0.0000
    74 C38      1.2628   7.8045   9.0847   C.ar      2 RES2   0.0000
    75 H24      0.7584   8.5963   8.9408   H         2 RES2   0.0000
    76 C39      1.9266   7.2086   8.0250   C.ar      2 RES2   0.0000
    77 H25      1.8688   7.5812   7.1537   H         2 RES2   0.0000
    78 C40      3.7324   6.1833   5.5097   C.ar      2 RES2   0.0000
    79 C41      4.3546   7.4106   5.7900   C.ar      2 RES2   0.0000
    80 H26      4.4876   7.6825   6.6904   H         2 RES2   0.0000
    81 C42      4.7719   8.2201   4.7500   C.ar      2 RES2   0.0000
    82 H27      5.1943   9.0507   4.9378   H         2 RES2   0.0000
    83 C43      4.5755   7.8255   3.4328   C.ar      2 RES2   0.0000
    84 H28      4.8544   8.3886   2.7206   H         2 RES2   0.0000
    85 C44      3.9726   6.6102   3.1596   C.ar      2 RES2   0.0000
    86 H29      3.8503   6.3376   2.2573   H         2 RES2   0.0000
    87 C45      3.5473   5.7877   4.1867   C.ar      2 RES2   0.0000
    88 H30      3.1309   4.9563   3.9905   H         2 RES2   0.0000
    89 C46      1.9418   3.9838   6.3970   C.ar      2 RES2   0.0000
    90 C47      0.6494   4.2104   6.8937   C.ar      2 RES2   0.0000
    91 H31      0.4900   4.9304   7.4915   H         2 RES2   0.0000
    92 C48     -0.3927   3.3840   6.5114   C.ar      2 RES2   0.0000
    93 H32     -1.2686   3.5388   6.8448   H         2 RES2   0.0000
    94 C49     -0.1551   2.3289   5.6401   C.ar      2 RES2   0.0000
    95 H33     -0.8729   1.7681   5.3708   H         2 RES2   0.0000
    96 C50      1.1197   2.0903   5.1629   C.ar      2 RES2   0.0000
    97 H34      1.2739   1.3579   4.5779   H         2 RES2   0.0000
    98 C51      2.1770   2.9130   5.5328   C.ar      2 RES2   0.0000
    99 H35      3.0517   2.7495   5.2012   H         2 RES2   0.0000
   100 P1       3.2837   5.0879   6.8619   P.3       2 RES2   1.0000
@<TRIPOS>BOND
     1     1     2    1
     2     2    45    3
     3     3     1    2
     4     4     3    1
     5     5     4   ar
     6     6     5    1
     7     7     5   ar
     8     8     7    1
     9     9     7   ar
    10    10     9    1
    11    11     9   ar
    12    12    11    1
    13    13     4   ar
    14    14    13    1
    15    15    16    1
    16    16    47    3
    17    17    15    2
    18    18    17    1
    19    19    18   ar
    20    20    19    1
    21    21    19   ar
    22    22    21    1
    23    23    21   ar
    24    24    23    1
    25    25    23   ar
    26    26    25    1
    27    27    18   ar
    28    28    27    1
    29    29    30    1
    30    30    49    3
    31    31    29    2
    32    32    31    1
    33    33    32   ar
    34    34    33    1
    35    35    33   ar
    36    36    35    1
    37    37    35   ar
    38    38    37    1
    39    39    37   ar
    40    40    39    1
    41    41    32   ar
    42    42    41    1
    43    43    44    1
    44    44     1    1
    45    46    15    1
    46    48    29    1
    47    50    44    2
    48    51     3    1
    49    52    46    2
    50    53    17    1
    51    54    48    2
    52    55    31    1
    53    11    13   ar
    54    25    27   ar
    55    39    41   ar
    56    43    46    1
    57    43    48    1
    58    43    51    1
    59    43    53    1
    60    43    55    1
    61    56    57   ar
    62    57    58    1
    63    59    57   ar
    64    60    59    1
    65    61    59   ar
    66    62    61    1
    67    63    61   ar
    68    64    63    1
    69    65    56   ar
    70    66    65    1
    71    67    68   ar
    72    68    69    1
    73    70    68   ar
    74    71    70    1
    75    72    70   ar
    76    73    72    1
    77    74    72   ar
    78    75    74    1
    79    76    67   ar
    80    77    76    1
    81    78    79   ar
    82    79    80    1
    83    81    79   ar
    84    82    81    1
    85    83    81   ar
    86    84    83    1
    87    85    83   ar
    88    86    85    1
    89    87    78   ar
    90    88    87    1
    91    89    90   ar
    92    90    91    1
    93    92    90   ar
    94    93    92    1
    95    94    92   ar
    96    95    94    1
    97    96    94   ar
    98    97    96    1
    99    98    89   ar
   100    99    98    1
   101   100    56    1
   102    63    65   ar
   103    67   100    1
   104    74    76   ar
   105    78   100    1
   106    85    87   ar
   107    89   100    1
   108    96    98   ar
@<TRIPOS>SUBSTRUCTURE
     1 RES1        1 GROUP             0 ****  ****    0  
     2 RES2       56 GROUP             0 ****  ****    0  
@<TRIPOS>CRYSIN
   12.1899   25.9630   13.8001   90.0000   92.3020   90.0000   231     1
