@<TRIPOS>MOLECULE
EGICAZ02
   100   108     2     0     0
SMALL
USER_CHARGES
****
Generated from the CSD

@<TRIPOS>ATOM
     1 C1      13.1711   1.6664   3.7771   C.2       1 RES1   0.0000
     2 C2      14.1053   2.3817   4.5795   C.1       1 RES1   0.0000
     3 C3      13.3705   0.4201   3.1319   C.2       1 RES1   0.0000
     4 C4      14.5266  -0.4716   3.3542   C.ar      1 RES1   0.0000
     5 C5      14.8173  -1.4097   2.3727   C.ar      1 RES1   0.0000
     6 H1      14.3118  -1.4384   1.5922   H         1 RES1   0.0000
     7 C6      15.8607  -2.3035   2.5542   C.ar      1 RES1   0.0000
     8 H2      16.0502  -2.9341   1.8987   H         1 RES1   0.0000
     9 C7      16.6177  -2.2574   3.7055   C.ar      1 RES1   0.0000
    10 H3      17.3164  -2.8612   3.8252   H         1 RES1   0.0000
    11 C8      16.3455  -1.3248   4.6787   C.ar      1 RES1   0.0000
    12 H4      16.8659  -1.2925   5.4494   H         1 RES1   0.0000
    13 C9      15.2978  -0.4352   4.5130   C.ar      1 RES1   0.0000
    14 H5      15.1088   0.1876   5.1764   H         1 RES1   0.0000
    15 C10     10.0249   3.5494   0.8846   C.2       1 RES1   0.0000
    16 C11      9.0478   4.5218   0.5247   C.1       1 RES1   0.0000
    17 C12     11.2843   3.2963   0.2847   C.2       1 RES1   0.0000
    18 C13     11.8700   4.0898  -0.8152   C.ar      1 RES1   0.0000
    19 C14     12.7889   3.4579  -1.6475   C.ar      1 RES1   0.0000
    20 H6      13.0040   2.5641  -1.5058   H         1 RES1   0.0000
    21 C15     13.3824   4.1513  -2.6797   C.ar      1 RES1   0.0000
    22 H7      14.0036   3.7289  -3.2276   H         1 RES1   0.0000
    23 C16     13.0561   5.4717  -2.9026   C.ar      1 RES1   0.0000
    24 H8      13.4425   5.9282  -3.6134   H         1 RES1   0.0000
    25 C17     12.1628   6.1171  -2.0814   C.ar      1 RES1   0.0000
    26 H9      11.9555   7.0122  -2.2302   H         1 RES1   0.0000
    27 C18     11.5690   5.4266  -1.0250   C.ar      1 RES1   0.0000
    28 H10     10.9709   5.8631  -0.4611   H         1 RES1   0.0000
    29 C19      9.0658  -0.4972   2.7498   C.2       1 RES1   0.0000
    30 C20      8.2253  -1.3094   3.5630   C.1       1 RES1   0.0000
    31 C21      9.1797  -0.5157   1.3402   C.2       1 RES1   0.0000
    32 C22      8.3169  -1.3097   0.4405   C.ar      1 RES1   0.0000
    33 C23      6.9474  -1.4056   0.6489   C.ar      1 RES1   0.0000
    34 H11      6.5624  -1.0293   1.4069   H         1 RES1   0.0000
    35 C24      6.1593  -2.0661  -0.2782   C.ar      1 RES1   0.0000
    36 H12      5.2388  -2.1133  -0.1504   H         1 RES1   0.0000
    37 C25      6.7246  -2.6519  -1.3873   C.ar      1 RES1   0.0000
    38 H13      6.1891  -3.1035  -1.9990   H         1 RES1   0.0000
    39 C26      8.0836  -2.5696  -1.5907   C.ar      1 RES1   0.0000
    40 H14      8.4651  -2.9732  -2.3374   H         1 RES1   0.0000
    41 C27      8.8842  -1.8900  -0.6888   C.ar      1 RES1   0.0000
    42 H15      9.7999  -1.8215  -0.8372   H         1 RES1   0.0000
    43 Fe1     11.0056   1.3217   2.1469   Fe        1 RES1   0.0000
    44 N1      11.9666   2.2512   3.4531   N.2       1 RES1   0.0000
    45 N2      14.8837   2.9651   5.1757   N.1       1 RES1   0.0000
    46 N3       9.7199   2.6501   1.8888   N.2       1 RES1   0.0000
    47 N4       8.2528   5.2866   0.2457   N.1       1 RES1   0.0000
    48 N5       9.9688   0.3544   3.3553   N.2       1 RES1   0.0000
    49 N6       7.5867  -1.9544   4.2596   N.1       1 RES1   0.0000
    50 O1      11.6594   3.3453   3.9808   O.2       1 RES1   0.0000
    51 O2      12.4785   0.0558   2.3078   O.3       1 RES1  -1.0000
    52 O3       8.6214   2.7629   2.4749   O.2       1 RES1   0.0000
    53 O4      11.9313   2.2981   0.7202   O.3       1 RES1   0.0000
    54 O5      10.0244   0.3945   4.6046   O.2       1 RES1   0.0000
    55 O6      10.0999   0.1913   0.8245   O.3       1 RES1   0.0000
    56 C28      9.8051   6.1836   5.5835   C.ar      2 RES2   0.0000
    57 C29      9.6175   5.8065   4.2634   C.ar      2 RES2   0.0000
    58 H16      9.2060   4.9979   4.0634   H         2 RES2   0.0000
    59 C30     10.0435   6.6378   3.2450   C.ar      2 RES2   0.0000
    60 H17      9.9184   6.3816   2.3597   H         2 RES2   0.0000
    61 C31     10.6504   7.8369   3.5262   C.ar      2 RES2   0.0000
    62 H18     10.9258   8.3933   2.8334   H         2 RES2   0.0000
    63 C32     10.8486   8.2153   4.8309   C.ar      2 RES2   0.0000
    64 H19     11.2646   9.0265   5.0204   H         2 RES2   0.0000
    65 C33     10.4351   7.3989   5.8623   C.ar      2 RES2   0.0000
    66 H20     10.5758   7.6584   6.7449   H         2 RES2   0.0000
    67 C34      8.7570   6.0290   8.3165   C.ar      2 RES2   0.0000
    68 C35      8.0072   7.1868   8.1099   C.ar      2 RES2   0.0000
    69 H21      7.9502   7.5594   7.2603   H         2 RES2   0.0000
    70 C36      7.3495   7.7773   9.1715   C.ar      2 RES2   0.0000
    71 H22      6.8576   8.5548   9.0364   H         2 RES2   0.0000
    72 C37      7.4190   7.2202  10.4266   C.ar      2 RES2   0.0000
    73 H23      6.9581   7.6115  11.1342   H         2 RES2   0.0000
    74 C38      8.1666   6.0911  10.6369   C.ar      2 RES2   0.0000
    75 H24      8.2182   5.7249  11.4908   H         2 RES2   0.0000
    76 C39      8.8460   5.4904   9.5911   C.ar      2 RES2   0.0000
    77 H25      9.3597   4.7295   9.7426   H         2 RES2   0.0000
    78 C40      8.0212   3.9738   6.4489   C.ar      2 RES2   0.0000
    79 C41      6.7349   4.1813   6.9492   C.ar      2 RES2   0.0000
    80 H26      6.5725   4.8781   7.5445   H         2 RES2   0.0000
    81 C42      5.7053   3.3529   6.5585   C.ar      2 RES2   0.0000
    82 H27      4.8487   3.4918   6.8925   H         2 RES2   0.0000
    83 C43      5.9381   2.3231   5.6787   C.ar      2 RES2   0.0000
    84 H28      5.2351   1.7772   5.4104   H         2 RES2   0.0000
    85 C44      7.2062   2.0971   5.1936   C.ar      2 RES2   0.0000
    86 H29      7.3598   1.3889   4.6094   H         2 RES2   0.0000
    87 C45      8.2548   2.9201   5.5725   C.ar      2 RES2   0.0000
    88 H30      9.1114   2.7674   5.2418   H         2 RES2   0.0000
    89 C46     10.8089   4.1185   7.3722   C.ar      2 RES2   0.0000
    90 C47     10.6942   2.7911   7.7501   C.ar      2 RES2   0.0000
    91 H31      9.8567   2.3895   7.7980   H         2 RES2   0.0000
    92 C48     11.8371   2.0648   8.0571   C.ar      2 RES2   0.0000
    93 H32     11.7631   1.1726   8.3106   H         2 RES2   0.0000
    94 C49     13.0657   2.6501   7.9911   C.ar      2 RES2   0.0000
    95 H33     13.8275   2.1524   8.1825   H         2 RES2   0.0000
    96 C50     13.1803   3.9720   7.6427   C.ar      2 RES2   0.0000
    97 H34     14.0199   4.3699   7.6183   H         2 RES2   0.0000
    98 C51     12.0614   4.7175   7.3280   C.ar      2 RES2   0.0000
    99 H35     12.1460   5.6129   7.0890   H         2 RES2   0.0000
   100 P1       9.3600   5.0775   6.9242   P.3       2 RES2   1.0000
@<TRIPOS>BOND
     1     1     2    1
     2     2    45    3
     3     3     1    2
     4     4     3    1
     5     5     4   ar
     6     6     5    1
     7     7     5   ar
     8     8     7    1
     9     9     7   ar
    10    10     9    1
    11    11     9   ar
    12    12    11    1
    13    13     4   ar
    14    14    13    1
    15    15    16    1
    16    16    47    3
    17    17    15    2
    18    18    17    1
    19    19    18   ar
    20    20    19    1
    21    21    19   ar
    22    22    21    1
    23    23    21   ar
    24    24    23    1
    25    25    23   ar
    26    26    25    1
    27    27    18   ar
    28    28    27    1
    29    29    30    1
    30    30    49    3
    31    31    29    2
    32    32    31    1
    33    33    32   ar
    34    34    33    1
    35    35    33   ar
    36    36    35    1
    37    37    35   ar
    38    38    37    1
    39    39    37   ar
    40    40    39    1
    41    41    32   ar
    42    42    41    1
    43    43    44    1
    44    44     1    1
    45    46    15    1
    46    48    29    1
    47    50    44    2
    48    51     3    1
    49    52    46    2
    50    53    17    1
    51    54    48    2
    52    55    31    1
    53    11    13   ar
    54    25    27   ar
    55    39    41   ar
    56    43    46    1
    57    43    48    1
    58    43    51    1
    59    43    53    1
    60    43    55    1
    61    56    57   ar
    62    57    58    1
    63    59    57   ar
    64    60    59    1
    65    61    59   ar
    66    62    61    1
    67    63    61   ar
    68    64    63    1
    69    65    56   ar
    70    66    65    1
    71    67    68   ar
    72    68    69    1
    73    70    68   ar
    74    71    70    1
    75    72    70   ar
    76    73    72    1
    77    74    72   ar
    78    75    74    1
    79    76    67   ar
    80    77    76    1
    81    78    79   ar
    82    79    80    1
    83    81    79   ar
    84    82    81    1
    85    83    81   ar
    86    84    83    1
    87    85    83   ar
    88    86    85    1
    89    87    78   ar
    90    88    87    1
    91    89    90   ar
    92    90    91    1
    93    92    90   ar
    94    93    92    1
    95    94    92   ar
    96    95    94    1
    97    96    94   ar
    98    97    96    1
    99    98    89   ar
   100    99    98    1
   101   100    56    1
   102    63    65   ar
   103    67   100    1
   104    74    76   ar
   105    78   100    1
   106    85    87   ar
   107    89   100    1
   108    96    98   ar
@<TRIPOS>SUBSTRUCTURE
     1 RES1        1 GROUP             0 ****  ****    0  
     2 RES2       56 GROUP             0 ****  ****    0  
@<TRIPOS>CRYSIN
   12.2384   26.0580   13.9447   90.0000   92.6340   90.0000   231     1
