@<TRIPOS>MOLECULE
EGIPOC
   377   386     5     0     0
SMALL
USER_CHARGES
****
Generated from the CSD

@<TRIPOS>ATOM
     1 Fe1      8.1955   5.5343  15.3875   Fe        1 RES1   2.0000
     2 O1      13.2942   7.5625  12.9703   O.3       1 RES1   0.0000
     3 O2       3.0613   3.8041  18.0222   O.3       1 RES1   0.0000
     4 N1       7.7316   5.3050  13.4880   N.2       1 RES1   0.0000
     5 N2       8.3252   5.4743  11.3357   N.pl3     1 RES1   0.0000
     6 N3       9.8316   6.0849  14.5656   N.ar      1 RES1   0.0000
     7 N4       9.2413   5.9185  17.0146   N.2       1 RES1   0.0000
     8 N5      11.3044   6.1109  17.8852   N.pl3     1 RES1   0.0000
     9 N6       7.2834   7.2716  15.5190   N.2       1 RES1   0.0000
    10 N7       5.6734   8.4981  16.4599   N.pl3     1 RES1   0.0000
    11 N8       6.6104   5.0066  16.2763   N.ar      1 RES1   0.0000
    12 N9       8.6123   3.6473  15.6405   N.2       1 RES1   0.0000
    13 N10      8.1419   1.7513  16.7543   N.pl3     1 RES1   0.0000
    14 C1       6.6691   4.8648  12.6940   C.ar      1 RES1   0.0000
    15 C2       5.4191   4.3939  13.0408   C.ar      1 RES1   0.0000
    16 C3       4.5200   4.0503  12.0265   C.ar      1 RES1   0.0000
    17 C4       4.9017   4.2333  10.6973   C.ar      1 RES1   0.0000
    18 C5       6.1267   4.6775  10.3417   C.ar      1 RES1   0.0000
    19 C6       7.0259   4.9820  11.3532   C.ar      1 RES1   0.0000
    20 C7       8.7034   5.6506  12.6269   C.2       1 RES1   0.0000
    21 C8       9.9447   6.1167  13.2332   C.ar      1 RES1   0.0000
    22 C9      11.1179   6.5791  12.6036   C.ar      1 RES1   0.0000
    23 C10     12.1382   7.0075  13.4139   C.ar      1 RES1   0.0000
    24 C11     12.0653   6.9272  14.8189   C.ar      1 RES1   0.0000
    25 C12     10.8867   6.3990  15.3668   C.ar      1 RES1   0.0000
    26 C13     10.5391   6.1807  16.7485   C.2       1 RES1   0.0000
    27 C14     10.4333   5.8619  18.9433   C.ar      1 RES1   0.0000
    28 C15     10.6495   5.7657  20.3308   C.ar      1 RES1   0.0000
    29 C16      9.5357   5.5481  21.1178   C.ar      1 RES1   0.0000
    30 C17      8.2753   5.4375  20.5814   C.ar      1 RES1   0.0000
    31 C18      8.0322   5.5166  19.2056   C.ar      1 RES1   0.0000
    32 C19      9.1400   5.7383  18.3837   C.ar      1 RES1   0.0000
    33 C20      7.5355   8.5971  15.2532   C.ar      1 RES1   0.0000
    34 C21      8.6063   9.1967  14.5420   C.ar      1 RES1   0.0000
    35 C22      8.6202  10.5896  14.4516   C.ar      1 RES1   0.0000
    36 C23      7.6198  11.3456  15.0725   C.ar      1 RES1   0.0000
    37 C24      6.5854  10.7824  15.7691   C.ar      1 RES1   0.0000
    38 C25      6.5818   9.3858  15.8536   C.ar      1 RES1   0.0000
    39 C26      6.1332   7.2290  16.2092   C.2       1 RES1   0.0000
    40 C27      5.6541   5.9336  16.6027   C.ar      1 RES1   0.0000
    41 C28      4.4474   5.5342  17.2294   C.ar      1 RES1   0.0000
    42 C29      4.2795   4.1576  17.4830   C.ar      1 RES1   0.0000
    43 C30      5.2893   3.2314  17.2615   C.ar      1 RES1   0.0000
    44 C31      6.4637   3.6955  16.6552   C.ar      1 RES1   0.0000
    45 C32      7.6930   2.9895  16.3550   C.2       1 RES1   0.0000
    46 C33      9.4092   1.6225  16.2355   C.ar      1 RES1   0.0000
    47 C34     10.3599   0.5694  16.3112   C.ar      1 RES1   0.0000
    48 C35     11.5463   0.7540  15.6787   C.ar      1 RES1   0.0000
    49 C36     11.8278   1.9122  14.9471   C.ar      1 RES1   0.0000
    50 C37     10.8915   2.9565  14.8393   C.ar      1 RES1   0.0000
    51 C38      9.7095   2.7802  15.5213   C.ar      1 RES1   0.0000
    52 C39      9.1318   5.7125  10.0998   C.3       1 RES1   0.0000
    53 C40     10.0703   4.5489   9.8258   C.3       1 RES1   0.0000
    54 C41     10.8285   4.5874   8.4500   C.3       1 RES1   0.0000
    55 C42     11.6997   5.6368   8.2984   C.3       1 RES1   0.0000
    56 C43     12.5352   5.5323   6.9197   C.3       1 RES1   0.0000
    57 C44     11.6633   5.6969   5.6751   C.3       1 RES1   0.0000
    58 C45     12.4166   5.7285   4.3635   C.3       1 RES1   0.0000
    59 C46     11.5274   5.9623   3.1567   C.3       1 RES1   0.0000
    60 C47     12.2773   5.9712   1.8218   C.3       1 RES1   0.0000
    61 C48     11.3982   6.2463   0.6267   C.3       1 RES1   0.0000
    62 C49     12.0858   6.2692  -0.7170   C.3       1 RES1   0.0000
    63 C50     11.2241   6.5626  -1.9063   C.3       1 RES1   0.0000
    64 C51     11.8944   6.5932  -3.2558   C.3       1 RES1   0.0000
    65 C52     11.0158   6.9041  -4.4742   C.3       1 RES1   0.0000
    66 C53     11.7029   6.8600  -5.8005   C.3       1 RES1   0.0000
    67 C54     10.8404   7.1352  -6.9955   C.3       1 RES1   0.0000
    68 C55     13.4917   7.6079  11.5310   C.3       1 RES1   0.0000
    69 C56     14.7439   8.4199  11.2570   C.3       1 RES1   0.0000
    70 C57     15.1135   8.4080   9.7879   C.3       1 RES1   0.0000
    71 C58     14.0185   8.8340   8.8231   C.3       1 RES1   0.0000
    72 C59     14.5329   9.0212   7.3919   C.3       1 RES1   0.0000
    73 C60     13.4810   9.4048   6.3543   C.3       1 RES1   0.0000
    74 C61     14.0650   9.4902   4.9523   C.3       1 RES1   0.0000
    75 C62     13.0671   9.8484   3.8534   C.3       1 RES1   0.0000
    76 C63     13.7351   9.8325   2.4426   C.3       1 RES1   0.0000
    77 C64     12.8022  10.1551   1.3000   C.3       1 RES1   0.0000
    78 C65     13.5095  10.1870  -0.0554   C.3       1 RES1   0.0000
    79 C66     12.6216  10.5169  -1.2330   C.3       1 RES1   0.0000
    80 C67     13.3435  10.5069  -2.5592   C.3       1 RES1   0.0000
    81 C68     12.4959  10.8547  -3.7834   C.3       1 RES1   0.0000
    82 C69     13.3017  10.8389  -5.0776   C.3       1 RES1   0.0000
    83 C70     12.4257  11.1782  -6.2843   C.3       1 RES1   0.0000
    84 C71     12.7651   6.0848  17.9989   C.3       1 RES1   0.0000
    85 C72     13.3636   4.8342  17.3402   C.3       1 RES1   0.0000
    86 C73     12.8183   3.4899  17.8473   C.3       1 RES1   0.0000
    87 C74     13.1139   3.0836  19.2785   C.3       1 RES1   0.0000
    88 C75     12.9368   1.5691  19.4884   C.3       1 RES1   0.0000
    89 C76     13.4221   0.9970  20.8000   C.3       1 RES1   0.0000
    90 C77     12.5999   1.1467  21.9426   C.3       1 RES1   0.0000
    91 C78     13.2677   0.6518  23.2456   C.3       1 RES1   0.0000
    92 C79     12.4730   0.7234  24.4785   C.3       1 RES1   0.0000
    93 C80     13.2488   0.3202  25.7231   C.3       1 RES1   0.0000
    94 C81     12.5049   0.3326  27.0144   C.3       1 RES1   0.0000
    95 C82     13.3470  -0.0097  28.2240   C.3       1 RES1   0.0000
    96 C83     12.5905  -0.0358  29.5678   C.3       1 RES1   0.0000
    97 C84     13.4406  -0.3867  30.7483   C.3       1 RES1   0.0000
    98 C85     12.6598  -0.3698  32.0803   C.3       1 RES1   0.0000
    99 C86     13.4741  -0.7136  33.2929   C.3       1 RES1   0.0000
   100 C87      4.5507   8.9938  17.2819   C.3       1 RES1   0.0000
   101 C88      5.0061   9.6363  18.5994   C.3       1 RES1   0.0000
   102 C89      5.4837   8.6570  19.6370   C.3       1 RES1   0.0000
   103 C90      5.8827   9.3653  20.9691   C.3       1 RES1   0.0000
   104 C91      6.2449   8.3885  22.0651   C.3       1 RES1   0.0000
   105 C92      6.5483   9.0695  23.4000   C.3       1 RES1   0.0000
   106 C93      6.6534   8.0894  24.5660   C.3       1 RES1   0.0000
   107 C94      6.9292   8.7552  25.8922   C.3       1 RES1   0.0000
   108 C95      6.9020   7.7917  27.0873   C.3       1 RES1   0.0000
   109 C96      7.1395   8.4315  28.4368   C.3       1 RES1   0.0000
   110 C97      7.0655   7.4744  29.6057   C.3       1 RES1   0.0000
   111 C98      7.3026   8.1146  30.9611   C.3       1 RES1   0.0000
   112 C99      7.2320   7.1352  32.1357   C.3       1 RES1   0.0000
   113 C100     7.4847   7.7948  33.4911   C.3       1 RES1   0.0000
   114 C101     7.4171   6.7762  34.6629   C.3       1 RES1   0.0000
   115 C102     7.7750   7.3349  36.0124   C.3       1 RES1   0.0000
   116 C103     2.8144   2.3737  18.3195   C.3       1 RES1   0.0000
   117 C104     3.4080   2.0773  19.6982   C.3       1 RES1   0.0000
   118 C105     3.4498   0.5874  20.0043   C.3       1 RES1   0.0000
   119 C106     4.2217   0.3361  21.3305   C.3       1 RES1   0.0000
   120 C107     3.5147   0.7516  22.6072   C.3       1 RES1   0.0000
   121 C108     4.3588   0.5024  23.8489   C.3       1 RES1   0.0000
   122 C109     3.6010   0.6875  25.1722   C.3       1 RES1   0.0000
   123 C110     4.4627   0.3478  26.3965   C.3       1 RES1   0.0000
   124 C111     3.7050   0.4363  27.7314   C.3       1 RES1   0.0000
   125 C112     4.5616   0.0603  28.9469   C.3       1 RES1   0.0000
   126 C113     3.8393   0.1281  30.2644   C.3       1 RES1   0.0000
   127 C114     4.7350  -0.2034  31.4420   C.3       1 RES1   0.0000
   128 C115     4.0177  -0.1722  32.7945   C.3       1 RES1   0.0000
   129 C116     4.9268  -0.4968  34.0012   C.3       1 RES1   0.0000
   130 C117     4.2367  -0.4664  35.3420   C.3       1 RES1   0.0000
   131 C118     5.1127  -0.8825  36.5167   C.3       1 RES1   0.0000
   132 C119     7.4707   0.7756  17.6346   C.3       1 RES1   0.0000
   133 C120     7.4630   1.2064  19.1065   C.3       1 RES1   0.0000
   134 C121     8.8489   1.5227  19.6837   C.3       1 RES1   0.0000
   135 C122     8.8035   1.9349  21.1440   C.3       1 RES1   0.0000
   136 C123     8.5078   0.8460  22.1467   C.3       1 RES1   0.0000
   137 C124     8.6116   1.3580  23.5953   C.3       1 RES1   0.0000
   138 C125     8.3923   0.2925  24.6767   C.3       1 RES1   0.0000
   139 C126     8.5611   0.8662  26.0788   C.3       1 RES1   0.0000
   140 C127     8.4185  -0.1356  27.2126   C.3       1 RES1   0.0000
   141 C128     8.6346   0.4662  28.6001   C.3       1 RES1   0.0000
   142 C129     8.5139  -0.5272  29.7602   C.3       1 RES1   0.0000
   143 C130     8.7721   0.1071  31.1243   C.3       1 RES1   0.0000
   144 C131     8.6773  -0.8971  32.2698   C.3       1 RES1   0.0000
   145 C132     8.9438  -0.2886  33.6135   C.3       1 RES1   0.0000
   146 C133     8.8742  -1.3539  34.7678   C.3       1 RES1   0.0000
   147 C134     9.1690  -0.8198  36.0678   C.3       1 RES1   0.0000
   148 H1       5.1740   4.3040  13.9546   H         1 RES1   0.0000
   149 H2       3.6639   3.6967  12.2372   H         1 RES1   0.0000
   150 H3       4.2728   4.0382  10.0126   H         1 RES1   0.0000
   151 H4       6.3655   4.7794   9.4276   H         1 RES1   0.0000
   152 H5      11.1980   6.5929  11.6581   H         1 RES1   0.0000
   153 H6      12.7826   7.2177  15.3718   H         1 RES1   0.0000
   154 H7      11.5187   5.8481  20.7082   H         1 RES1   0.0000
   155 H8       9.6437   5.4720  22.0589   H         1 RES1   0.0000
   156 H9       7.5395   5.3034  21.1676   H         1 RES1   0.0000
   157 H10      7.1564   5.4229  18.8492   H         1 RES1   0.0000
   158 H11      9.2875   8.6702  14.1394   H         1 RES1   0.0000
   159 H12      9.3120  11.0254  13.9686   H         1 RES1   0.0000
   160 H13      7.6619  12.2931  15.0098   H         1 RES1   0.0000
   161 H14      5.9070  11.3114  16.1708   H         1 RES1   0.0000
   162 H15      3.7798   6.1671  17.4673   H         1 RES1   0.0000
   163 H16      5.1879   2.3209  17.5113   H         1 RES1   0.0000
   164 H17     10.1724  -0.2315  16.7858   H         1 RES1   0.0000
   165 H18     12.2071   0.0743  15.7359   H         1 RES1   0.0000
   166 H19     12.6684   1.9948  14.5125   H         1 RES1   0.0000
   167 H20     11.0646   3.7380  14.3263   H         1 RES1   0.0000
   168 H21      9.6608   6.5430  10.2097   H         1 RES1   0.0000
   169 H22      8.5248   5.8358   9.3288   H         1 RES1   0.0000
   170 H23      9.5467   3.7110   9.8669   H         1 RES1   0.0000
   171 H24     10.7441   4.5148  10.5496   H         1 RES1   0.0000
   172 H25     11.3338   3.7423   8.3451   H         1 RES1   0.0000
   173 H26     10.1595   4.6272   7.7216   H         1 RES1   0.0000
   174 H27     12.3301   5.6492   9.0621   H         1 RES1   0.0000
   175 H28     11.1915   6.4859   8.3092   H         1 RES1   0.0000
   176 H29     13.2367   6.2307   6.9160   H         1 RES1   0.0000
   177 H30     12.9854   4.6515   6.8827   H         1 RES1   0.0000
   178 H31     11.0128   4.9516   5.6469   H         1 RES1   0.0000
   179 H32     11.1486   6.5384   5.7620   H         1 RES1   0.0000
   180 H33     12.8922   4.8674   4.2463   H         1 RES1   0.0000
   181 H34     13.0981   6.4452   4.4014   H         1 RES1   0.0000
   182 H35     11.0642   6.8302   3.2663   H         1 RES1   0.0000
   183 H36     10.8368   5.2543   3.1276   H         1 RES1   0.0000
   184 H37     12.9874   6.6607   1.8614   H         1 RES1   0.0000
   185 H38     12.7180   5.0937   1.6993   H         1 RES1   0.0000
   186 H39     10.9558   7.1217   0.7631   H         1 RES1   0.0000
   187 H40     10.6883   5.5576   0.5999   H         1 RES1   0.0000
   188 H41     12.8057   6.9477  -0.6850   H         1 RES1   0.0000
   189 H42     12.5153   5.3893  -0.8599   H         1 RES1   0.0000
   190 H43     10.7918   7.4417  -1.7588   H         1 RES1   0.0000
   191 H44     10.5050   5.8838  -1.9360   H         1 RES1   0.0000
   192 H45     12.3224   5.7131  -3.4039   H         1 RES1   0.0000
   193 H46     12.6182   7.2686  -3.2223   H         1 RES1   0.0000
   194 H47     10.2670   6.2558  -4.4920   H         1 RES1   0.0000
   195 H48     10.6250   7.8051  -4.3568   H         1 RES1   0.0000
   196 H49     12.1105   5.9646  -5.9098   H         1 RES1   0.0000
   197 H50     12.4398   7.5213  -5.7897   H         1 RES1   0.0000
   198 H51     10.4583   6.2942  -7.3229   H         1 RES1   0.0000
   199 H52     11.3832   7.5437  -7.7024   H         1 RES1   0.0000
   200 H53     10.1180   7.7466  -6.7437   H         1 RES1   0.0000
   201 H54     12.7104   8.0297  11.0929   H         1 RES1   0.0000
   202 H55     13.5951   6.6913  11.1716   H         1 RES1   0.0000
   203 H56     14.5977   9.3542  11.5485   H         1 RES1   0.0000
   204 H57     15.4951   8.0495  11.7843   H         1 RES1   0.0000
   205 H58     15.4000   7.4917   9.5471   H         1 RES1   0.0000
   206 H59     15.8917   9.0058   9.6588   H         1 RES1   0.0000
   207 H60     13.6236   9.6862   9.1379   H         1 RES1   0.0000
   208 H61     13.3028   8.1506   8.8228   H         1 RES1   0.0000
   209 H62     15.2320   9.7214   7.4013   H         1 RES1   0.0000
   210 H63     14.9620   8.1768   7.1034   H         1 RES1   0.0000
   211 H64     12.7537   8.7324   6.3633   H         1 RES1   0.0000
   212 H65     13.0878  10.2804   6.5974   H         1 RES1   0.0000
   213 H66     14.4764   8.6180   4.7296   H         1 RES1   0.0000
   214 H67     14.7863  10.1683   4.9537   H         1 RES1   0.0000
   215 H68     12.6964  10.7491   4.0300   H         1 RES1   0.0000
   216 H69     12.3183   9.2014   3.8688   H         1 RES1   0.0000
   217 H70     14.4780  10.4865   2.4382   H         1 RES1   0.0000
   218 H71     14.1253   8.9358   2.2890   H         1 RES1   0.0000
   219 H72     12.3816  11.0359   1.4641   H         1 RES1   0.0000
   220 H73     12.0805   9.4768   1.2706   H         1 RES1   0.0000
   221 H74     14.2383  10.8548  -0.0137   H         1 RES1   0.0000
   222 H75     13.9250   9.3016  -0.2137   H         1 RES1   0.0000
   223 H76     12.2240  11.4127  -1.0925   H         1 RES1   0.0000
   224 H77     11.8799   9.8616  -1.2685   H         1 RES1   0.0000
   225 H78     13.7317   9.6068  -2.6968   H         1 RES1   0.0000
   226 H79     14.0952  11.1495  -2.5099   H         1 RES1   0.0000
   227 H80     11.7531  10.2049  -3.8580   H         1 RES1   0.0000
   228 H81     12.1015  11.7539  -3.6592   H         1 RES1   0.0000
   229 H82     13.7026   9.9430  -5.2026   H         1 RES1   0.0000
   230 H83     14.0391  11.4972  -5.0114   H         1 RES1   0.0000
   231 H84     12.0441  10.3538  -6.6527   H         1 RES1   0.0000
   232 H85     12.9690  11.6209  -6.9687   H         1 RES1   0.0000
   233 H86     11.7010  11.7764  -6.0048   H         1 RES1   0.0000
   234 H87     13.0198   6.1035  18.9556   H         1 RES1   0.0000
   235 H88     13.1420   6.8932  17.5678   H         1 RES1   0.0000
   236 H89     13.2007   4.8881  16.3646   H         1 RES1   0.0000
   237 H90     14.3431   4.8465  17.4783   H         1 RES1   0.0000
   238 H91     11.8357   3.5022  17.7348   H         1 RES1   0.0000
   239 H92     13.1713   2.7802  17.2542   H         1 RES1   0.0000
   240 H93     12.5073   3.5719  19.8903   H         1 RES1   0.0000
   241 H94     14.0444   3.3382  19.5067   H         1 RES1   0.0000
   242 H95     11.9733   1.3592  19.3992   H         1 RES1   0.0000
   243 H96     13.4089   1.1013  18.7550   H         1 RES1   0.0000
   244 H97     13.5787   0.0286  20.6645   H         1 RES1   0.0000
   245 H98     14.2988   1.4087  21.0015   H         1 RES1   0.0000
   246 H99     11.7592   0.6428  21.8010   H         1 RES1   0.0000
   247 H100    12.3647   2.1028  22.0450   H         1 RES1   0.0000
   248 H101    13.5389  -0.2904  23.1103   H         1 RES1   0.0000
   249 H102    14.0942   1.1786  23.3834   H         1 RES1   0.0000
   250 H103    11.6842   0.1317  24.3847   H         1 RES1   0.0000
   251 H104    12.1417   1.6496  24.5916   H         1 RES1   0.0000
   252 H105    13.6030  -0.5944  25.5821   H         1 RES1   0.0000
   253 H106    14.0268   0.9257  25.8109   H         1 RES1   0.0000
   254 H107    11.7571  -0.3130  26.9552   H         1 RES1   0.0000
   255 H108    12.1141   1.2328  27.1450   H         1 RES1   0.0000
   256 H109    14.0819   0.6491  28.2899   H         1 RES1   0.0000
   257 H110    13.7566  -0.8993  28.0771   H         1 RES1   0.0000
   258 H111    12.1863   0.8545  29.7225   H         1 RES1   0.0000
   259 H112    11.8521  -0.6928  29.5048   H         1 RES1   0.0000
   260 H113    14.1916   0.2575  30.8077   H         1 RES1   0.0000
   261 H114    13.8266  -1.2876  30.6130   H         1 RES1   0.0000
   262 H115    12.2733   0.5331  32.2083   H         1 RES1   0.0000
   263 H116    11.9088  -1.0098  32.0142   H         1 RES1   0.0000
   264 H117    13.4329  -1.6804  33.4500   H         1 RES1   0.0000
   265 H118    13.1152  -0.2410  34.0729   H         1 RES1   0.0000
   266 H119    14.4055  -0.4457  33.1486   H         1 RES1   0.0000
   267 H120     3.9422   8.2401  17.4827   H         1 RES1   0.0000
   268 H121     4.0402   9.6623  16.7578   H         1 RES1   0.0000
   269 H122     5.7386  10.2732  18.4058   H         1 RES1   0.0000
   270 H123     4.2516  10.1531  18.9777   H         1 RES1   0.0000
   271 H124     6.2661   8.1629  19.2832   H         1 RES1   0.0000
   272 H125     4.7666   7.9993  19.8195   H         1 RES1   0.0000
   273 H126     6.6559   9.9603  20.7986   H         1 RES1   0.0000
   274 H127     5.1284   9.9283  21.2734   H         1 RES1   0.0000
   275 H128     7.0371   7.8670  21.7829   H         1 RES1   0.0000
   276 H129     5.4948   7.7550  22.1913   H         1 RES1   0.0000
   277 H130     7.4016   9.5668  23.3211   H         1 RES1   0.0000
   278 H131     5.8344   9.7267  23.5968   H         1 RES1   0.0000
   279 H132     5.8069   7.5811  24.6324   H         1 RES1   0.0000
   280 H133     7.3788   7.4430  24.3751   H         1 RES1   0.0000
   281 H134     6.2549   9.4650  26.0385   H         1 RES1   0.0000
   282 H135     7.8185   9.1892  25.8520   H         1 RES1   0.0000
   283 H136     6.0212   7.3387  27.1033   H         1 RES1   0.0000
   284 H137     7.5910   7.0947  26.9430   H         1 RES1   0.0000
   285 H138     6.4684   9.1473  28.5718   H         1 RES1   0.0000
   286 H139     8.0335   8.8576  28.4336   H         1 RES1   0.0000
   287 H140     7.7372   6.7594  29.4733   H         1 RES1   0.0000
   288 H141     6.1720   7.0480  29.6106   H         1 RES1   0.0000
   289 H142     6.6279   8.8256  31.1007   H         1 RES1   0.0000
   290 H143     8.1946   8.5439  30.9596   H         1 RES1   0.0000
   291 H144     6.3370   6.7120  32.1480   H         1 RES1   0.0000
   292 H145     7.9020   6.4196  31.9981   H         1 RES1   0.0000
   293 H146     6.8104   8.5044  33.6395   H         1 RES1   0.0000
   294 H147     8.3781   8.2218  33.4844   H         1 RES1   0.0000
   295 H148     6.4988   6.4099  34.7074   H         1 RES1   0.0000
   296 H149     8.0291   6.0250  34.4611   H         1 RES1   0.0000
   297 H150     8.7393   7.2403  36.1602   H         1 RES1   0.0000
   298 H151     7.2893   6.8435  36.7085   H         1 RES1   0.0000
   299 H152     7.5297   8.2823  36.0506   H         1 RES1   0.0000
   300 H153     3.2422   1.8037  17.6322   H         1 RES1   0.0000
   301 H154     1.8413   2.1889  18.3184   H         1 RES1   0.0000
   302 H155     4.3267   2.4424  19.7414   H         1 RES1   0.0000
   303 H156     2.8665   2.5342  20.3896   H         1 RES1   0.0000
   304 H157     3.8975   0.1070  19.2631   H         1 RES1   0.0000
   305 H158     2.5272   0.2371  20.0856   H         1 RES1   0.0000
   306 H159     4.4273  -0.6302  21.3900   H         1 RES1   0.0000
   307 H160     5.0841   0.8196  21.2816   H         1 RES1   0.0000
   308 H161     2.6661   0.2484  22.6859   H         1 RES1   0.0000
   309 H162     3.2923   1.7151  22.5553   H         1 RES1   0.0000
   310 H163     5.1318   1.1206  23.8381   H         1 RES1   0.0000
   311 H164     4.7127  -0.4213  23.8131   H         1 RES1   0.0000
   312 H165     2.7993   0.1065  25.1685   H         1 RES1   0.0000
   313 H166     3.2953   1.6262  25.2405   H         1 RES1   0.0000
   314 H167     5.2340   0.9682  26.4265   H         1 RES1   0.0000
   315 H168     4.8194  -0.5698  26.2921   H         1 RES1   0.0000
   316 H169     3.3699   1.3601  27.8498   H         1 RES1   0.0000
   317 H170     2.9197  -0.1662  27.6944   H         1 RES1   0.0000
   318 H171     4.9019  -0.8613  28.8204   H         1 RES1   0.0000
   319 H172     5.3434   0.6657  28.9819   H         1 RES1   0.0000
   320 H173     3.0781  -0.5038  30.2507   H         1 RES1   0.0000
   321 H174     3.4733   1.0405  30.3863   H         1 RES1   0.0000
   322 H175     5.4851   0.4422  31.4636   H         1 RES1   0.0000
   323 H176     5.1189  -1.1056  31.3050   H         1 RES1   0.0000
   324 H177     3.2723  -0.8241  32.7749   H         1 RES1   0.0000
   325 H178     3.6249   0.7273  32.9262   H         1 RES1   0.0000
   326 H179     5.3162  -1.3969  33.8686   H         1 RES1   0.0000
   327 H180     5.6733   0.1527  34.0161   H         1 RES1   0.0000
   328 H181     3.4499  -1.0650  35.3070   H         1 RES1   0.0000
   329 H182     3.9056   0.4530  35.5058   H         1 RES1   0.0000
   330 H183     5.0385  -1.8499  36.6528   H         1 RES1   0.0000
   331 H184     4.8172  -0.4154  37.3267   H         1 RES1   0.0000
   332 H185     6.0456  -0.6495  36.3281   H         1 RES1   0.0000
   333 H186     7.9310  -0.0974  17.5564   H         1 RES1   0.0000
   334 H187     6.5376   0.6547  17.3285   H         1 RES1   0.0000
   335 H188     7.0535   0.4838  19.6452   H         1 RES1   0.0000
   336 H189     6.8908   2.0091  19.1986   H         1 RES1   0.0000
   337 H190     9.4253   0.7238  19.5916   H         1 RES1   0.0000
   338 H191     9.2576   2.2534  19.1549   H         1 RES1   0.0000
   339 H192     9.6776   2.3388  21.3772   H         1 RES1   0.0000
   340 H193     8.1173   2.6411  21.2448   H         1 RES1   0.0000
   341 H194     9.1468   0.1004  22.0176   H         1 RES1   0.0000
   342 H195     7.5955   0.4954  21.9887   H         1 RES1   0.0000
   343 H196     9.5077   1.7574  23.7236   H         1 RES1   0.0000
   344 H197     7.9432   2.0774  23.7221   H         1 RES1   0.0000
   345 H198     7.4813  -0.0831  24.5861   H         1 RES1   0.0000
   346 H199     9.0408  -0.4436  24.5467   H         1 RES1   0.0000
   347 H200     9.4557   1.2842  26.1400   H         1 RES1   0.0000
   348 H201     7.8884   1.5818  26.2061   H         1 RES1   0.0000
   349 H202     9.0717  -0.8669  27.0759   H         1 RES1   0.0000
   350 H203     7.5116  -0.5327  27.1753   H         1 RES1   0.0000
   351 H204     7.9746   1.1916  28.7353   H         1 RES1   0.0000
   352 H205     9.5365   0.8758  28.6277   H         1 RES1   0.0000
   353 H206     7.6049  -0.9186  29.7546   H         1 RES1   0.0000
   354 H207     9.1609  -1.2642  29.6208   H         1 RES1   0.0000
   355 H208     8.1140   0.8317  31.2721   H         1 RES1   0.0000
   356 H209     9.6752   0.5147  31.1240   H         1 RES1   0.0000
   357 H210     7.7716  -1.2968  32.2739   H         1 RES1   0.0000
   358 H211     9.3283  -1.6268  32.1141   H         1 RES1   0.0000
   359 H212     8.2786   0.4236  33.7861   H         1 RES1   0.0000
   360 H213     9.8421   0.1291  33.6089   H         1 RES1   0.0000
   361 H214     7.9669  -1.7482  34.7838   H         1 RES1   0.0000
   362 H215     9.5153  -2.0818  34.5696   H         1 RES1   0.0000
   363 H216    10.1351  -0.8649  36.2281   H         1 RES1   0.0000
   364 H217     8.7001  -1.3438  36.7501   H         1 RES1   0.0000
   365 H218     8.8740   0.1136  36.1121   H         1 RES1   0.0000
   366 F1      14.1990   2.3100  12.3492   F         2 RES2   0.0000
   367 F2      12.8822   3.9698  11.6417   F         2 RES2   0.0000
   368 F3      13.9807   4.2638  13.4547   F         2 RES2   0.0000
   369 F4      15.0484   4.2565  11.5397   F         2 RES2   0.0000
   370 B1      14.0573   3.7290  12.2130   B         2 RES2  -1.0000
   371 F5      15.5228   7.6050  18.3359   F         3 RES3   0.0000
   372 F6      14.0002   8.7270  16.9948   F         3 RES3   0.0000
   373 F7      14.0058   9.1326  19.1736   F         3 RES3   0.0000
   374 F8      15.7203   9.8588  17.9523   F         3 RES3   0.0000
   375 B2      14.7638   8.8900  18.1884   B         3 RES3  -1.0000
   376 O3      16.1943   3.2563  15.0637   O.3       4 RES4   0.0000
   377 O4      17.3959   1.4340  13.9124   O.3       5 RES5   0.0000
@<TRIPOS>BOND
     1     1     4    1
     2     2    23    1
     3     3    42    1
     4     4    14    1
     5     5    19    1
     6     6     1    1
     7     7     1    1
     8     8    26    1
     9     9     1    1
    10    10    38    1
    11    11     1    1
    12    12     1    1
    13    13    45    1
    14    14    15   ar
    15    15    16   ar
    16    16    17   ar
    17    17    18   ar
    18    18    19   ar
    19    19    14   ar
    20    20     4    2
    21    21     6   ar
    22    22    21   ar
    23    23    22   ar
    24    24    23   ar
    25    25     6   ar
    26    26     7    2
    27    27     8    1
    28    28    27   ar
    29    29    28   ar
    30    30    29   ar
    31    31    30   ar
    32    32     7    1
    33    33     9    1
    34    34    33   ar
    35    35    34   ar
    36    36    35   ar
    37    37    36   ar
    38    38    33   ar
    39    39     9    2
    40    40    11   ar
    41    41    40   ar
    42    42    41   ar
    43    43    42   ar
    44    44    11   ar
    45    45    12    2
    46    46    13    1
    47    47    46   ar
    48    48    47   ar
    49    49    48   ar
    50    50    49   ar
    51    51    12    1
    52    52     5    1
    53    53    52    1
    54    54    53    1
    55    55    54    1
    56    56    55    1
    57    57    56    1
    58    58    57    1
    59    59    58    1
    60    60    59    1
    61    61    60    1
    62    62    61    1
    63    63    62    1
    64    64    63    1
    65    65    64    1
    66    66    65    1
    67    67    66    1
    68    68     2    1
    69    69    68    1
    70    70    69    1
    71    71    70    1
    72    72    71    1
    73    73    72    1
    74    74    73    1
    75    75    74    1
    76    76    75    1
    77    77    76    1
    78    78    77    1
    79    79    78    1
    80    80    79    1
    81    81    80    1
    82    82    81    1
    83    83    82    1
    84    84     8    1
    85    85    84    1
    86    86    85    1
    87    87    86    1
    88    88    87    1
    89    89    88    1
    90    90    89    1
    91    91    90    1
    92    92    91    1
    93    93    92    1
    94    94    93    1
    95    95    94    1
    96    96    95    1
    97    97    96    1
    98    98    97    1
    99    99    98    1
   100   100    10    1
   101   101   100    1
   102   102   101    1
   103   103   102    1
   104   104   103    1
   105   105   104    1
   106   106   105    1
   107   107   106    1
   108   108   107    1
   109   109   108    1
   110   110   109    1
   111   111   110    1
   112   112   111    1
   113   113   112    1
   114   114   113    1
   115   115   114    1
   116   116     3    1
   117   117   116    1
   118   118   117    1
   119   119   118    1
   120   120   119    1
   121   121   120    1
   122   122   121    1
   123   123   122    1
   124   124   123    1
   125   125   124    1
   126   126   125    1
   127   127   126    1
   128   128   127    1
   129   129   128    1
   130   130   129    1
   131   131   130    1
   132   132    13    1
   133   133   132    1
   134   134   133    1
   135   135   134    1
   136   136   135    1
   137   137   136    1
   138   138   137    1
   139   139   138    1
   140   140   139    1
   141   141   140    1
   142   142   141    1
   143   143   142    1
   144   144   143    1
   145   145   144    1
   146   146   145    1
   147   147   146    1
   148   148    15    1
   149   149    16    1
   150   150    17    1
   151   151    18    1
   152   152    22    1
   153   153    24    1
   154   154    28    1
   155   155    29    1
   156   156    30    1
   157   157    31    1
   158   158    34    1
   159   159    35    1
   160   160    36    1
   161   161    37    1
   162   162    41    1
   163   163    43    1
   164   164    47    1
   165   165    48    1
   166   166    49    1
   167   167    50    1
   168   168    52    1
   169   169    52    1
   170   170    53    1
   171   171    53    1
   172   172    54    1
   173   173    54    1
   174   174    55    1
   175   175    55    1
   176   176    56    1
   177   177    56    1
   178   178    57    1
   179   179    57    1
   180   180    58    1
   181   181    58    1
   182   182    59    1
   183   183    59    1
   184   184    60    1
   185   185    60    1
   186   186    61    1
   187   187    61    1
   188   188    62    1
   189   189    62    1
   190   190    63    1
   191   191    63    1
   192   192    64    1
   193   193    64    1
   194   194    65    1
   195   195    65    1
   196   196    66    1
   197   197    66    1
   198   198    67    1
   199   199    67    1
   200   200    67    1
   201   201    68    1
   202   202    68    1
   203   203    69    1
   204   204    69    1
   205   205    70    1
   206   206    70    1
   207   207    71    1
   208   208    71    1
   209   209    72    1
   210   210    72    1
   211   211    73    1
   212   212    73    1
   213   213    74    1
   214   214    74    1
   215   215    75    1
   216   216    75    1
   217   217    76    1
   218   218    76    1
   219   219    77    1
   220   220    77    1
   221   221    78    1
   222   222    78    1
   223   223    79    1
   224   224    79    1
   225   225    80    1
   226   226    80    1
   227   227    81    1
   228   228    81    1
   229   229    82    1
   230   230    82    1
   231   231    83    1
   232   232    83    1
   233   233    83    1
   234   234    84    1
   235   235    84    1
   236   236    85    1
   237   237    85    1
   238   238    86    1
   239   239    86    1
   240   240    87    1
   241   241    87    1
   242   242    88    1
   243   243    88    1
   244   244    89    1
   245   245    89    1
   246   246    90    1
   247   247    90    1
   248   248    91    1
   249   249    91    1
   250   250    92    1
   251   251    92    1
   252   252    93    1
   253   253    93    1
   254   254    94    1
   255   255    94    1
   256   256    95    1
   257   257    95    1
   258   258    96    1
   259   259    96    1
   260   260    97    1
   261   261    97    1
   262   262    98    1
   263   263    98    1
   264   264    99    1
   265   265    99    1
   266   266    99    1
   267   267   100    1
   268   268   100    1
   269   269   101    1
   270   270   101    1
   271   271   102    1
   272   272   102    1
   273   273   103    1
   274   274   103    1
   275   275   104    1
   276   276   104    1
   277   277   105    1
   278   278   105    1
   279   279   106    1
   280   280   106    1
   281   281   107    1
   282   282   107    1
   283   283   108    1
   284   284   108    1
   285   285   109    1
   286   286   109    1
   287   287   110    1
   288   288   110    1
   289   289   111    1
   290   290   111    1
   291   291   112    1
   292   292   112    1
   293   293   113    1
   294   294   113    1
   295   295   114    1
   296   296   114    1
   297   297   115    1
   298   298   115    1
   299   299   115    1
   300   300   116    1
   301   301   116    1
   302   302   117    1
   303   303   117    1
   304   304   118    1
   305   305   118    1
   306   306   119    1
   307   307   119    1
   308   308   120    1
   309   309   120    1
   310   310   121    1
   311   311   121    1
   312   312   122    1
   313   313   122    1
   314   314   123    1
   315   315   123    1
   316   316   124    1
   317   317   124    1
   318   318   125    1
   319   319   125    1
   320   320   126    1
   321   321   126    1
   322   322   127    1
   323   323   127    1
   324   324   128    1
   325   325   128    1
   326   326   129    1
   327   327   129    1
   328   328   130    1
   329   329   130    1
   330   330   131    1
   331   331   131    1
   332   332   131    1
   333   333   132    1
   334   334   132    1
   335   335   133    1
   336   336   133    1
   337   337   134    1
   338   338   134    1
   339   339   135    1
   340   340   135    1
   341   341   136    1
   342   342   136    1
   343   343   137    1
   344   344   137    1
   345   345   138    1
   346   346   138    1
   347   347   139    1
   348   348   139    1
   349   349   140    1
   350   350   140    1
   351   351   141    1
   352   352   141    1
   353   353   142    1
   354   354   142    1
   355   355   143    1
   356   356   143    1
   357   357   144    1
   358   358   144    1
   359   359   145    1
   360   360   145    1
   361   361   146    1
   362   362   146    1
   363   363   147    1
   364   364   147    1
   365   365   147    1
   366     5    20    1
   367    10    39    1
   368    20    21    1
   369    24    25   ar
   370    25    26    1
   371    27    32   ar
   372    31    32   ar
   373    37    38   ar
   374    39    40    1
   375    43    44   ar
   376    44    45    1
   377    46    51   ar
   378    50    51   ar
   379   366   370    1
   380   367   370    1
   381   368   370    1
   382   369   370    1
   383   371   375    1
   384   372   375    1
   385   373   375    1
   386   374   375    1
@<TRIPOS>SUBSTRUCTURE
     1 RES1        1 GROUP             0 ****  ****    0  
     2 RES2      366 GROUP             0 ****  ****    0  
     3 RES3      371 GROUP             0 ****  ****    0  
     4 RES4      376 GROUP             0 ****  ****    0  
     5 RES5      377 GROUP             0 ****  ****    0  
@<TRIPOS>CRYSIN
   13.8289   17.3327   29.6080   83.0440   80.7050   69.4770     2     1
