@<TRIPOS>MOLECULE
EHOPIA
    94    92     8     0     0
SMALL
USER_CHARGES
****
Generated from the CSD

@<TRIPOS>ATOM
     1 Fe1      6.1153  -1.1190  12.3197   Fe        1 RES1   0.0000
     2 N1       7.2612  -0.2669  13.1652   N.2       1 RES1   0.0000
     3 O1       8.0947   0.2753  13.7042   O.2       1 RES1   0.0000
     4 C1       4.9913   0.3622  11.8121   C.1       1 RES1   0.0000
     5 N2       4.2894   1.2077  11.4599   N.1       1 RES1  -1.0000
     6 C2       7.0667  -0.9556  10.6428   C.1       1 RES1   0.0000
     7 N3       7.6206  -0.8885   9.6390   N.1       1 RES1   0.0000
     8 C3       4.8788  -2.1738  11.2773   C.1       1 RES1   0.0000
     9 N4       4.1809  -2.8366  10.6271   N.1       1 RES1  -1.0000
    10 C4       6.9926  -2.8086  12.6048   C.1       1 RES1   0.0000
    11 N5       7.4928  -3.8391  12.7218   N.1       1 RES1   0.0000
    12 C5       4.9443  -1.4587  13.8226   C.1       1 RES1   0.0000
    13 N6       4.2378  -1.6786  14.7123   N.1       1 RES1   0.0000
    14 C6       3.2886  -5.4465  14.9091   C.ar      2 RES2   0.0000
    15 C7       3.7742  -4.9525  13.7156   C.ar      2 RES2   0.0000
    16 C8       3.8399  -6.6054  15.4623   C.ar      2 RES2   0.0000
    17 C9       2.1710  -4.7635  15.6177   C.2       2 RES2   0.0000
    18 N7       1.2068  -5.4991  16.1111   N.pl3     2 RES2   1.0000
    19 C10      0.0836  -4.9064  16.8226   C.3       2 RES2   0.0000
    20 C11     -0.0921  -3.5842  16.5132   C.3       2 RES2   0.0000
    21 C12      1.0357  -2.7090  16.2637   C.3       2 RES2   0.0000
    22 N8       2.1697  -3.4524  15.7076   N.pl3     2 RES2   0.0000
    23 H1       3.4074  -4.1566  13.3477   H         2 RES2   0.0000
    24 H2       3.5150  -6.9402  16.2908   H         2 RES2   0.0000
    25 H3       0.2389  -4.9818  17.7566   H         2 RES2   0.0000
    26 H4      -0.7072  -5.3802  16.5931   H         2 RES2   0.0000
    27 H5      -0.5741  -3.2007  17.2361   H         2 RES2   0.0000
    28 H6      -0.6272  -3.5611  15.7275   H         2 RES2   0.0000
    29 H7       1.3016  -2.3060  17.0821   H         2 RES2   0.0000
    30 H8       0.7753  -2.0348  15.6491   H         2 RES2   0.0000
    31 H17      1.2410  -6.4427  16.0042   H         2 RES2   0.0000
    32 H18      2.9290  -2.9700  15.4010   H         2 RES2   0.0000
    33 C8A      4.7941  -5.6131  13.0554   C.ar      2 RES2   0.0000
    34 C6A      5.3454  -6.7721  13.6087   C.ar      2 RES2   0.0000
    35 C7A      4.8598  -7.2661  14.8021   C.ar      2 RES2   0.0000
    36 H1A      5.2266  -8.0620  15.1700   H         2 RES2   0.0000
    37 C9A      6.4630  -7.4551  12.9000   C.2       2 RES2   0.0000
    38 N7A      7.4272  -6.7195  12.4066   N.pl3     2 RES2   0.0000
    39 C10A     8.5504  -7.3122  11.6951   C.3       2 RES2   0.0000
    40 C11A     8.7261  -8.6344  12.0045   C.3       2 RES2   0.0000
    41 C12A     7.5983  -9.5096  12.2541   C.3       2 RES2   0.0000
    42 N8A      6.4643  -8.7661  12.8102   N.pl3     2 RES2   1.0000
    43 H18A     5.7050  -9.2486  13.1167   H         2 RES2   0.0000
    44 H7A      7.3324  -9.9126  11.4356   H         2 RES2   0.0000
    45 H8A      7.8587 -10.1838  12.8686   H         2 RES2   0.0000
    46 H5A      9.2081  -9.0179  11.2816   H         2 RES2   0.0000
    47 H6A      9.2612  -8.6575  12.7902   H         2 RES2   0.0000
    48 H3A      8.3951  -7.2367  10.7612   H         2 RES2   0.0000
    49 H4A      9.3412  -6.8384  11.9247   H         2 RES2   0.0000
    50 H17A     7.3930  -5.7759  12.5136   H         2 RES2   0.0000
    51 H2A      5.1190  -5.2783  12.2270   H         2 RES2   0.0000
    52 C13      8.1636   0.5148  20.8550   C.ar      3 RES3   0.0000
    53 C14      7.7828   1.6964  20.2376   C.ar      3 RES3   0.0000
    54 C15      7.4969   0.0793  22.0029   C.ar      3 RES3   0.0000
    55 C16      9.2714  -0.2995  20.3004   C.2       3 RES3   0.0000
    56 N9      10.1315  -0.8421  21.1416   N.pl3     3 RES3   1.0000
    57 C17     11.2403  -1.6667  20.6725   C.3       3 RES3   0.0000
    58 C18     11.7134  -1.1447  19.3407   C.3       3 RES3   0.0000
    59 C19     10.5378  -1.1222  18.3811   C.3       3 RES3   0.0000
    60 N10      9.3910  -0.4624  19.0042   N.pl3     3 RES3   0.0000
    61 H9       8.2266   1.9876  19.4491   H         3 RES3   0.0000
    62 H10      7.7506  -0.7375  22.4164   H         3 RES3   0.0000
    63 H11     10.9502  -2.5665  20.5770   H         3 RES3   0.0000
    64 H12     11.9528  -1.6296  21.2999   H         3 RES3   0.0000
    65 H13     12.3945  -1.7115  18.9985   H         3 RES3   0.0000
    66 H14     12.0567  -0.2652  19.4463   H         3 RES3   0.0000
    67 H15     10.3011  -2.0132  18.1530   H         3 RES3   0.0000
    68 H16     10.7830  -0.6487  17.5940   H         3 RES3   0.0000
    69 H19     10.0259  -0.6924  22.0742   H         3 RES3   0.0000
    70 H20      8.6985  -0.1341  18.4424   H         3 RES3   0.0000
    71 C15A     6.7541   2.4512  20.7738   C.ar      3 RES3   0.0000
    72 C13A     6.0874   2.0157  21.9216   C.ar      3 RES3   0.0000
    73 C14A     6.4682   0.8341  22.5390   C.ar      3 RES3   0.0000
    74 H9A      6.0245   0.5428  23.3275   H         3 RES3   0.0000
    75 C16A     4.9797   2.8300  22.4763   C.2       3 RES3   0.0000
    76 N9A      4.1196   3.3726  21.6350   N.pl3     3 RES3   0.0000
    77 C17A     3.0107   4.1972  22.1041   C.3       3 RES3   0.0000
    78 C18A     2.5376   3.6752  23.4359   C.3       3 RES3   0.0000
    79 C19A     3.7133   3.6527  24.3955   C.3       3 RES3   0.0000
    80 N10A     4.8601   2.9929  23.7724   N.pl3     3 RES3   1.0000
    81 H20A     5.5526   2.6646  24.3342   H         3 RES3   0.0000
    82 H15A     3.9499   4.5437  24.6237   H         3 RES3   0.0000
    83 H16A     3.4681   3.1792  25.1826   H         3 RES3   0.0000
    84 H13A     1.8565   4.2420  23.7781   H         3 RES3   0.0000
    85 H14A     2.1943   2.7957  23.3304   H         3 RES3   0.0000
    86 H11A     3.3009   5.0969  22.1996   H         3 RES3   0.0000
    87 H12A     2.2983   4.1601  21.4767   H         3 RES3   0.0000
    88 H19A     4.2251   3.2229  20.7025   H         3 RES3   0.0000
    89 H10A     6.5004   3.2680  20.3603   H         3 RES3   0.0000
    90 O2       6.0310  -4.5044   8.9731   O.3       4 RES4   0.0000
    91 O3       3.2565  -4.9739  19.0185   O.3       5 RES5   0.0000
    92 O4       7.9623  -3.5404  20.4501   O.3       6 RES6   0.0000
    93 O5       5.7941  -5.3423  20.0779   O.3       7 RES7   0.0000
    94 O6       6.6050  -7.7718  18.8531   O.3       8 RES8   0.0000
@<TRIPOS>BOND
     1     1     2    1
     2     2     3    2
     3     4     1    1
     4     5     4    3
     5     6     1    1
     6     7     6    3
     7     8     1    1
     8     9     8    3
     9    10     1    1
    10    11    10    3
    11    12     1    1
    12    13    12    3
    13    14    15   ar
    14    15    23    1
    15    16    14   ar
    16    17    14    1
    17    18    17   un
    18    19    18    1
    19    20    19    1
    20    21    20    1
    21    22    17   un
    22    24    16    1
    23    25    19    1
    24    26    19    1
    25    27    20    1
    26    28    20    1
    27    29    21    1
    28    30    21    1
    29    31    18    1
    30    32    22    1
    31    33    15   ar
    32    34    33   ar
    33    35    16   ar
    34    36    35    1
    35    37    34    1
    36    38    37   un
    37    39    38    1
    38    40    39    1
    39    41    40    1
    40    42    37   un
    41    43    42    1
    42    44    41    1
    43    45    41    1
    44    46    40    1
    45    47    40    1
    46    48    39    1
    47    49    39    1
    48    50    38    1
    49    51    33    1
    50    21    22    1
    51    34    35   ar
    52    41    42    1
    53    52    53   ar
    54    53    61    1
    55    54    52   ar
    56    55    52    1
    57    56    55   un
    58    57    56    1
    59    58    57    1
    60    59    58    1
    61    60    55   un
    62    62    54    1
    63    63    57    1
    64    64    57    1
    65    65    58    1
    66    66    58    1
    67    67    59    1
    68    68    59    1
    69    69    56    1
    70    70    60    1
    71    71    53   ar
    72    72    71   ar
    73    73    54   ar
    74    74    73    1
    75    75    72    1
    76    76    75   un
    77    77    76    1
    78    78    77    1
    79    79    78    1
    80    80    75   un
    81    81    80    1
    82    82    79    1
    83    83    79    1
    84    84    78    1
    85    85    78    1
    86    86    77    1
    87    87    77    1
    88    88    76    1
    89    89    71    1
    90    59    60    1
    91    72    73   ar
    92    79    80    1
@<TRIPOS>SUBSTRUCTURE
     1 RES1        1 GROUP             0 ****  ****    0  
     2 RES2       14 GROUP             0 ****  ****    0  
     3 RES3       52 GROUP             0 ****  ****    0  
     4 RES4       90 GROUP             0 ****  ****    0  
     5 RES5       91 GROUP             0 ****  ****    0  
     6 RES6       92 GROUP             0 ****  ****    0  
     7 RES7       93 GROUP             0 ****  ****    0  
     8 RES8       94 GROUP             0 ****  ****    0  
@<TRIPOS>CRYSIN
    6.6651   14.2444   14.5059   84.5740   79.9610   77.4780     2     1
