@<TRIPOS>MOLECULE
EHULEA
   109   115     2     0     0
SMALL
NO_CHARGES
****
Generated from the CSD

@<TRIPOS>ATOM
     1 Fe1      4.9939  10.0972  10.5174   Fe        1 RES1   0.0000
     2 S1       5.6852  13.5140  10.9050   S.o2      1 RES1   0.0000
     3 Si1      4.0474   8.8250  16.2419   Si        1 RES1   0.0000
     4 N1       5.9912   9.7947   8.6435   N.2       1 RES1   0.0000
     5 O1       5.7132  12.1219  10.5228   O.3       1 RES1   0.0000
     6 C1       6.7182  10.4618   7.6475   C.ar      1 RES1   0.0000
     7 F1       7.7286  13.0938  12.4439   F         1 RES1   0.0000
     8 S2       7.9343   8.8700  11.3892   S.o2      1 RES1   0.0000
     9 N2       6.5595   8.3278   7.0576   N.pl3     1 RES1   0.0000
    10 C2       7.0800  11.7944   7.5427   C.ar      1 RES1   0.0000
    11 H1       6.8620  12.4207   8.2245   H         1 RES1   0.0000
    12 F2       6.5062  14.7630  13.0112   F         1 RES1   0.0000
    13 O2       6.5398  14.3434  10.1311   O.2       1 RES1   0.0000
    14 N3       4.2007   8.1120   9.8700   N.3       1 RES1   0.0000
    15 C3       7.7667  12.1762   6.4145   C.ar      1 RES1   0.0000
    16 H2       8.0114  13.0878   6.3082   H         1 RES1   0.0000
    17 F3       5.8231  12.7920  13.3722   F         1 RES1   0.0000
    18 O3       4.3758  14.0401  11.1223   O.2       1 RES1   0.0000
    19 O4       6.4990   9.0914  11.6171   O.3       1 RES1   0.0000
    20 N4       2.9856  10.7093   9.8426   N.3       1 RES1   0.0000
    21 F4       8.1873   8.5798  13.9621   F         1 RES1   0.0000
    22 C4       8.1099  11.2692   5.4282   C.ar      1 RES1   0.0000
    23 H3       8.5834  11.5756   4.6642   H         1 RES1   0.0000
    24 N5       3.8907  10.2792  12.3714   N.ar      1 RES1   0.0000
    25 O5       8.7076  10.0513  11.4849   O.2       1 RES1   0.0000
    26 C5       7.7845   9.9275   5.5233   C.ar      1 RES1   0.0000
    27 H4       8.0350   9.2997   4.8544   H         1 RES1   0.0000
    28 F5       7.6835   6.7869  12.9161   F         1 RES1   0.0000
    29 O6       8.2298   8.0003  10.3020   O.2       1 RES1   0.0000
    30 C6       7.0683   9.5502   6.6579   C.ar      1 RES1   0.0000
    31 F6       9.6968   7.5973  12.7936   F         1 RES1   0.0000
    32 C7       6.6268   7.0827   6.2904   C.3       1 RES1   0.0000
    33 H5       5.7455   6.6556   6.2824   H         1 RES1   0.0000
    34 H6       7.2796   6.4790   6.7030   H         1 RES1   0.0000
    35 H7       6.9015   7.2804   5.3702   H         1 RES1   0.0000
    36 C8       5.9267   8.5285   8.2406   C.2       1 RES1   0.0000
    37 C9       5.2583   7.4690   9.0400   C.3       1 RES1   0.0000
    38 H8       5.9189   7.0163   9.6218   H         1 RES1   0.0000
    39 H9       4.8551   6.7944   8.4404   H         1 RES1   0.0000
    40 C10      3.7055   7.1823  10.9176   C.3       1 RES1   0.0000
    41 H10      3.2347   7.6803  11.6316   H         1 RES1   0.0000
    42 H11      4.4565   6.6797  11.3205   H         1 RES1   0.0000
    43 C11      2.7398   6.2285  10.1940   C.3       1 RES1   0.0000
    44 H12      3.2157   5.4195   9.8781   H         1 RES1   0.0000
    45 H13      2.0037   5.9508  10.7951   H         1 RES1   0.0000
    46 C12      2.2046   7.0329   9.0190   C.3       1 RES1   0.0000
    47 H14      1.2366   7.2079   9.1319   H         1 RES1   0.0000
    48 H15      2.3387   6.5379   8.1713   H         1 RES1   0.0000
    49 C13      2.9899   8.3534   8.9981   C.3       1 RES1   0.0000
    50 H16      3.2812   8.5602   8.0633   H         1 RES1   0.0000
    51 C14      2.1490   9.4989   9.5445   C.3       1 RES1   0.0000
    52 H17      1.6772   9.2031  10.3745   H         1 RES1   0.0000
    53 C15      1.1089   9.9456   8.4807   C.3       1 RES1   0.0000
    54 H18      1.0627   9.2891   7.7410   H         1 RES1   0.0000
    55 H19      0.2100  10.0317   8.8885   H         1 RES1   0.0000
    56 C16      1.5991  11.3054   7.9666   C.3       1 RES1   0.0000
    57 H20      0.9962  12.0313   8.2648   H         1 RES1   0.0000
    58 H21      1.6413  11.3115   6.9786   H         1 RES1   0.0000
    59 C17      3.0029  11.4775   8.5742   C.3       1 RES1   0.0000
    60 H22      3.6945  11.1213   7.9602   H         1 RES1   0.0000
    61 H23      3.1930  12.4328   8.7483   H         1 RES1   0.0000
    62 C18      2.3649  11.4790  10.9386   C.3       1 RES1   0.0000
    63 H24      1.3824  11.4835  10.8193   H         1 RES1   0.0000
    64 H25      2.6818  12.4162  10.9031   H         1 RES1   0.0000
    65 C19      2.6991  10.8934  12.2827   C.ar      1 RES1   0.0000
    66 C20      1.8451  10.9824  13.3755   C.ar      1 RES1   0.0000
    67 H26      1.0076  11.4231  13.2997   H         1 RES1   0.0000
    68 C21      2.2345  10.4150  14.5778   C.ar      1 RES1   0.0000
    69 H27      1.6632  10.4859  15.3337   H         1 RES1   0.0000
    70 C22      3.4529   9.7434  14.7019   C.ar      1 RES1   0.0000
    71 C23      4.2353   9.7374  13.5479   C.ar      1 RES1   0.0000
    72 H28      5.0840   9.3133  13.6011   H         1 RES1   0.0000
    73 C24      5.1333  10.0075  17.2371   C.3       1 RES1   0.0000
    74 H29      5.4497   9.5110  18.0445   H         1 RES1   0.0000
    75 C25      4.3472  11.1937  17.7238   C.3       1 RES1   0.0000
    76 H30      4.9550  11.8397  18.1412   H         1 RES1   0.0000
    77 H31      3.6825  10.8979  18.3798   H         1 RES1   0.0000
    78 H32      3.8924  11.6178  16.9647   H         1 RES1   0.0000
    79 C26      6.3693  10.4467  16.4635   C.3       1 RES1   0.0000
    80 H33      6.9526  10.9719  17.0501   H         1 RES1   0.0000
    81 H34      6.0983  10.9945  15.6979   H         1 RES1   0.0000
    82 H35      6.8530   9.6559  16.1443   H         1 RES1   0.0000
    83 C27      5.0855   7.3830  15.6060   C.3       1 RES1   0.0000
    84 H36      5.7370   7.7920  14.9662   H         1 RES1   0.0000
    85 C28      5.9488   6.6963  16.6730   C.3       1 RES1   0.0000
    86 H37      6.6277   6.1409  16.2362   H         1 RES1   0.0000
    87 H38      5.3805   6.1334  17.2403   H         1 RES1   0.0000
    88 H39      6.3876   7.3755  17.2258   H         1 RES1   0.0000
    89 C29      4.2955   6.3749  14.7809   C.3       1 RES1   0.0000
    90 H40      4.9165   5.7833  14.3070   H         1 RES1   0.0000
    91 H41      3.7382   6.8503  14.1297   H         1 RES1   0.0000
    92 H42      3.7239   5.8436  15.3740   H         1 RES1   0.0000
    93 C30      2.5587   8.3278  17.2693   C.3       1 RES1   0.0000
    94 H43      2.1240   9.1774  17.5675   H         1 RES1   0.0000
    95 C31      1.4716   7.5098  16.5489   C.3       1 RES1   0.0000
    96 H44      0.6542   7.5053  17.0920   H         1 RES1   0.0000
    97 H45      1.7855   6.5907  16.4216   H         1 RES1   0.0000
    98 H46      1.2818   7.9142  15.6770   H         1 RES1   0.0000
    99 C32      3.0039   7.5837  18.5619   C.3       1 RES1   0.0000
   100 H47      2.2699   7.5913  19.2114   H         1 RES1   0.0000
   101 H48      3.7840   8.0335  18.9471   H         1 RES1   0.0000
   102 H49      3.2364   6.6571  18.3427   H         1 RES1   0.0000
   103 C33      6.4835  13.5209  12.5196   C.3       1 RES1   0.0000
   104 C34      8.3890   7.9127  12.8404   C.3       1 RES1   0.0000
   105 Cl1      4.0429   9.9502   5.2544   Cl        2 RES2   0.0000
   106 Cl2      2.0673  10.8481   3.3620   Cl        2 RES2   0.0000
   107 C35      2.5061   9.6196   4.4531   C.3       2 RES2   0.0000
   108 H50      2.5716   8.7609   3.9664   H         2 RES2   0.0000
   109 H51      1.7970   9.5276   5.1381   H         2 RES2   0.0000
@<TRIPOS>BOND
     1     1     4    1
     2     2     5    1
     3     3    70    1
     4     4     6    1
     5     5     1    1
     6     6    10   ar
     7     7   103    1
     8     8    19    1
     9     9    30    1
    10    10    11    1
    11    12   103    1
    12    13     2    2
    13    14     1    1
    14    15    10   ar
    15    16    15    1
    16    17   103    1
    17    18     2    2
    18    19     1    1
    19    20     1    1
    20    21   104    1
    21    22    15   ar
    22    23    22    1
    23    24     1    1
    24    25     8    2
    25    26    22   ar
    26    27    26    1
    27    28   104    1
    28    29     8    2
    29    30     6   ar
    30    31   104    1
    31    32     9    1
    32    33    32    1
    33    34    32    1
    34    35    32    1
    35    36     4    2
    36    37    14    1
    37    38    37    1
    38    39    37    1
    39    40    14    1
    40    41    40    1
    41    42    40    1
    42    43    40    1
    43    44    43    1
    44    45    43    1
    45    46    43    1
    46    47    46    1
    47    48    46    1
    48    49    14    1
    49    50    49    1
    50    51    20    1
    51    52    51    1
    52    53    51    1
    53    54    53    1
    54    55    53    1
    55    56    53    1
    56    57    56    1
    57    58    56    1
    58    59    20    1
    59    60    59    1
    60    61    59    1
    61    62    20    1
    62    63    62    1
    63    64    62    1
    64    65    24   ar
    65    66    65   ar
    66    67    66    1
    67    68    66   ar
    68    69    68    1
    69    70    68   ar
    70    71    24   ar
    71    72    71    1
    72    73     3    1
    73    74    73    1
    74    75    73    1
    75    76    75    1
    76    77    75    1
    77    78    75    1
    78    79    73    1
    79    80    79    1
    80    81    79    1
    81    82    79    1
    82    83     3    1
    83    84    83    1
    84    85    83    1
    85    86    85    1
    86    87    85    1
    87    88    85    1
    88    89    83    1
    89    90    89    1
    90    91    89    1
    91    92    89    1
    92    93     3    1
    93    94    93    1
    94    95    93    1
    95    96    95    1
    96    97    95    1
    97    98    95    1
    98    99    93    1
    99   100    99    1
   100   101    99    1
   101   102    99    1
   102   103     2    1
   103   104     8    1
   104     9    36    1
   105    26    30   ar
   106    36    37    1
   107    46    49    1
   108    49    51    1
   109    56    59    1
   110    62    65    1
   111    70    71   ar
   112   105   107    1
   113   106   107    1
   114   107   108    1
   115   109   107    1
@<TRIPOS>SUBSTRUCTURE
     1 RES1        1 GROUP             0 ****  ****    0  
     2 RES2      105 GROUP             0 ****  ****    0  
@<TRIPOS>CRYSIN
    9.2394   15.0920   16.2500   90.0000   97.3370   90.0000     4     1
