@<TRIPOS>MOLECULE
EJOJUI
   123   137     1     0     0
SMALL
NO_CHARGES
****
Generated from the CSD

@<TRIPOS>ATOM
     1 Fe1      9.9819   2.2153   3.8332   Fe        1 RES1   0.0000
     2 B1       6.8910   1.3373   3.5180   B         1 RES1   0.0000
     3 H1       5.9067   1.0938   3.3899   H         1 RES1   0.0000
     4 O1      11.4843   1.3241   2.9137   O.co2     1 RES1   0.0000
     5 C1      12.6766   1.4096   2.8065   C.2       1 RES1   0.0000
     6 O2      13.3609   2.4492   2.9367   O.co2     1 RES1   0.0000
     7 C2      13.4360   0.1444   2.4099   C.3       1 RES1   0.0000
     8 H2      12.8059  -0.6017   2.3269   H         1 RES1   0.0000
     9 H3      14.1012  -0.0667   3.0974   H         1 RES1   0.0000
    10 H4      13.8869   0.2889   1.5522   H         1 RES1   0.0000
    11 N1       9.0884   0.2232   4.1207   N.ar      1 RES1   0.0000
    12 N2       7.7391   0.0979   3.8741   N.ar      1 RES1   0.0000
    13 C3      10.9250  -1.2730   4.8526   C.ar      1 RES1   0.0000
    14 C4      11.5576  -2.3887   4.2913   C.ar      1 RES1   0.0000
    15 H5      11.0800  -2.9554   3.6978   H         1 RES1   0.0000
    16 C5      12.8668  -2.6659   4.5962   C.ar      1 RES1   0.0000
    17 H6      13.2931  -3.4169   4.1998   H         1 RES1   0.0000
    18 C6      13.5738  -1.8579   5.4778   C.ar      1 RES1   0.0000
    19 H7      14.4827  -2.0489   5.6803   H         1 RES1   0.0000
    20 C7      12.9471  -0.7779   6.0560   C.ar      1 RES1   0.0000
    21 H8      13.4249  -0.2329   6.6701   H         1 RES1   0.0000
    22 C8      11.6330  -0.4765   5.7563   C.ar      1 RES1   0.0000
    23 H9      11.2101   0.2707   6.1639   H         1 RES1   0.0000
    24 C9       9.5204  -0.9856   4.5012   C.ar      1 RES1   0.0000
    25 C10      8.4689  -1.8943   4.4946   C.ar      1 RES1   0.0000
    26 H10      8.5103  -2.8171   4.7172   H         1 RES1   0.0000
    27 C11      7.3498  -1.1839   4.0996   C.ar      1 RES1   0.0000
    28 C12      5.9568  -1.6521   3.9689   C.ar      1 RES1   0.0000
    29 C13      5.4113  -2.4349   4.9818   C.ar      1 RES1   0.0000
    30 H11      5.9372  -2.6594   5.7407   H         1 RES1   0.0000
    31 C14      4.1107  -2.8878   4.8887   C.ar      1 RES1   0.0000
    32 H12      3.7451  -3.4172   5.5889   H         1 RES1   0.0000
    33 C15      3.3423  -2.5800   3.7990   C.ar      1 RES1   0.0000
    34 H13      2.4529  -2.9085   3.7372   H         1 RES1   0.0000
    35 C16      3.8562  -1.7970   2.7980   C.ar      1 RES1   0.0000
    36 H14      3.3156  -1.5679   2.0500   H         1 RES1   0.0000
    37 C17      5.1622  -1.3374   2.8726   C.ar      1 RES1   0.0000
    38 H15      5.5162  -0.8049   2.1709   H         1 RES1   0.0000
    39 N3       8.7372   2.2858   2.0628   N.ar      1 RES1   0.0000
    40 N4       7.4143   1.9341   2.1894   N.ar      1 RES1   0.0000
    41 C18     10.1451   3.3632   0.2972   C.ar      1 RES1   0.0000
    42 C19     10.1710   4.6756  -0.1156   C.ar      1 RES1   0.0000
    43 H16      9.3937   5.2122  -0.0155   H         1 RES1   0.0000
    44 C20     11.3105   5.2247  -0.6735   C.ar      1 RES1   0.0000
    45 H17     11.3160   6.1350  -0.9448   H         1 RES1   0.0000
    46 C21     12.4329   4.4540  -0.8328   C.ar      1 RES1   0.0000
    47 H18     13.2167   4.8299  -1.2162   H         1 RES1   0.0000
    48 C22     12.4232   3.1441  -0.4420   C.ar      1 RES1   0.0000
    49 H19     13.2022   2.6125  -0.5610   H         1 RES1   0.0000
    50 C23     11.2899   2.5862   0.1270   C.ar      1 RES1   0.0000
    51 H20     11.2929   1.6767   0.4007   H         1 RES1   0.0000
    52 C24      8.8834   2.8039   0.8297   C.ar      1 RES1   0.0000
    53 C25      7.6568   2.7779   0.1621   C.ar      1 RES1   0.0000
    54 H21      7.4828   3.0817  -0.7213   H         1 RES1   0.0000
    55 C26      6.7472   2.2223   1.0416   C.ar      1 RES1   0.0000
    56 C27      5.3228   1.9423   0.7871   C.ar      1 RES1   0.0000
    57 C28      4.3111   2.3832   1.6543   C.ar      1 RES1   0.0000
    58 H22      4.5351   2.8473   2.4521   H         1 RES1   0.0000
    59 C29      2.9835   2.1375   1.3401   C.ar      1 RES1   0.0000
    60 H23      2.2954   2.4216   1.9305   H         1 RES1   0.0000
    61 C30      2.6602   1.4828   0.1758   C.ar      1 RES1   0.0000
    62 H24      1.7459   1.3382  -0.0422   H         1 RES1   0.0000
    63 C31      3.6424   1.0324  -0.6811   C.ar      1 RES1   0.0000
    64 H25      3.4100   0.5687  -1.4763   H         1 RES1   0.0000
    65 C32      4.9776   1.2652  -0.3672   C.ar      1 RES1   0.0000
    66 H26      5.6586   0.9550  -0.9519   H         1 RES1   0.0000
    67 N5       8.3306   2.7670   4.9444   N.ar      1 RES1   0.0000
    68 N6       7.0594   2.3684   4.6483   N.ar      1 RES1   0.0000
    69 C33      9.4966   4.0612   6.6618   C.ar      1 RES1   0.0000
    70 C34      9.4139   5.0107   7.6865   C.ar      1 RES1   0.0000
    71 H27      8.5620   5.3521   7.9327   H         1 RES1   0.0000
    72 C35     10.5289   5.4609   8.3447   C.ar      1 RES1   0.0000
    73 H28     10.4405   6.0840   9.0561   H         1 RES1   0.0000
    74 C36     11.7856   5.0069   7.9712   C.ar      1 RES1   0.0000
    75 H29     12.5616   5.3375   8.4093   H         1 RES1   0.0000
    76 C37     11.9040   4.0755   6.9643   C.ar      1 RES1   0.0000
    77 H30     12.7681   3.7768   6.7053   H         1 RES1   0.0000
    78 C38     10.7790   3.5631   6.3182   C.ar      1 RES1   0.0000
    79 C39      8.2784   3.5586   6.0302   C.ar      1 RES1   0.0000
    80 C40      6.9390   3.7128   6.3909   C.ar      1 RES1   0.0000
    81 H31      6.6011   4.2534   7.0961   H         1 RES1   0.0000
    82 C41      6.2016   2.9316   5.5296   C.ar      1 RES1   0.0000
    83 C42      4.7427   2.6752   5.5179   C.ar      1 RES1   0.0000
    84 C43      3.8454   3.7402   5.5925   C.ar      1 RES1   0.0000
    85 H32      4.1763   4.6269   5.6606   H         1 RES1   0.0000
    86 C44      2.4928   3.5280   5.5692   C.ar      1 RES1   0.0000
    87 H33      1.8981   4.2662   5.6198   H         1 RES1   0.0000
    88 C45      1.9878   2.2410   5.4708   C.ar      1 RES1   0.0000
    89 H34      1.0492   2.0976   5.4258   H         1 RES1   0.0000
    90 C46      2.8552   1.1672   5.4389   C.ar      1 RES1   0.0000
    91 H35      2.5144   0.2804   5.4089   H         1 RES1   0.0000
    92 C47      4.2167   1.3841   5.4507   C.ar      1 RES1   0.0000
    93 H36      4.8080   0.6412   5.4117   H         1 RES1   0.0000
    94 O3      10.9571   2.6021   5.4026   O.3       1 RES1   0.0000
    95 N7      10.4289   4.3384   3.2992   N.2       1 RES1   0.0000
    96 N8      11.7236   4.5754   2.9713   N.pl3     1 RES1   0.0000
    97 H37     12.3145   3.8077   2.9807   H         1 RES1   0.0000
    98 C48      8.4400   5.8255   3.6971   C.ar      1 RES1   0.0000
    99 C49      8.1704   6.8244   4.6401   C.ar      1 RES1   0.0000
   100 H38      8.8906   7.2245   5.1137   H         1 RES1   0.0000
   101 C50      6.8986   7.2313   4.8887   C.ar      1 RES1   0.0000
   102 H39      6.7350   7.9078   5.5355   H         1 RES1   0.0000
   103 C51      5.8365   6.6610   4.1998   C.ar      1 RES1   0.0000
   104 H40      4.9513   6.9621   4.3614   H         1 RES1   0.0000
   105 C52      6.0675   5.6540   3.2806   C.ar      1 RES1   0.0000
   106 H41      5.3409   5.2512   2.8191   H         1 RES1   0.0000
   107 C53      7.3733   5.2355   3.0374   C.ar      1 RES1   0.0000
   108 H42      7.5341   4.5385   2.4127   H         1 RES1   0.0000
   109 C54      9.8526   5.5540   3.3716   C.2       1 RES1   0.0000
   110 C55     10.7916   6.5411   3.0825   C.2       1 RES1   0.0000
   111 H43     10.6436   7.4792   3.0665   H         1 RES1   0.0000
   112 C56     11.9757   5.8874   2.8237   C.2       1 RES1   0.0000
   113 C57     13.2946   6.4049   2.4161   C.ar      1 RES1   0.0000
   114 C58     13.4681   7.7798   2.2637   C.ar      1 RES1   0.0000
   115 H44     12.7415   8.3684   2.4310   H         1 RES1   0.0000
   116 C59     14.6913   8.2985   1.8728   C.ar      1 RES1   0.0000
   117 H45     14.7893   9.2336   1.7364   H         1 RES1   0.0000
   118 C60     15.7751   7.4507   1.6788   C.ar      1 RES1   0.0000
   119 H46     16.6250   7.8063   1.4468   H         1 RES1   0.0000
   120 C61     15.6068   6.0916   1.8222   C.ar      1 RES1   0.0000
   121 H47     16.3404   5.5077   1.6689   H         1 RES1   0.0000
   122 C62     14.3777   5.5699   2.1906   C.ar      1 RES1   0.0000
   123 H48     14.2765   4.6309   2.2904   H         1 RES1   0.0000
@<TRIPOS>BOND
     1     1     4    1
     2     2     3    1
     3     4     5    1
     4     5     6    2
     5     7     5    1
     6     8     7    1
     7     9     7    1
     8    10     7    1
     9    11     1    1
    10    12     2    1
    11    13    14   ar
    12    14    15    1
    13    16    14   ar
    14    17    16    1
    15    18    16   ar
    16    19    18    1
    17    20    18   ar
    18    21    20    1
    19    22    13   ar
    20    23    22    1
    21    24    11   ar
    22    25    24   ar
    23    26    25    1
    24    27    12   ar
    25    28    27    1
    26    29    28   ar
    27    30    29    1
    28    31    29   ar
    29    32    31    1
    30    33    31   ar
    31    34    33    1
    32    35    33   ar
    33    36    35    1
    34    37    28   ar
    35    38    37    1
    36    39     1    1
    37    40     2    1
    38    41    42   ar
    39    42    43    1
    40    44    42   ar
    41    45    44    1
    42    46    44   ar
    43    47    46    1
    44    48    46   ar
    45    49    48    1
    46    50    41   ar
    47    51    50    1
    48    52    39   ar
    49    53    52   ar
    50    54    53    1
    51    55    40   ar
    52    56    55    1
    53    57    56   ar
    54    58    57    1
    55    59    57   ar
    56    60    59    1
    57    61    59   ar
    58    62    61    1
    59    63    61   ar
    60    64    63    1
    61    65    56   ar
    62    66    65    1
    63    67     1    1
    64    68     2    1
    65    69    70   ar
    66    70    71    1
    67    72    70   ar
    68    73    72    1
    69    74    72   ar
    70    75    74    1
    71    76    74   ar
    72    77    76    1
    73    78    69   ar
    74    79    67   ar
    75    80    79   ar
    76    81    80    1
    77    82    68   ar
    78    83    82    1
    79    84    83   ar
    80    85    84    1
    81    86    84   ar
    82    87    86    1
    83    88    86   ar
    84    89    88    1
    85    90    88   ar
    86    91    90    1
    87    92    83   ar
    88    93    92    1
    89    94     1    1
    90    95     1    1
    91    96    95    1
    92    97    96    1
    93    98    99   ar
    94    99   100    1
    95   101    99   ar
    96   102   101    1
    97   103   101   ar
    98   104   103    1
    99   105   103   ar
   100   106   105    1
   101   107    98   ar
   102   108   107    1
   103   109    95    2
   104   110   109    1
   105   111   110    1
   106   112    96    1
   107   113   112    1
   108   114   113   ar
   109   115   114    1
   110   116   114   ar
   111   117   116    1
   112   118   116   ar
   113   119   118    1
   114   120   118   ar
   115   121   120    1
   116   122   113   ar
   117   123   122    1
   118    11    12   ar
   119    13    24    1
   120    20    22   ar
   121    25    27   ar
   122    35    37   ar
   123    39    40   ar
   124    41    52    1
   125    48    50   ar
   126    53    55   ar
   127    63    65   ar
   128    67    68   ar
   129    69    79    1
   130    76    78   ar
   131    78    94    1
   132    80    82   ar
   133    90    92   ar
   134    98   109    1
   135   105   107   ar
   136   110   112    2
   137   120   122   ar
@<TRIPOS>SUBSTRUCTURE
     1 RES1        1 GROUP             0 ****  ****    0  
@<TRIPOS>CRYSIN
   13.4709   14.1891   15.3253   83.0570   66.6550   67.1750     2     1
