@<TRIPOS>MOLECULE
EJUJIF
   103   112     5     0     0
SMALL
USER_CHARGES
****
Generated from the CSD

@<TRIPOS>ATOM
     1 Fe1     -3.0168   9.5653   7.3035   Fe        1 RES1   2.0000
     2 N1      -4.3340   8.9196   8.6556   N.ar      1 RES1   0.0000
     3 N2      -4.5704   9.9590   6.1307   N.ar      1 RES1   0.0000
     4 N3      -1.5038   9.1838   8.5504   N.ar      1 RES1   0.0000
     5 N4      -1.6849  10.1883   5.9523   N.ar      1 RES1   0.0000
     6 N5      -2.8656   7.7727   6.5225   N.ar      1 RES1   0.0000
     7 N6      -3.1488  11.3823   8.0179   N.ar      1 RES1   0.0000
     8 C1      -4.5104   9.6684   4.7884   C.ar      1 RES1   0.0000
     9 C2      -1.5695   8.0297   9.2960   C.ar      1 RES1   0.0000
    10 C3      -3.0851   7.5684   5.1923   C.ar      1 RES1   0.0000
    11 C4      -5.5363  10.7643   6.5629   C.ar      1 RES1   0.0000
    12 H1      -5.6354  10.8835   7.5002   H         1 RES1   0.0000
    13 C5      -4.6253   8.4263  11.0154   C.ar      1 RES1   0.0000
    14 C6      -2.1813   6.8789   8.7399   C.ar      1 RES1   0.0000
    15 C7      -4.1640   9.2715   9.9766   C.ar      1 RES1   0.0000
    16 C8      -2.8468   6.3188   4.6102   C.ar      1 RES1   0.0000
    17 H2      -3.0526   6.1754   3.6939   H         1 RES1   0.0000
    18 C9      -3.3513  11.6055   9.3407   C.ar      1 RES1   0.0000
    19 C10     -5.2936  10.4147   3.8608   C.ar      1 RES1   0.0000
    20 C11     -5.1625   7.9190   8.3834   C.ar      1 RES1   0.0000
    21 H3      -5.3486   7.7281   7.4715   H         1 RES1   0.0000
    22 C12     -2.3139   5.2971   5.3627   C.ar      1 RES1   0.0000
    23 H4      -2.1006   4.4631   4.9604   H         1 RES1   0.0000
    24 C13     -3.6449   8.6350   4.3145   C.ar      1 RES1   0.0000
    25 C14     -2.0949   5.5024   6.7070   C.ar      1 RES1   0.0000
    26 H5      -1.7284   4.8074   7.2413   H         1 RES1   0.0000
    27 C15     -1.0452   7.9798  10.6098   C.ar      1 RES1   0.0000
    28 C16     -0.6893  10.1452   8.9714   C.ar      1 RES1   0.0000
    29 H6      -0.5497  10.8965   8.4068   H         1 RES1   0.0000
    30 C17     -3.5010  10.4906  10.3078   C.ar      1 RES1   0.0000
    31 C18     -2.4065   5.7925   9.5628   C.ar      1 RES1   0.0000
    32 H7      -2.8348   5.0229   9.2065   H         1 RES1   0.0000
    33 C19     -5.0912  10.2343   2.4742   C.ar      1 RES1   0.0000
    34 H8      -5.6016  10.7367   1.8504   H         1 RES1   0.0000
    35 C20     -5.7822   7.1262   9.3642   C.ar      1 RES1   0.0000
    36 H9      -6.4102   6.4567   9.1208   H         1 RES1   0.0000
    37 C21     -2.4120   6.7317   7.2813   C.ar      1 RES1   0.0000
    38 C22     -0.0251  10.1098  10.2027   C.ar      1 RES1   0.0000
    39 H10      0.5911  10.7932  10.4394   H         1 RES1   0.0000
    40 C23     -3.4653   8.5307   2.9432   C.ar      1 RES1   0.0000
    41 H11     -2.8496   7.8898   2.6080   H         1 RES1   0.0000
    42 C24     -2.0194  11.2726   5.1738   C.ar      1 RES1   0.0000
    43 C25     -3.4174  13.1968   4.8321   C.ar      1 RES1   0.0000
    44 H12     -4.0279  13.8460   5.1586   H         1 RES1   0.0000
    45 C26     -2.0193   5.7969  10.9142   C.ar      1 RES1   0.0000
    46 H13     -2.2419   5.0629  11.4749   H         1 RES1   0.0000
    47 C27     -3.0745  12.4502   7.1709   C.ar      1 RES1   0.0000
    48 C28     -1.3249   6.8535  11.4188   C.ar      1 RES1   0.0000
    49 H14     -1.0267   6.8343  12.3206   H         1 RES1   0.0000
    50 C29     -4.2341   8.6815  12.3564   C.ar      1 RES1   0.0000
    51 H15     -4.5034   8.0933  13.0519   H         1 RES1   0.0000
    52 C30     -0.0686   9.5410   4.2818   C.ar      1 RES1   0.0000
    53 H16      0.6745   8.9977   4.0486   H         1 RES1   0.0000
    54 C31     -3.1435  10.6919  11.6290   C.ar      1 RES1   0.0000
    55 H17     -2.6601  11.4761  11.8613   H         1 RES1   0.0000
    56 C32     -0.2775   9.0781  11.0568   C.ar      1 RES1   0.0000
    57 H18      0.0604   9.0972  11.9446   H         1 RES1   0.0000
    58 C33     -0.6925   9.4034   5.5339   C.ar      1 RES1   0.0000
    59 H19     -0.3897   8.7136   6.1130   H         1 RES1   0.0000
    60 C34     -0.5540  10.4718   3.4066   C.ar      1 RES1   0.0000
    61 H20     -0.2204  10.5132   2.5179   H         1 RES1   0.0000
    62 C35     -3.4747   9.7685  12.6399   C.ar      1 RES1   0.0000
    63 H21     -3.1638   9.9084  13.5267   H         1 RES1   0.0000
    64 C36     -5.4619   7.3378  10.6717   C.ar      1 RES1   0.0000
    65 H22     -5.7976   6.7597  11.3468   H         1 RES1   0.0000
    66 C37     -2.1261  12.3514   2.9805   C.ar      1 RES1   0.0000
    67 H23     -1.8411  12.4182   2.0773   H         1 RES1   0.0000
    68 C38     -3.3932  13.9823   8.9926   C.ar      1 RES1   0.0000
    69 H24     -3.4774  14.8682   9.3254   H         1 RES1   0.0000
    70 C39     -2.8722  12.2750   5.7142   C.ar      1 RES1   0.0000
    71 C40     -3.5075  12.9017   9.8424   C.ar      1 RES1   0.0000
    72 H25     -3.6921  13.0372  10.7643   H         1 RES1   0.0000
    73 C41     -6.2483  11.3215   4.3649   C.ar      1 RES1   0.0000
    74 H26     -6.7724  11.8430   3.7683   H         1 RES1   0.0000
    75 C42     -4.1661   9.3431   2.0320   C.ar      1 RES1   0.0000
    76 H27     -3.9903   9.2677   1.1014   H         1 RES1   0.0000
    77 C43     -6.4163  11.4465   5.7128   C.ar      1 RES1   0.0000
    78 H28     -7.1153  11.9839   6.0671   H         1 RES1   0.0000
    79 C44     -1.5570  11.3751   3.8362   C.ar      1 RES1   0.0000
    80 C45     -3.0843  13.1944   3.4600   C.ar      1 RES1   0.0000
    81 H29     -3.5320  13.7853   2.8661   H         1 RES1   0.0000
    82 C46     -3.1558  13.7567   7.6550   C.ar      1 RES1   0.0000
    83 H30     -3.0482  14.4907   7.0622   H         1 RES1   0.0000
    84 P1      -9.0997   8.2649   7.5329   P.3       2 RES2  -1.0000
    85 F1      -8.4135   6.8210   7.6841   F         2 RES2   0.0000
    86 F2      -8.6013   8.6527   9.0111   F         2 RES2   0.0000
    87 F3      -9.7894   9.7014   7.3868   F         2 RES2   0.0000
    88 F4      -7.7377   8.8387   6.9226   F         2 RES2   0.0000
    89 F5      -9.6025   7.8755   6.0607   F         2 RES2   0.0000
    90 F6     -10.4556   7.6747   8.1511   F         2 RES2   0.0000
    91 P2      -4.0397  15.0365  13.2819   P.3       3 RES3  -1.0000
    92 F7      -4.6167  13.5474  13.2789   F         3 RES3   0.0000
    93 F8      -4.6028  15.2724  11.8180   F         3 RES3   0.0000
    94 F9      -3.4846  16.5219  13.2924   F         3 RES3   0.0000
    95 F10     -3.4999  14.8074  14.7350   F         3 RES3   0.0000
    96 F11     -5.4414  15.5559  13.8758   F         3 RES3   0.0000
    97 F12     -2.6993  14.4729  12.6510   F         3 RES3   0.0000
    98 O1      -6.8917  12.0134  12.1541   O.3       4 RES4   0.0000
    99 H31     -6.1833  12.4177  12.5603   H         4 RES4   0.0000
   100 H32     -7.5035  11.6251  12.6985   H         4 RES4   0.0000
   101 O2      -6.9968  11.1646   9.4500   O.3       5 RES5   0.0000
   102 H33     -7.4331  10.3120   9.3408   H         5 RES5   0.0000
   103 H34     -6.9910  11.2842  10.4117   H         5 RES5   0.0000
@<TRIPOS>BOND
     1     1     2    1
     2     2    15   ar
     3     3     1    1
     4     4     1    1
     5     5     1    1
     6     6     1    1
     7     7     1    1
     8     8     3   ar
     9     9     4   ar
    10    10     6   ar
    11    11     3   ar
    12    12    11    1
    13    13    15   ar
    14    14     9   ar
    15    15    30   ar
    16    16    10   ar
    17    17    16    1
    18    18     7   ar
    19    19     8   ar
    20    20     2   ar
    21    21    20    1
    22    22    16   ar
    23    23    22    1
    24    24     8   ar
    25    25    22   ar
    26    26    25    1
    27    27     9   ar
    28    28     4   ar
    29    29    28    1
    30    30    18    1
    31    31    14   ar
    32    32    31    1
    33    33    19   ar
    34    34    33    1
    35    35    20   ar
    36    36    35    1
    37    37     6   ar
    38    38    28   ar
    39    39    38    1
    40    40    24   ar
    41    41    40    1
    42    42     5   ar
    43    43    44    1
    44    45    31   ar
    45    46    45    1
    46    47     7   ar
    47    48    27   ar
    48    49    48    1
    49    50    13   ar
    50    51    50    1
    51    52    53    1
    52    54    30   ar
    53    55    54    1
    54    56    27   ar
    55    57    56    1
    56    58     5   ar
    57    59    58    1
    58    60    52   ar
    59    61    60    1
    60    62    50   ar
    61    63    62    1
    62    64    13   ar
    63    65    64    1
    64    66    67    1
    65    68    69    1
    66    70    42   ar
    67    71    18   ar
    68    72    71    1
    69    73    19   ar
    70    74    73    1
    71    75    33   ar
    72    76    75    1
    73    77    11   ar
    74    78    77    1
    75    79    42   ar
    76    80    43   ar
    77    81    80    1
    78    82    47   ar
    79    83    82    1
    80    10    24    1
    81    14    37    1
    82    25    37   ar
    83    35    64   ar
    84    38    56   ar
    85    40    75   ar
    86    43    70   ar
    87    45    48   ar
    88    47    70    1
    89    52    58   ar
    90    54    62   ar
    91    60    79   ar
    92    66    79   ar
    93    66    80   ar
    94    68    71   ar
    95    68    82   ar
    96    73    77   ar
    97    84    85    1
    98    86    84    1
    99    87    84    1
   100    88    84    1
   101    89    84    1
   102    90    84    1
   103    91    92    1
   104    93    91    1
   105    94    91    1
   106    95    91    1
   107    96    91    1
   108    97    91    1
   109    98    99    1
   110   100    98    1
   111   101   102    1
   112   103   101    1
@<TRIPOS>SUBSTRUCTURE
     1 RES1        1 GROUP             0 ****  ****    0  
     2 RES2       84 GROUP             0 ****  ****    0  
     3 RES3       91 GROUP             0 ****  ****    0  
     4 RES4       98 GROUP             0 ****  ****    0  
     5 RES5      101 GROUP             0 ****  ****    0  
@<TRIPOS>CRYSIN
   11.6586   26.4206   19.0403   90.0000  133.4720   90.0000    14     1
