@<TRIPOS>MOLECULE
EKAHIK
   104   113     2     0     0
SMALL
NO_CHARGES
****
Generated from the CSD

@<TRIPOS>ATOM
     1 Fe1      4.2444  18.0335   5.5992   Fe        1 RES1   0.0000
     2 C1       2.2383  19.6880   6.9119   C.ar      1 RES1   0.0000
     3 O1       5.2413  16.6491   4.3530   O.3       1 RES1   0.0000
     4 N1       3.6372  19.4612   6.6560   N.2       1 RES1   0.0000
     5 N2       4.3623  20.4295   7.1584   N.2       1 RES1   0.0000
     6 O2       4.2438  19.3707   3.9762   O.3       1 RES1   0.0000
     7 C2       1.4306  18.6453   7.3369   C.ar      1 RES1   0.0000
     8 H1       1.7982  17.7760   7.4464   H         1 RES1   0.0000
     9 N3       6.5427  19.4875   6.6154   N.2       1 RES1   0.0000
    10 C3       0.0897  18.8667   7.6042   C.ar      1 RES1   0.0000
    11 H2      -0.4607  18.1446   7.8828   H         1 RES1   0.0000
    12 N4       1.8172  16.5492   4.9742   N.2       1 RES1   0.0000
    13 C4       5.7090  20.4288   7.0965   C.2       1 RES1   0.0000
    14 N5       3.1738  15.6863   6.8029   N.2       1 RES1   0.0000
    15 C5       1.6970  20.9602   6.7636   C.ar      1 RES1   0.0000
    16 H3       2.2442  21.6799   6.4717   H         1 RES1   0.0000
    17 N6       4.0669  16.6440   6.8446   N.2       1 RES1   0.0000
    18 C6       0.3614  21.1735   7.0433   C.ar      1 RES1   0.0000
    19 H4      -0.0061  22.0439   6.9452   H         1 RES1   0.0000
    20 N7       6.0315  18.4402   6.0320   N.2       1 RES1   0.0000
    21 C7      -0.4524  20.1286   7.4685   C.ar      1 RES1   0.0000
    22 H5      -1.3691  20.2816   7.6624   H         1 RES1   0.0000
    23 N8       2.5702  17.6072   4.8205   N.2       1 RES1   0.0000
    24 C8       6.3697  21.6178   7.6956   C.ar      1 RES1   0.0000
    25 C9       5.6462  22.6626   8.2634   C.ar      1 RES1   0.0000
    26 H6       4.6969  22.6146   8.2837   H         1 RES1   0.0000
    27 C10      6.9943  17.4725   5.6633   C.ar      1 RES1   0.0000
    28 C11      7.6721  23.8860   8.7855   C.ar      1 RES1   0.0000
    29 C12      8.3957  22.8431   8.2246   C.ar      1 RES1   0.0000
    30 H7       9.3440  22.8939   8.2030   H         1 RES1   0.0000
    31 C13      7.7649  21.7294   7.6956   C.ar      1 RES1   0.0000
    32 H8       8.2886  21.0280   7.3269   H         1 RES1   0.0000
    33 C14      8.3690  25.0997   9.3463   C.3       1 RES1   0.0000
    34 H9       9.0592  25.3995   8.7176   H         1 RES1   0.0000
    35 H10      8.7856  24.8708  10.2030   H         1 RES1   0.0000
    36 H11      7.7166  25.8181   9.4812   H         1 RES1   0.0000
    37 C15      6.2840  23.7755   8.8035   C.ar      1 RES1   0.0000
    38 H12      5.7645  24.4705   9.1904   H         1 RES1   0.0000
    39 C16      8.3056  17.4234   6.1376   C.ar      1 RES1   0.0000
    40 H13      8.6022  18.0471   6.7898   H         1 RES1   0.0000
    41 C17      9.1740  16.4544   5.6488   C.ar      1 RES1   0.0000
    42 H14     10.0659  16.4103   5.9745   H         1 RES1   0.0000
    43 C18      8.7454  15.5525   4.6863   C.ar      1 RES1   0.0000
    44 H15      9.3583  14.9189   4.3321   H         1 RES1   0.0000
    45 C19      7.4359  15.5624   4.2349   C.ar      1 RES1   0.0000
    46 H16      7.1376  14.9254   3.5963   H         1 RES1   0.0000
    47 C20      6.5696  16.5193   4.7348   C.ar      1 RES1   0.0000
    48 C21      4.7376  15.7106   3.3970   C.3       1 RES1   0.0000
    49 H17      3.8068  15.9301   3.1824   H         1 RES1   0.0000
    50 H18      4.7824  14.8064   3.7711   H         1 RES1   0.0000
    51 H19      5.2791  15.7534   2.5806   H         1 RES1   0.0000
    52 C22      4.9433  16.4375   7.9662   C.ar      1 RES1   0.0000
    53 C23      5.3329  17.4987   8.7702   C.ar      1 RES1   0.0000
    54 H20      5.0473  18.3803   8.5620   H         1 RES1   0.0000
    55 C24      6.1402  17.2761   9.8740   C.ar      1 RES1   0.0000
    56 H21      6.4236  18.0098  10.4064   H         1 RES1   0.0000
    57 C25      6.5340  15.9922  10.2077   C.ar      1 RES1   0.0000
    58 H22      7.0709  15.8399  10.9765   H         1 RES1   0.0000
    59 C26      6.1395  14.9289   9.4073   C.ar      1 RES1   0.0000
    60 H23      6.4024  14.0451   9.6356   H         1 RES1   0.0000
    61 C27      5.3674  15.1431   8.2786   C.ar      1 RES1   0.0000
    62 H24      5.1256  14.4138   7.7196   H         1 RES1   0.0000
    63 C28      2.1809  15.6413   5.9006   C.2       1 RES1   0.0000
    64 C29      1.3149  14.4321   6.0075   C.ar      1 RES1   0.0000
    65 C30      1.6039  13.4263   6.9381   C.ar      1 RES1   0.0000
    66 H25      2.3618  13.5167   7.5042   H         1 RES1   0.0000
    67 C31      0.8038  12.3018   7.0461   C.ar      1 RES1   0.0000
    68 H26      1.0207  11.6363   7.6883   H         1 RES1   0.0000
    69 C32     -0.3075  12.1269   6.2387   C.ar      1 RES1   0.0000
    70 C33     -0.5898  13.1197   5.3095   C.ar      1 RES1   0.0000
    71 H27     -1.3422  13.0192   4.7382   H         1 RES1   0.0000
    72 C34      0.2007  14.2550   5.1946   C.ar      1 RES1   0.0000
    73 H28     -0.0215  14.9188   4.5525   H         1 RES1   0.0000
    74 C35     -1.1844  10.9027   6.3841   C.3       1 RES1   0.0000
    75 H29     -1.8318  10.8763   5.6486   H         1 RES1   0.0000
    76 H30     -1.6618  10.9420   7.2385   H         1 RES1   0.0000
    77 H31     -0.6271  10.0970   6.3573   H         1 RES1   0.0000
    78 C36      2.0587  18.5608   3.9061   C.ar      1 RES1   0.0000
    79 C37      0.7350  18.6104   3.4677   C.ar      1 RES1   0.0000
    80 H32      0.0971  17.9828   3.7868   H         1 RES1   0.0000
    81 C38      0.3631  19.5926   2.5537   C.ar      1 RES1   0.0000
    82 H33     -0.5327  19.6273   2.2386   H         1 RES1   0.0000
    83 C39      1.2848  20.5181   2.1022   C.ar      1 RES1   0.0000
    84 H34      1.0162  21.1779   1.4741   H         1 RES1   0.0000
    85 C40      2.5950  20.4962   2.5550   C.ar      1 RES1   0.0000
    86 H35      3.2242  21.1390   2.2509   H         1 RES1   0.0000
    87 C41      2.9654  19.5137   3.4631   C.ar      1 RES1   0.0000
    88 C42      5.2084  20.3804   3.6269   C.3       1 RES1   0.0000
    89 H36      5.3020  20.4191   2.6517   H         1 RES1   0.0000
    90 H37      6.0738  20.1588   4.0293   H         1 RES1   0.0000
    91 H38      4.9059  21.2507   3.9604   H         1 RES1   0.0000
    92 O3       4.7920  24.0934   3.5355   O.3       2 RES2   0.0000
    93 C43      5.9683  24.2670   2.7462   C.3       2 RES2   0.0000
    94 H39      5.8533  25.0217   2.1157   H         2 RES2   0.0000
    95 H40      6.1595  23.4467   2.2259   H         2 RES2   0.0000
    96 C44      7.0870  24.5517   3.7058   C.3       2 RES2   0.0000
    97 H41      7.1320  25.5133   3.9372   H         2 RES2   0.0000
    98 H42      7.9610  24.2610   3.3421   H         2 RES2   0.0000
    99 C45      6.6756  23.7156   4.8913   C.3       2 RES2   0.0000
   100 H43      7.1014  24.0350   5.7260   H         2 RES2   0.0000
   101 H44      6.8967  22.7602   4.7558   H         2 RES2   0.0000
   102 C46      5.1805  23.9401   4.9121   C.3       2 RES2   0.0000
   103 H45      4.7173  23.1662   5.3206   H         2 RES2   0.0000
   104 H46      4.9572  24.7538   5.4298   H         2 RES2   0.0000
@<TRIPOS>BOND
     1     1     3    1
     2     2     4    1
     3     3    47    1
     4     4     1    1
     5     5     4   un
     6     6     1    1
     7     7     2   ar
     8     8     7    1
     9     9    13   un
    10    10     7   ar
    11    11    10    1
    12    12    23   un
    13    13     5   un
    14    14    17   un
    15    15     2   ar
    16    16    15    1
    17    17     1    1
    18    18    15   ar
    19    19    18    1
    20    20     1    1
    21    21    10   ar
    22    22    21    1
    23    23     1    1
    24    24    13    1
    25    25    24   ar
    26    26    25    1
    27    27    20    1
    28    28    29   ar
    29    29    30    1
    30    31    24   ar
    31    32    31    1
    32    33    28    1
    33    34    33    1
    34    35    33    1
    35    36    33    1
    36    37    25   ar
    37    38    37    1
    38    39    27   ar
    39    40    39    1
    40    41    39   ar
    41    42    41    1
    42    43    41   ar
    43    44    43    1
    44    45    43   ar
    45    46    45    1
    46    47    27   ar
    47    48     3    1
    48    49    48    1
    49    50    48    1
    50    51    48    1
    51    52    17    1
    52    53    52   ar
    53    54    53    1
    54    55    53   ar
    55    56    55    1
    56    57    55   ar
    57    58    57    1
    58    59    57   ar
    59    60    59    1
    60    61    52   ar
    61    62    61    1
    62    63    12   un
    63    64    63    1
    64    65    64   ar
    65    66    65    1
    66    67    65   ar
    67    68    67    1
    68    69    67   ar
    69    70    69   ar
    70    71    70    1
    71    72    64   ar
    72    73    72    1
    73    74    69    1
    74    75    74    1
    75    76    74    1
    76    77    74    1
    77    78    23    1
    78    79    78   ar
    79    80    79    1
    80    81    79   ar
    81    82    81    1
    82    83    81   ar
    83    84    83    1
    84    85    83   ar
    85    86    85    1
    86    87     6    1
    87    88     6    1
    88    89    88    1
    89    90    88    1
    90    91    88    1
    91     9    20   un
    92    14    63   un
    93    18    21   ar
    94    28    37   ar
    95    29    31   ar
    96    45    47   ar
    97    59    61   ar
    98    70    72   ar
    99    78    87   ar
   100    85    87   ar
   101    92    93    1
   102    93    94    1
   103    95    93    1
   104    96    93    1
   105    97    96    1
   106    98    96    1
   107    99    96    1
   108   100    99    1
   109   101    99    1
   110   102    92    1
   111   103   102    1
   112   104   102    1
   113    99   102    1
@<TRIPOS>SUBSTRUCTURE
     1 RES1        1 GROUP             0 ****  ****    0  
     2 RES2       92 GROUP             0 ****  ****    0  
@<TRIPOS>CRYSIN
   12.0477   24.0684   14.6588   90.0000  109.1400   90.0000    14     1
