@<TRIPOS>MOLECULE
EMULUT
   108   117     1     0     0
SMALL
NO_CHARGES
****
Generated from the CSD

@<TRIPOS>ATOM
     1 Fe1      5.8457   4.1733   4.4476   Fe        1 RES1   0.0000
     2 P1       5.7534   5.7309   2.8589   P.3       1 RES1   0.0000
     3 P2       5.7317   2.7177   2.7657   P.3       1 RES1   0.0000
     4 P3       6.3244   2.6625   6.0043   P.3       1 RES1   0.0000
     5 P4       6.3858   5.6469   6.0459   P.3       1 RES1   0.0000
     6 C1       4.6643   7.1751   2.9605   C.ar      1 RES1   0.0000
     7 C2       3.2963   7.0395   2.9755   C.ar      1 RES1   0.0000
     8 H1       2.9272   6.1868   2.9538   H         1 RES1   0.0000
     9 C3       2.4577   8.1247   3.0221   C.ar      1 RES1   0.0000
    10 H2       1.5362   7.9915   3.0221   H         1 RES1   0.0000
    11 C4       2.9497   9.3916   3.0704   C.ar      1 RES1   0.0000
    12 H3       2.3739  10.1208   3.1037   H         1 RES1   0.0000
    13 C5       4.3077   9.5782   3.0687   C.ar      1 RES1   0.0000
    14 H4       4.6571  10.4381   3.1270   H         1 RES1   0.0000
    15 C6       5.1622   8.4954   2.9838   C.ar      1 RES1   0.0000
    16 H5       6.0794   8.6407   2.9389   H         1 RES1   0.0000
    17 C7       7.2790   6.3394   2.0847   C.ar      1 RES1   0.0000
    18 C8       7.2073   7.1315   0.9175   C.ar      1 RES1   0.0000
    19 H6       6.4062   7.5070   0.6277   H         1 RES1   0.0000
    20 C9       8.4110   7.3229   0.2148   C.ar      1 RES1   0.0000
    21 H7       8.3701   7.7371  -0.6161   H         1 RES1   0.0000
    22 C10      9.6593   6.9305   0.6877   C.ar      1 RES1   0.0000
    23 H8      10.4377   7.1485   0.2298   H         1 RES1   0.0000
    24 C11      9.6990   6.2110   1.8549   C.ar      1 RES1   0.0000
    25 H9      10.5141   5.9082   2.1829   H         1 RES1   0.0000
    26 C12      8.5351   5.9325   2.5442   C.ar      1 RES1   0.0000
    27 H10      8.5885   5.4601   3.3435   H         1 RES1   0.0000
    28 C13      4.3145   1.6133   2.4127   C.ar      1 RES1   0.0000
    29 C14      4.2514   0.8696   1.2005   C.ar      1 RES1   0.0000
    30 H11      4.8980   0.9980   0.5445   H         1 RES1   0.0000
    31 C15      3.2629  -0.0121   1.0040   C.ar      1 RES1   0.0000
    32 H12      3.2366  -0.4917   0.2081   H         1 RES1   0.0000
    33 C16      2.3034  -0.2229   1.9298   C.ar      1 RES1   0.0000
    34 H13      1.6237  -0.8333   1.7583   H         1 RES1   0.0000
    35 C17      2.3213   0.4651   3.1387   C.ar      1 RES1   0.0000
    36 H14      1.6788   0.3028   3.7897   H         1 RES1   0.0000
    37 C18      3.3069   1.3905   3.3451   C.ar      1 RES1   0.0000
    38 H15      3.3038   1.8846   4.1327   H         1 RES1   0.0000
    39 C19      7.1345   1.5334   2.5792   C.ar      1 RES1   0.0000
    40 C20      8.3872   1.9525   2.2462   C.ar      1 RES1   0.0000
    41 H16      8.5181   2.8560   2.0630   H         1 RES1   0.0000
    42 C21      9.4491   1.1191   2.1696   C.ar      1 RES1   0.0000
    43 H17     10.2861   1.4534   1.9415   H         1 RES1   0.0000
    44 C22      9.2954  -0.2301   2.4277   C.ar      1 RES1   0.0000
    45 H18     10.0215  -0.8115   2.4060   H         1 RES1   0.0000
    46 C23      8.0035  -0.6904   2.7257   C.ar      1 RES1   0.0000
    47 H19      7.8625  -1.6012   2.8556   H         1 RES1   0.0000
    48 C24      6.9435   0.1768   2.8256   C.ar      1 RES1   0.0000
    49 H20      6.1017  -0.1405   3.0571   H         1 RES1   0.0000
    50 C25      8.0621   2.2480   6.3489   C.ar      1 RES1   0.0000
    51 C26      8.4564   1.7320   7.5694   C.ar      1 RES1   0.0000
    52 H21      7.7972   1.5188   8.1905   H         1 RES1   0.0000
    53 C27      9.7722   1.5213   7.9174   C.ar      1 RES1   0.0000
    54 H22      9.9812   1.1942   8.7616   H         1 RES1   0.0000
    55 C28     10.7512   1.7829   7.0399   C.ar      1 RES1   0.0000
    56 H23     11.6365   1.6279   7.2797   H         1 RES1   0.0000
    57 C29     10.4551   2.2892   5.7628   C.ar      1 RES1   0.0000
    58 H24     11.1324   2.4781   5.1534   H         1 RES1   0.0000
    59 C30      9.0777   2.5096   5.4248   C.ar      1 RES1   0.0000
    60 H25      8.8580   2.8318   4.5806   H         1 RES1   0.0000
    61 C31      5.4565   1.0465   6.2324   C.ar      1 RES1   0.0000
    62 C32      4.1567   0.9811   6.5271   C.ar      1 RES1   0.0000
    63 H26      3.6780   1.7708   6.6270   H         1 RES1   0.0000
    64 C33      3.4988  -0.2253   6.6886   C.ar      1 RES1   0.0000
    65 H27      2.5931  -0.2350   6.8967   H         1 RES1   0.0000
    66 C34      4.2063  -1.4438   6.5354   C.ar      1 RES1   0.0000
    67 H28      3.7790  -2.2601   6.6453   H         1 RES1   0.0000
    68 C35      5.5207  -1.3832   6.2257   C.ar      1 RES1   0.0000
    69 H29      5.9919  -2.1802   6.1425   H         1 RES1   0.0000
    70 C36      6.2199  -0.1550   6.0209   C.ar      1 RES1   0.0000
    71 H30      7.1142  -0.1308   5.7662   H         1 RES1   0.0000
    72 C37      5.3008   6.9765   6.6570   C.ar      1 RES1   0.0000
    73 C38      3.9817   7.1267   6.2873   C.ar      1 RES1   0.0000
    74 H31      3.6153   6.5526   5.6529   H         1 RES1   0.0000
    75 C39      3.1979   8.1126   6.8401   C.ar      1 RES1   0.0000
    76 H32      2.3152   8.1901   6.5587   H         1 RES1   0.0000
    77 C40      3.6721   8.9968   7.8042   C.ar      1 RES1   0.0000
    78 H33      3.1236   9.6557   8.1689   H         1 RES1   0.0000
    79 C41      4.9767   8.8611   8.1938   C.ar      1 RES1   0.0000
    80 H34      5.3167   9.4207   8.8549   H         1 RES1   0.0000
    81 C42      5.8163   7.8849   7.6111   C.ar      1 RES1   0.0000
    82 H35      6.7127   7.8389   7.8542   H         1 RES1   0.0000
    83 C43      7.9379   6.5574   5.8261   C.ar      1 RES1   0.0000
    84 C44      7.9104   7.8728   5.3382   C.ar      1 RES1   0.0000
    85 H36      7.0904   8.2628   5.1418   H         1 RES1   0.0000
    86 C45      9.0439   8.5923   5.1434   C.ar      1 RES1   0.0000
    87 H37      8.9685   9.4789   4.8737   H         1 RES1   0.0000
    88 C46     10.3124   8.0593   5.3316   C.ar      1 RES1   0.0000
    89 H38     11.0828   8.5559   5.1784   H         1 RES1   0.0000
    90 C47     10.3661   6.7100   5.7712   C.ar      1 RES1   0.0000
    91 H39     11.1855   6.2886   5.8927   H         1 RES1   0.0000
    92 C48      9.1781   6.0197   6.0226   C.ar      1 RES1   0.0000
    93 H40      9.2347   5.1476   6.3406   H         1 RES1   0.0000
    94 C49      5.0398   4.9102   1.3554   C.3       1 RES1   0.0000
    95 H41      4.1055   4.6898   1.4952   H         1 RES1   0.0000
    96 H42      5.1107   5.4916   0.5811   H         1 RES1   0.0000
    97 C50      5.8831   3.6263   1.1556   C.3       1 RES1   0.0000
    98 H43      6.8092   3.8468   0.9691   H         1 RES1   0.0000
    99 H44      5.5331   3.0934   0.4246   H         1 RES1   0.0000
   100 C51      5.8794   3.4471   7.5877   C.3       1 RES1   0.0000
   101 H45      4.9254   3.6191   7.6244   H         1 RES1   0.0000
   102 H46      6.1185   2.8705   8.3304   H         1 RES1   0.0000
   103 C52      6.6460   4.7309   7.6560   C.3       1 RES1   0.0000
   104 H47      7.5893   4.5493   7.7876   H         1 RES1   0.0000
   105 H48      6.3302   5.2687   8.4003   H         1 RES1   0.0000
   106 N1       2.8884   4.0963   5.2367   N.1       1 RES1   0.0000
   107 C53      4.0009   4.2053   4.9120   C.1       1 RES1   0.0000
   108 H49      7.4091   4.1181   3.9296   H         1 RES1   0.0000
@<TRIPOS>BOND
     1     1     2    1
     2     2     6    1
     3     3     1    1
     4     4     1    1
     5     5     1    1
     6     6     7   ar
     7     7     8    1
     8     9     7   ar
     9    10     9    1
    10    11     9   ar
    11    12    11    1
    12    13    11   ar
    13    14    13    1
    14    15     6   ar
    15    16    15    1
    16    17     2    1
    17    18    17   ar
    18    19    18    1
    19    20    18   ar
    20    21    20    1
    21    22    20   ar
    22    23    22    1
    23    24    22   ar
    24    25    24    1
    25    26    17   ar
    26    27    26    1
    27    28     3    1
    28    29    28   ar
    29    30    29    1
    30    31    29   ar
    31    32    31    1
    32    33    31   ar
    33    34    33    1
    34    35    33   ar
    35    36    35    1
    36    37    28   ar
    37    38    37    1
    38    39     3    1
    39    40    39   ar
    40    41    40    1
    41    42    40   ar
    42    43    42    1
    43    44    42   ar
    44    45    44    1
    45    46    44   ar
    46    47    46    1
    47    48    39   ar
    48    49    48    1
    49    50     4    1
    50    51    50   ar
    51    52    51    1
    52    53    51   ar
    53    54    53    1
    54    55    53   ar
    55    56    55    1
    56    57    55   ar
    57    58    57    1
    58    59    50   ar
    59    60    59    1
    60    61     4    1
    61    62    61   ar
    62    63    62    1
    63    64    62   ar
    64    65    64    1
    65    66    64   ar
    66    67    66    1
    67    68    66   ar
    68    69    68    1
    69    70    61   ar
    70    71    70    1
    71    72     5    1
    72    73    72   ar
    73    74    73    1
    74    75    73   ar
    75    76    75    1
    76    77    75   ar
    77    78    77    1
    78    79    77   ar
    79    80    79    1
    80    81    72   ar
    81    82    81    1
    82    83     5    1
    83    84    83   ar
    84    85    84    1
    85    86    84   ar
    86    87    86    1
    87    88    86   ar
    88    89    88    1
    89    90    88   ar
    90    91    90    1
    91    92    83   ar
    92    93    92    1
    93    94     2    1
    94    95    94    1
    95    96    94    1
    96    97     3    1
    97    98    97    1
    98    99    97    1
    99   100     4    1
   100   101   100    1
   101   102   100    1
   102   103     5    1
   103   104   103    1
   104   105   103    1
   105   106   107    3
   106   107     1    1
   107   108     1    1
   108    13    15   ar
   109    24    26   ar
   110    35    37   ar
   111    46    48   ar
   112    57    59   ar
   113    68    70   ar
   114    79    81   ar
   115    90    92   ar
   116    94    97    1
   117   100   103    1
@<TRIPOS>SUBSTRUCTURE
     1 RES1        1 GROUP             0 ****  ****    0  
@<TRIPOS>CRYSIN
   10.6650   24.2240   16.9510   90.0000  100.8000   90.0000   231     1
