@<TRIPOS>MOLECULE
ENAYUO
   143   165     5     0     0
SMALL
NO_CHARGES
****
Generated from the CSD

@<TRIPOS>ATOM
     1 C1       0.3876   8.4935   2.6385   C.ar      1 RES1   0.0000
     2 C2      -2.3999   7.3798   0.2452   C.ar      1 RES1   0.0000
     3 C3       0.2039   9.6811   3.3270   C.ar      1 RES1   0.0000
     4 H1       0.4163  10.4856   2.9131   H         1 RES1   0.0000
     5 C4      -3.4516   8.2177   0.6474   C.ar      1 RES1   0.0000
     6 H2      -3.5443   9.0557   0.2550   H         1 RES1   0.0000
     7 C5      -0.2899   9.6916   4.6198   C.ar      1 RES1   0.0000
     8 H3      -0.4028  10.4997   5.0690   H         1 RES1   0.0000
     9 C6       1.2404   6.4839  -0.9867   C.3       1 RES1   0.0000
    10 C7      -3.3319   9.1189  -2.5659   C.ar      1 RES1   0.0000
    11 H4      -3.3218   9.7654  -1.8969   H         1 RES1   0.0000
    12 C8       2.1404   7.4483  -1.7910   C.3       1 RES1   0.0000
    13 H5       2.4151   7.0004  -2.6071   H         1 RES1   0.0000
    14 H6       2.9426   7.6187  -1.2712   H         1 RES1   0.0000
    15 C9      -2.4336   8.0544  -2.4972   C.ar      1 RES1   0.0000
    16 C10      1.3061   6.8036   0.5061   C.3       1 RES1   0.0000
    17 H7       2.1589   6.4927   0.8474   H         1 RES1   0.0000
    18 H8       0.6118   6.3012   0.9573   H         1 RES1   0.0000
    19 C11      0.0624   7.3060   3.2858   C.ar      1 RES1   0.0000
    20 H9       0.1702   6.4962   2.8405   H         1 RES1   0.0000
    21 C12     -0.0978   9.7917  -4.4864   C.ar      1 RES1   0.0000
    22 H10     -0.1483  10.6139  -4.0568   H         1 RES1   0.0000
    23 C13      0.5983   8.7518  -3.8822   C.ar      1 RES1   0.0000
    24 C14     -3.3724   7.2481  -4.5786   C.ar      1 RES1   0.0000
    25 H11     -3.3758   6.6174  -5.2632   H         1 RES1   0.0000
    26 C15     -1.5724  11.8084  -2.2775   C.1       1 RES1   0.0000
    27 B1       1.0517  13.7179  -1.1339   B         1 RES1   0.0000
    28 H12      0.7685  13.5545  -2.1833   H         1 RES1   0.0000
    29 C16     -0.6505   8.4092  -6.3676   C.ar      1 RES1   0.0000
    30 H13     -1.0887   8.2827  -7.1778   H         1 RES1   0.0000
    31 C17      0.0691   7.3833  -5.8026   C.ar      1 RES1   0.0000
    32 H14      0.1281   6.5682  -6.2460   H         1 RES1   0.0000
    33 B2      -0.1921  13.6547   0.2334   B         1 RES1   0.0000
    34 H15     -1.2590  13.4456   0.0687   H         1 RES1   0.0000
    35 C18     -1.9466  10.9617   1.4654   C.1       1 RES1   0.0000
    36 C19      2.8651   9.9850  -2.8935   C.ar      1 RES1   0.0000
    37 C20     -0.7180   9.6319  -5.7203   C.ar      1 RES1   0.0000
    38 H16     -1.1781  10.3416  -6.1087   H         1 RES1   0.0000
    39 C21     -4.2336   9.2401  -3.6036   C.ar      1 RES1   0.0000
    40 H17     -4.8336   9.9498  -3.6154   H         1 RES1   0.0000
    41 C22     -0.2208   6.4944  -1.5026   C.3       1 RES1   0.0000
    42 H18     -0.6640   5.7057  -1.1554   H         1 RES1   0.0000
    43 H19     -0.1972   6.4119  -2.4678   H         1 RES1   0.0000
    44 C23     -2.4825   7.1110  -3.5193   C.ar      1 RES1   0.0000
    45 H20     -1.9129   6.3767  -3.4918   H         1 RES1   0.0000
    46 C24      3.6387   9.7636   0.4669   C.ar      1 RES1   0.0000
    47 H21      3.2780  10.0394  -0.3453   H         1 RES1   0.0000
    48 C25     -4.3482   7.8172   1.6105   C.ar      1 RES1   0.0000
    49 H22     -5.0409   8.3846   1.8616   H         1 RES1   0.0000
    50 C26      2.6999  11.2849  -3.3270   C.ar      1 RES1   0.0000
    51 H23      1.8809  11.7083  -3.1995   H         1 RES1   0.0000
    52 C27      3.7246  11.9665  -3.9410   C.ar      1 RES1   0.0000
    53 H24      3.5831  12.8325  -4.2470   H         1 RES1   0.0000
    54 C28      0.7146   7.5449  -4.5727   C.ar      1 RES1   0.0000
    55 H25      1.2202   6.8511  -4.2157   H         1 RES1   0.0000
    56 B3       1.9297  14.3626   2.0970   B         1 RES1   0.0000
    57 H26      2.2145  14.5840   3.1367   H         1 RES1   0.0000
    58 B4       2.6999  13.2190  -0.4571   B         1 RES1   0.0000
    59 H27      3.4752  12.7324  -1.0652   H         1 RES1   0.0000
    60 B5       3.1280  14.4188   0.7670   B         1 RES1   0.0000
    61 H28      4.1814  14.6806   0.9377   H         1 RES1   0.0000
    62 C29      4.9650  10.0535   0.7749   C.ar      1 RES1   0.0000
    63 H29      5.4959  10.4962   0.1530   H         1 RES1   0.0000
    64 C30     -2.7724  11.6977   2.3991   C.3       1 RES1   0.0000
    65 H30     -2.5702  11.4184   3.2937   H         1 RES1   0.0000
    66 H31     -3.6993  11.5273   2.2108   H         1 RES1   0.0000
    67 H32     -2.5971  12.6376   2.3089   H         1 RES1   0.0000
    68 C31     -2.3039   6.1273   0.8376   C.ar      1 RES1   0.0000
    69 H33     -1.6213   5.5511   0.5787   H         1 RES1   0.0000
    70 C32      3.4061   8.6675   2.5875   C.ar      1 RES1   0.0000
    71 H34      2.9005   8.1844   3.1995   H         1 RES1   0.0000
    72 C33     -2.3275  12.8571  -2.9661   C.3       1 RES1   0.0000
    73 H35     -1.9601  12.9942  -3.8410   H         1 RES1   0.0000
    74 H36     -2.2719  13.6740  -2.4639   H         1 RES1   0.0000
    75 H37     -3.2477  12.5919  -3.0426   H         1 RES1   0.0000
    76 C34      2.8432   9.0539   1.3830   C.ar      1 RES1   0.0000
    77 C35     -0.6168   8.5094   5.2416   C.ar      1 RES1   0.0000
    78 H38     -0.9691   8.5146   6.1028   H         1 RES1   0.0000
    79 C36      1.7848   5.0610  -1.1927   C.3       1 RES1   0.0000
    80 H39      1.7528   4.8361  -2.1245   H         1 RES1   0.0000
    81 H40      1.2488   4.4391  -0.6944   H         1 RES1   0.0000
    82 H41      2.6932   5.0188  -0.8828   H         1 RES1   0.0000
    83 B6       0.6893  13.1452   1.7792   B         1 RES1   0.0000
    84 H42      0.1770  12.6182   2.5992   H         1 RES1   0.0000
    85 B7       0.3539  14.8545   1.4379   B         1 RES1   0.0000
    86 H43     -0.3826  15.4026   2.0441   H         1 RES1   0.0000
    87 C37     -3.2106   5.7162   1.8106   C.ar      1 RES1   0.0000
    88 H44     -3.1314   4.8713   2.1912   H         1 RES1   0.0000
    89 C38      5.4892   9.6934   1.9833   C.ar      1 RES1   0.0000
    90 H45      6.3673   9.9182   2.1892   H         1 RES1   0.0000
    91 C39     -4.2521   8.3179  -4.6178   C.ar      1 RES1   0.0000
    92 H46     -4.8471   8.4092  -5.3260   H         1 RES1   0.0000
    93 B8       2.2651  14.9107  -0.7023   B         1 RES1   0.0000
    94 H47      2.7657  15.4939  -1.4909   H         1 RES1   0.0000
    95 C40      4.7325   9.0030   2.8915   C.ar      1 RES1   0.0000
    96 H48      5.0982   8.7570   3.7095   H         1 RES1   0.0000
    97 C41      4.1089   9.3912  -3.0740   C.ar      1 RES1   0.0000
    98 H49      4.2471   8.5181  -2.7856   H         1 RES1   0.0000
    99 B9       2.4808  12.8642   1.3516   B         1 RES1   0.0000
   100 H50      3.1145  12.1562   1.9048   H         1 RES1   0.0000
   101 B10      0.5562  15.1883  -0.2962   B         1 RES1   0.0000
   102 H51     -0.0506  15.9454  -0.8141   H         1 RES1   0.0000
   103 C42     -0.4197   7.3131   4.5805   C.ar      1 RES1   0.0000
   104 H52     -0.6135   6.5103   5.0082   H         1 RES1   0.0000
   105 B11      1.8337  15.6327   0.8573   B         1 RES1   0.0000
   106 H53      2.0561  16.6849   1.0927   H         1 RES1   0.0000
   107 C43     -4.2252   6.5594   2.2147   C.ar      1 RES1   0.0000
   108 H54     -4.8201   6.2959   2.8778   H         1 RES1   0.0000
   109 C44      5.1555  10.0869  -3.6782   C.ar      1 RES1   0.0000
   110 H55      5.9847   9.6828  -3.7919   H         1 RES1   0.0000
   111 C45      4.9448  11.3850  -4.1097   C.ar      1 RES1   0.0000
   112 H56      5.6358  11.8593  -4.5119   H         1 RES1   0.0000
   113 Ge1      1.0726  11.9140   0.0347   Ge        1 RES1   0.0000
   114 Fe1      0.0013   9.7928  -0.5918   Fe        1 RES1   0.0000
   115 P1       1.1162   8.5896   0.9528   P.3       1 RES1   0.0000
   116 P2       1.4019   9.0657  -2.2477   P.3       1 RES1   0.0000
   117 P3      -1.2576   7.9588  -1.0842   P.3       1 RES1   0.0000
   118 N5      -0.9741  10.9894  -1.7669   N.1       1 RES1   0.0000
   119 N6      -1.2623  10.4057   0.7329   N.1       1 RES1   0.0000
   120 C46     13.0766   3.2709   4.4452   C.1       2 RES2   0.0000
   121 N1      12.0047   3.4659   4.2000   N.1       2 RES2   0.0000
   122 C47     14.4384   3.0461   4.7571   C.3       2 RES2   0.0000
   123 H57     14.9895   3.6258   4.2255   H         2 RES2   0.0000
   124 H58     14.6625   2.1309   4.5707   H         2 RES2   0.0000
   125 H59     14.5867   3.2270   5.6889   H         2 RES2   0.0000
   126 C48     11.2683   6.3223  18.0926   C.3       3 RES3   0.0000
   127 H60     11.5244   7.1023  17.5923   H         3 RES3   0.0000
   128 H61     12.0519   5.8164  18.3182   H         3 RES3   0.0000
   129 H62     10.8183   6.5911  18.8949   H         3 RES3   0.0000
   130 C49     10.4054   5.5300  17.3138   C.1       3 RES3   0.0000
   131 N2       9.3486   5.0206  16.9332   N.1       3 RES3   0.0000
   132 C50      7.4307   8.0561  18.5124   C.3       4 RES4   0.0000
   133 H63      7.8082   8.0034  17.6316   H         4 RES4   0.0000
   134 H64      8.1335   8.0105  19.1637   H         4 RES4   0.0000
   135 H65      6.9571   8.8853  18.6085   H         4 RES4   0.0000
   136 N4       5.4049   6.3750  18.7831   N.1       4 RES4   0.0000
   137 C52      6.5830   7.0355  18.6968   C.1       4 RES4   0.0000
   138 N3       0.3506  12.9678  14.0319   N.1       5 RES5   0.0000
   139 C51      1.0685  12.4268  13.3120   C.1       5 RES5   0.0000
   140 C53      1.9499  11.7329  12.4135   C.3       5 RES5   0.0000
   141 H66      1.4460  11.3938  11.6700   H         5 RES5   0.0000
   142 H67      2.3679  11.0021  12.8765   H         5 RES5   0.0000
   143 H68      2.6241  12.3372  12.0957   H         5 RES5   0.0000
@<TRIPOS>BOND
     1     1     3   ar
     2     2     5   ar
     3     3     4    1
     4     5     6    1
     5     7     3   ar
     6     8     7    1
     7     9    12    1
     8    10    11    1
     9    12    13    1
    10    14    12    1
    11    15    10   ar
    12    16     9    1
    13    17    16    1
    14    18    16    1
    15    19     1   ar
    16    20    19    1
    17    21    22    1
    18    23    21   ar
    19    24    25    1
    20    26    72    1
    21    27    28    1
    22    29    30    1
    23    31    29   ar
    24    32    31    1
    25    33    27    1
    26    34    33    1
    27    35    64    1
    28    36    50   ar
    29    37    21   ar
    30    38    37    1
    31    39    10   ar
    32    40    39    1
    33    41     9    1
    34    42    41    1
    35    43    41    1
    36    44    15   ar
    37    45    44    1
    38    46    47    1
    39    48     5   ar
    40    49    48    1
    41    50    51    1
    42    52    50   ar
    43    53    52    1
    44    54    23   ar
    45    55    54    1
    46    56    57    1
    47    58    27    1
    48    59    58    1
    49    60    56    1
    50    61    60    1
    51    62    46   ar
    52    63    62    1
    53    64    65    1
    54    66    64    1
    55    67    64    1
    56    68     2   ar
    57    69    68    1
    58    70    71    1
    59    72    73    1
    60    74    72    1
    61    75    72    1
    62    76    46   ar
    63    77     7   ar
    64    78    77    1
    65    79     9    1
    66    80    79    1
    67    81    79    1
    68    82    79    1
    69    83    33    1
    70    84    83    1
    71    85    33    1
    72    86    85    1
    73    87    68   ar
    74    88    87    1
    75    89    62   ar
    76    90    89    1
    77    91    24   ar
    78    92    91    1
    79    93    27    1
    80    94    93    1
    81    95    70   ar
    82    96    95    1
    83    97    36   ar
    84    98    97    1
    85    99    56    1
    86   100    99    1
    87   101    27    1
    88   102   101    1
    89   103    19   ar
    90   104   103    1
    91   105    56    1
    92   106   105    1
    93   107    48   ar
    94   108   107    1
    95   109    97   ar
    96   110   109    1
    97   111    52   ar
    98   112   111    1
    99   113    27    1
   100   114   113    1
   101   115     1    1
   102   116    12    1
   103   117     2    1
   104   118    26    3
   105   119    35    3
   106    15   117    1
   107    16   115    1
   108    23   116    1
   109    24    44   ar
   110    29    37   ar
   111    31    54   ar
   112    33   101    1
   113    33   113    1
   114    36   116    1
   115    39    91   ar
   116    41   117    1
   117    56    83    1
   118    56    85    1
   119    58    60    1
   120    58    93    1
   121    58    99    1
   122    58   113    1
   123    60    93    1
   124    60    99    1
   125    60   105    1
   126    70    76   ar
   127    76   115    1
   128    77   103   ar
   129    83    85    1
   130    83    99    1
   131    83   113    1
   132    85   101    1
   133    85   105    1
   134    87   107   ar
   135    89    95   ar
   136    93   101    1
   137    93   105    1
   138    99   113    1
   139   101   105    1
   140   109   111   ar
   141   114   115    1
   142   114   116    1
   143   114   117    1
   144   114   118    1
   145   114   119    1
   146   120   121    3
   147   122   120    1
   148   123   122    1
   149   124   122    1
   150   125   122    1
   151   126   127    1
   152   128   126    1
   153   129   126    1
   154   130   126    1
   155   131   130    3
   156   132   133    1
   157   134   132    1
   158   135   132    1
   159   136   137    3
   160   137   132    1
   161   138   139    3
   162   139   140    1
   163   140   141    1
   164   142   140    1
   165   143   140    1
@<TRIPOS>SUBSTRUCTURE
     1 RES1        1 GROUP             0 ****  ****    0  
     2 RES2      120 GROUP             0 ****  ****    0  
     3 RES3      126 GROUP             0 ****  ****    0  
     4 RES4      132 GROUP             0 ****  ****    0  
     5 RES5      138 GROUP             0 ****  ****    0  
@<TRIPOS>CRYSIN
   16.8535   17.5668   19.6168   90.0000   90.0000   90.0000    19     1
