@<TRIPOS>MOLECULE
EPAYOL
   170   173     4     0     0
SMALL
USER_CHARGES
****
Generated from the CSD

@<TRIPOS>ATOM
     1 Fe1      6.3008   0.0000  11.8229   Fe        1 RES1   0.0000
     2 S1       7.0702   3.1643  15.4138   S.2       1 RES1   0.0000
     3 O1       9.8371   6.3748  10.5451   O.3       1 RES1   0.0000
     4 N1       7.2261   1.6274  10.5517   N.ar      1 RES1   0.0000
     5 N2      10.6262  11.0241  12.4855   N.ar      1 RES1   0.0000
     6 N3       6.2682   1.3022  13.4987   N.2       1 RES1   0.0000
     7 O2       4.6988   8.8262  10.7411   O.3       1 RES1   0.0000
     8 O3       8.5375   6.9818  12.8948   O.3       1 RES1   0.0000
     9 N4       7.9730   6.2032   8.1491   N.4       1 RES1   1.0000
    10 O4       5.8906   8.3992   8.2467   O.3       1 RES1   0.0000
    11 C1      10.3723  10.8990  13.8011   C.ar      1 RES1   0.0000
    12 H1      11.0629  11.1179  14.4145   H         1 RES1   0.0000
    13 C2       6.5906   2.0735  14.3069   C.1       1 RES1   0.0000
    14 N5       6.2012   8.5569  13.3185   N.3       1 RES1   0.0000
    15 C3       9.6376  10.6810  11.6418   C.ar      1 RES1   0.0000
    16 H2       9.7964  10.7480  10.7068   H         1 RES1   0.0000
    17 C4       7.4576   3.7885   8.7750   C.ar      1 RES1   0.0000
    18 C5       8.3989  10.2347  12.0726   C.ar      1 RES1   0.0000
    19 H3       7.7298   9.9986  11.4398   H         1 RES1   0.0000
    20 C6       7.9616   7.0209  14.1998   C.3       1 RES1   0.0000
    21 H4       8.4039   7.7199  14.7432   H         1 RES1   0.0000
    22 H5       8.0864   6.1481  14.6509   H         1 RES1   0.0000
    23 C7      10.0850   6.9575   9.2829   C.3       1 RES1   0.0000
    24 H6      11.0591   7.0435   9.1296   H         1 RES1   0.0000
    25 H7       9.6792   7.8589   9.2360   H         1 RES1   0.0000
    26 C8       9.1575  10.4694  14.3062   C.ar      1 RES1   0.0000
    27 H8       9.0239  10.4063  15.2444   H         1 RES1   0.0000
    28 C9       7.1413   2.9084  10.9631   C.ar      1 RES1   0.0000
    29 H9       6.9989   3.0705  11.8891   H         1 RES1   0.0000
    30 C10      7.6415   7.2754   7.1309   C.3       1 RES1   0.0000
    31 H10      8.1809   8.0804   7.3349   H         1 RES1   0.0000
    32 H11      7.9125   6.9540   6.2354   H         1 RES1   0.0000
    33 C11      8.1406  10.1331  13.4358   C.ar      1 RES1   0.0000
    34 C12      7.6479   2.4830   8.3500   C.ar      1 RES1   0.0000
    35 H12      7.8596   2.2999   7.4413   H         1 RES1   0.0000
    36 C13      7.5256   1.4476   9.2614   C.ar      1 RES1   0.0000
    37 H13      7.6630   0.5608   8.9523   H         1 RES1   0.0000
    38 C14      6.7809   9.7415  13.9690   C.3       1 RES1   0.0000
    39 H14      6.8590   9.5650  14.9394   H         1 RES1   0.0000
    40 H15      6.1621  10.5052  13.8517   H         1 RES1   0.0000
    41 C15      7.2484   3.9928  10.1256   C.ar      1 RES1   0.0000
    42 H16      7.1791   4.8756  10.4727   H         1 RES1   0.0000
    43 C16      7.3379   4.8954   7.7499   C.3       1 RES1   0.0000
    44 H17      7.7524   4.5881   6.9046   H         1 RES1   0.0000
    45 H18      6.3764   5.0547   7.5690   H         1 RES1   0.0000
    46 C17      6.1886   7.6708   7.0807   C.3       1 RES1   0.0000
    47 H19      6.0160   8.2265   6.2803   H         1 RES1   0.0000
    48 H20      5.6190   6.8621   7.0299   H         1 RES1   0.0000
    49 C18      9.4713   6.0545   8.2436   C.3       1 RES1   0.0000
    50 H21      9.6893   5.1136   8.4652   H         1 RES1   0.0000
    51 H22      9.8720   6.2588   7.3609   H         1 RES1   0.0000
    52 C19      4.7583   8.7110  13.1213   C.3       1 RES1   0.0000
    53 H23      4.3652   9.1196  13.9321   H         1 RES1   0.0000
    54 H24      4.3513   7.8165  13.0052   H         1 RES1   0.0000
    55 C20      4.4231   9.5473  11.9470   C.3       1 RES1   0.0000
    56 H25      3.4642   9.7936  11.9766   H         1 RES1   0.0000
    57 H26      4.9562  10.3803  11.9671   H         1 RES1   0.0000
    58 C21      6.5074   7.3230  14.0659   C.3       1 RES1   0.0000
    59 H27      6.0676   6.5605  13.6129   H         1 RES1   0.0000
    60 H28      6.1155   7.3970  14.9725   H         1 RES1   0.0000
    61 C22     10.4983   7.0671  11.6004   C.3       1 RES1   0.0000
    62 H29     10.3824   8.0427  11.4871   H         1 RES1   0.0000
    63 H30     11.4674   6.8645  11.5817   H         1 RES1   0.0000
    64 C23      9.9149   6.6345  12.8933   C.3       1 RES1   0.0000
    65 H31     10.0195   5.6556  13.0028   H         1 RES1   0.0000
    66 H32     10.3799   7.0836  13.6436   H         1 RES1   0.0000
    67 C24      4.4975   8.6629   8.3985   C.3       1 RES1   0.0000
    68 H33      4.0035   7.8141   8.5172   H         1 RES1   0.0000
    69 H34      4.1484   9.1173   7.5903   H         1 RES1   0.0000
    70 C25      4.3059   9.5280   9.5860   C.3       1 RES1   0.0000
    71 H35      4.8491  10.3497   9.4914   H         1 RES1   0.0000
    72 H36      3.3545   9.7912   9.6593   H         1 RES1   0.0000
    73 H37      7.5899   6.4827   8.9830   H         1 RES1   0.0000
    74 S1D      5.5313  -3.1643   8.2320   S.2       1 RES1   0.0000
    75 O1D      2.7644  -6.3748  13.1007   O.3       1 RES1   0.0000
    76 N1D      5.3754  -1.6274  13.0941   N.ar      1 RES1   0.0000
    77 N2D      1.9753 -11.0241  11.1603   N.ar      1 RES1   0.0000
    78 N3D      6.3333  -1.3022  10.1471   N.2       1 RES1   0.0000
    79 O2D      7.9027  -8.8262  12.9047   O.3       1 RES1   0.0000
    80 O3D      4.0640  -6.9818  10.7510   O.3       1 RES1   0.0000
    81 N4D      4.6285  -6.2032  15.4967   N.4       1 RES1   1.0000
    82 O4D      6.7109  -8.3992  15.3991   O.3       1 RES1   0.0000
    83 C1D      2.2292 -10.8990   9.8447   C.ar      1 RES1   0.0000
    84 H1D      1.5386 -11.1179   9.2313   H         1 RES1   0.0000
    85 C2D      6.0109  -2.0735   9.3389   C.1       1 RES1   0.0000
    86 N5D      6.4003  -8.5569  10.3273   N.3       1 RES1   0.0000
    87 C3D      2.9639 -10.6810  12.0040   C.ar      1 RES1   0.0000
    88 H2D      2.8051 -10.7480  12.9390   H         1 RES1   0.0000
    89 C4D      5.1439  -3.7885  14.8708   C.ar      1 RES1   0.0000
    90 C5D      4.2026 -10.2347  11.5732   C.ar      1 RES1   0.0000
    91 H3D      4.8717  -9.9986  12.2060   H         1 RES1   0.0000
    92 C6D      4.6399  -7.0209   9.4460   C.3       1 RES1   0.0000
    93 H4D      4.1976  -7.7199   8.9026   H         1 RES1   0.0000
    94 H5D      4.5151  -6.1481   8.9949   H         1 RES1   0.0000
    95 C7D      2.5165  -6.9575  14.3629   C.3       1 RES1   0.0000
    96 H6D      1.5424  -7.0435  14.5162   H         1 RES1   0.0000
    97 H7D      2.9223  -7.8589  14.4098   H         1 RES1   0.0000
    98 C8D      3.4440 -10.4694   9.3396   C.ar      1 RES1   0.0000
    99 H8D      3.5776 -10.4063   8.4014   H         1 RES1   0.0000
   100 C9D      5.4602  -2.9084  12.6827   C.ar      1 RES1   0.0000
   101 H9D      5.6026  -3.0705  11.7567   H         1 RES1   0.0000
   102 C10D     4.9600  -7.2754  16.5149   C.3       1 RES1   0.0000
   103 H10D     4.4206  -8.0804  16.3109   H         1 RES1   0.0000
   104 H11D     4.6890  -6.9540  17.4104   H         1 RES1   0.0000
   105 C11D     4.4609 -10.1331  10.2100   C.ar      1 RES1   0.0000
   106 C12D     4.9536  -2.4830  15.2958   C.ar      1 RES1   0.0000
   107 H12D     4.7419  -2.2999  16.2045   H         1 RES1   0.0000
   108 C13D     5.0759  -1.4476  14.3844   C.ar      1 RES1   0.0000
   109 H13D     4.9385  -0.5608  14.6935   H         1 RES1   0.0000
   110 C14D     5.8206  -9.7415   9.6768   C.3       1 RES1   0.0000
   111 H14D     5.7425  -9.5650   8.7064   H         1 RES1   0.0000
   112 H15D     6.4394 -10.5052   9.7941   H         1 RES1   0.0000
   113 C15D     5.3531  -3.9928  13.5202   C.ar      1 RES1   0.0000
   114 H16D     5.4224  -4.8756  13.1731   H         1 RES1   0.0000
   115 C16D     5.2636  -4.8954  15.8959   C.3       1 RES1   0.0000
   116 H17D     4.8491  -4.5881  16.7412   H         1 RES1   0.0000
   117 H18D     6.2251  -5.0547  16.0768   H         1 RES1   0.0000
   118 C17D     6.4129  -7.6708  16.5651   C.3       1 RES1   0.0000
   119 H19D     6.5855  -8.2265  17.3655   H         1 RES1   0.0000
   120 H20D     6.9825  -6.8621  16.6159   H         1 RES1   0.0000
   121 C18D     3.1302  -6.0545  15.4022   C.3       1 RES1   0.0000
   122 H21D     2.9122  -5.1136  15.1806   H         1 RES1   0.0000
   123 H22D     2.7295  -6.2588  16.2849   H         1 RES1   0.0000
   124 C19D     7.8432  -8.7110  10.5245   C.3       1 RES1   0.0000
   125 H23D     8.2363  -9.1196   9.7137   H         1 RES1   0.0000
   126 H24D     8.2502  -7.8165  10.6406   H         1 RES1   0.0000
   127 C20D     8.1784  -9.5473  11.6988   C.3       1 RES1   0.0000
   128 H25D     9.1373  -9.7936  11.6692   H         1 RES1   0.0000
   129 H26D     7.6453 -10.3803  11.6787   H         1 RES1   0.0000
   130 C21D     6.0941  -7.3230   9.5799   C.3       1 RES1   0.0000
   131 H27D     6.5339  -6.5605  10.0329   H         1 RES1   0.0000
   132 H28D     6.4860  -7.3970   8.6733   H         1 RES1   0.0000
   133 C22D     2.1032  -7.0671  12.0454   C.3       1 RES1   0.0000
   134 H29D     2.2191  -8.0427  12.1587   H         1 RES1   0.0000
   135 H30D     1.1341  -6.8645  12.0641   H         1 RES1   0.0000
   136 C23D     2.6866  -6.6345  10.7525   C.3       1 RES1   0.0000
   137 H31D     2.5820  -5.6556  10.6430   H         1 RES1   0.0000
   138 H32D     2.2216  -7.0836  10.0022   H         1 RES1   0.0000
   139 C24D     8.1040  -8.6629  15.2473   C.3       1 RES1   0.0000
   140 H33D     8.5980  -7.8141  15.1286   H         1 RES1   0.0000
   141 H34D     8.4531  -9.1173  16.0555   H         1 RES1   0.0000
   142 C25D     8.2956  -9.5280  14.0598   C.3       1 RES1   0.0000
   143 H35D     7.7524 -10.3497  14.1544   H         1 RES1   0.0000
   144 H36D     9.2470  -9.7912  13.9865   H         1 RES1   0.0000
   145 H37D     5.0116  -6.4827  14.6628   H         1 RES1   0.0000
   146 Fe1B     0.0000 -11.7825  11.8229   Fe        1 RES1   0.0000
   147 Fe1B    12.6015  11.7825  11.8229   Fe        1 RES1   0.0000
   148 N2B      4.3255   0.7583  11.1603   N.3       1 RES1   0.0000
   149 N2F      8.2760  -0.7583  12.4855   N.3       1 RES1   0.0000
   150 Cl1      3.9798   3.5781   6.3335   Cl        2 RES2   0.0000
   151 O5       2.6299   3.1120   6.4986   O.3       2 RES2  -1.0000
   152 O6       4.3916   3.3078   4.9862   O.2       2 RES2   0.0000
   153 O7       4.0111   4.9887   6.5868   O.2       2 RES2   0.0000
   154 O8       4.8264   2.8942   7.2576   O.2       2 RES2   0.0000
   155 O9       0.7136   4.6376  13.1007   O.3       3 RES3   0.0000
   156 H38      0.2104   3.9401  13.0596   H         3 RES3   0.0000
   157 H39      1.1593   4.5999  12.2414   H         3 RES3   0.0000
   158 O10      2.9538   1.4419  15.5220   O.3       4 RES4   0.0000
   159 C26      1.8310   0.5693  15.4958   C.3       4 RES4   0.0000
   160 H40      2.0767  -0.2946  15.0766   H         4 RES4   0.0000
   161 H41      1.0951   0.9732  14.9725   H         4 RES4   0.0000
   162 C27      3.6040   1.3361  16.7710   C.3       4 RES4   0.0000
   163 H42      3.6784   2.2269  17.1976   H         4 RES4   0.0000
   164 H43      4.5139   0.9638  16.6561   H         4 RES4   0.0000
   165 C28      1.4063   0.3570  16.9020   C.3       4 RES4   0.0000
   166 H44      0.9665  -0.5208  17.0226   H         4 RES4   0.0000
   167 H45      0.7989   1.0746  17.2118   H         4 RES4   0.0000
   168 C29      2.7572   0.4124  17.6209   C.3       4 RES4   0.0000
   169 H46      2.6539   0.7729  18.5383   H         4 RES4   0.0000
   170 H47      3.1655  -0.4878  17.6752   H         4 RES4   0.0000
@<TRIPOS>BOND
     1     1     4    1
     2     2    13    2
     3     3    23    1
     4     4    28   ar
     5     5    11   ar
     6     6     1    1
     7     7    55    1
     8     8    20    1
     9     9    30    1
    10    10    46    1
    11    11    12    1
    12    13     6    2
    13    14    38    1
    14    15     5   ar
    15    16    15    1
    16    17    34   ar
    17    18    15   ar
    18    19    18    1
    19    20    21    1
    20    22    20    1
    21    23    24    1
    22    25    23    1
    23    26    11   ar
    24    27    26    1
    25    28    29    1
    26    30    31    1
    27    32    30    1
    28    33    18   ar
    29    34    35    1
    30    36     4   ar
    31    37    36    1
    32    38    33    1
    33    39    38    1
    34    40    38    1
    35    41    17   ar
    36    42    41    1
    37    43     9    1
    38    44    43    1
    39    45    43    1
    40    46    30    1
    41    47    46    1
    42    48    46    1
    43    49     9    1
    44    50    49    1
    45    51    49    1
    46    52    14    1
    47    53    52    1
    48    54    52    1
    49    55    52    1
    50    56    55    1
    51    57    55    1
    52    58    14    1
    53    59    58    1
    54    60    58    1
    55    61     3    1
    56    62    61    1
    57    63    61    1
    58    64     8    1
    59    65    64    1
    60    66    64    1
    61    67    10    1
    62    68    67    1
    63    69    67    1
    64    70     7    1
    65    71    70    1
    66    72    70    1
    67    73     9    1
    68    74    85    2
    69    75    95    1
    70    76     1    1
    71    77    83   ar
    72    78     1    1
    73    79   127    1
    74    80    92    1
    75    81   102    1
    76    82   118    1
    77    83    84    1
    78    85    78    2
    79    86   110    1
    80    87    77   ar
    81    88    87    1
    82    89   106   ar
    83    90    87   ar
    84    91    90    1
    85    92    93    1
    86    94    92    1
    87    95    96    1
    88    97    95    1
    89    98    83   ar
    90    99    98    1
    91   100    76   ar
    92   101   100    1
    93   102   103    1
    94   104   102    1
    95   105    90   ar
    96   106   107    1
    97   108    76   ar
    98   109   108    1
    99   110   105    1
   100   111   110    1
   101   112   110    1
   102   113    89   ar
   103   114   113    1
   104   115    81    1
   105   116   115    1
   106   117   115    1
   107   118   102    1
   108   119   118    1
   109   120   118    1
   110   121    81    1
   111   122   121    1
   112   123   121    1
   113   124    86    1
   114   125   124    1
   115   126   124    1
   116   127   124    1
   117   128   127    1
   118   129   127    1
   119   130    86    1
   120   131   130    1
   121   132   130    1
   122   133    75    1
   123   134   133    1
   124   135   133    1
   125   136    80    1
   126   137   136    1
   127   138   136    1
   128   139    82    1
   129   140   139    1
   130   141   139    1
   131   142    79    1
   132   143   142    1
   133   144   142    1
   134   145    81    1
   135   146    77   un
   136   147     5   un
   137   148     1   un
   138   149     1   un
   139    17    43    1
   140    20    58    1
   141    23    49    1
   142    26    33   ar
   143    28    41   ar
   144    34    36   ar
   145    61    64    1
   146    67    70    1
   147    89   115    1
   148    92   130    1
   149    95   121    1
   150    98   105   ar
   151   100   113   ar
   152   106   108   ar
   153   133   136    1
   154   139   142    1
   155   150   151    1
   156   152   150    2
   157   153   150    2
   158   154   150    2
   159   155   156    1
   160   157   155    1
   161   158   159    1
   162   159   160    1
   163   161   159    1
   164   162   158    1
   165   163   162    1
   166   164   162    1
   167   165   159    1
   168   166   165    1
   169   167   165    1
   170   168   162    1
   171   169   168    1
   172   170   168    1
   173   165   168    1
@<TRIPOS>SUBSTRUCTURE
     1 RES1        1 GROUP             0 ****  ****    0  
     2 RES2      150 GROUP             0 ****  ****    0  
     3 RES3      155 GROUP             0 ****  ****    0  
     4 RES4      158 GROUP             0 ****  ****    0  
@<TRIPOS>CRYSIN
   12.6015   23.5649   23.6458   90.0000   90.0000   90.0000    61     1
