@<TRIPOS>MOLECULE
EPAYEB
   157   160     3     0     0
SMALL
USER_CHARGES
****
Generated from the CSD

@<TRIPOS>ATOM
     1 Fe1      4.1420   9.4229  19.3638   Fe        1 RES1   0.0000
     2 S1       8.2618  10.6937  17.3657   S.2       1 RES1   0.0000
     3 N1       6.1963   9.5142  18.8216   N.2       1 RES1   0.0000
     4 N2       3.7617  11.0115  17.8779   N.ar      1 RES1   0.0000
     5 C1      -3.9219  14.3050  15.9854   C.ar      1 RES1   0.0000
     6 N3      -3.3614  16.3249  17.8488   N.ar      1 RES1   0.0000
     7 C2      -2.5388  16.0786  16.8297   C.ar      1 RES1   0.0000
     8 H1      -1.7521  16.6034  16.7484   H         1 RES1   0.0000
     9 C3       3.3731  12.9493  15.9010   C.ar      1 RES1   0.0000
    10 C4       2.6904  10.9731  17.0657   C.ar      1 RES1   0.0000
    11 H2       2.0647  10.2659  17.1744   H         1 RES1   0.0000
    12 N4      -3.0782  12.5349  14.4575   N.3       1 RES1   0.0000
    13 C5       7.0696   9.9860  18.2314   C.1       1 RES1   0.0000
    14 C6      -4.7756  14.5656  17.0409   C.ar      1 RES1   0.0000
    15 H3      -5.5667  14.0509  17.1511   H         1 RES1   0.0000
    16 C7      -4.2607  13.2463  14.9669   C.3       1 RES1   0.0000
    17 H4      -4.8774  12.5906  15.3774   H         1 RES1   0.0000
    18 H5      -4.7319  13.6710  14.2079   H         1 RES1   0.0000
    19 C8       3.2165  13.9829  14.8265   C.3       1 RES1   0.0000
    20 H6       3.0391  13.5174  13.9703   H         1 RES1   0.0000
    21 H7       4.0753  14.4645  14.7294   H         1 RES1   0.0000
    22 C9      -4.4773  15.5731  17.9342   C.ar      1 RES1   0.0000
    23 H8      -5.0857  15.7458  18.6434   H         1 RES1   0.0000
    24 C10      2.4588  11.9150  16.0810   C.ar      1 RES1   0.0000
    25 H9       1.6850  11.8579  15.5323   H         1 RES1   0.0000
    26 C11      4.4909  12.9932  16.7303   C.ar      1 RES1   0.0000
    27 H10      5.1375  13.6829  16.6348   H         1 RES1   0.0000
    28 C12     -2.7787  15.0908  15.8809   C.ar      1 RES1   0.0000
    29 H11     -2.1670  14.9541  15.1683   H         1 RES1   0.0000
    30 C13     -2.8061  11.3076  15.2158   C.3       1 RES1   0.0000
    31 H12     -2.0307  10.8467  14.8094   H         1 RES1   0.0000
    32 H13     -3.5882  10.7049  15.1373   H         1 RES1   0.0000
    33 C14      4.6438  12.0141  17.6998   C.ar      1 RES1   0.0000
    34 H14      5.4067  12.0521  18.2639   H         1 RES1   0.0000
    35 O1      -1.7014  13.9596  12.3701   O.3       1 RES1   0.0000
    36 O2       0.5205  14.3245  17.3197   O.3       1 RES1   0.0000
    37 O3      -1.3103  12.3023  16.8088   O.3       1 RES1   0.0000
    38 N5       2.1247  14.9978  15.0506   N.4       1 RES1   1.0000
    39 C15      2.2526  15.9822  13.9022   C.3       1 RES1   0.0000
    40 H15      3.0516  16.5444  14.0555   H         1 RES1   0.0000
    41 H16      2.4009  15.4740  13.0667   H         1 RES1   0.0000
    42 C16     -3.0180  13.4465  12.1749   C.3       1 RES1   0.0000
    43 H17     -3.1479  13.2068  11.2232   H         1 RES1   0.0000
    44 H18     -3.6869  14.1353  12.4161   H         1 RES1   0.0000
    45 C17     -3.2048  12.2395  13.0298   C.3       1 RES1   0.0000
    46 H19     -4.1005  11.8562  12.8576   H         1 RES1   0.0000
    47 H20     -2.5303  11.5591  12.7801   H         1 RES1   0.0000
    48 C18      2.2061  15.7273  16.3647   C.3       1 RES1   0.0000
    49 H21      3.1419  16.0210  16.4979   H         1 RES1   0.0000
    50 H22      1.6465  16.5410  16.3017   H         1 RES1   0.0000
    51 C19      0.1885  13.3672  18.3176   C.3       1 RES1   0.0000
    52 H23      0.2657  13.7825  19.2140   H         1 RES1   0.0000
    53 H24      0.8256  12.6109  18.2742   H         1 RES1   0.0000
    54 C20     -2.5221  11.5388  16.6652   C.3       1 RES1   0.0000
    55 H25     -3.2758  12.0284  17.0789   H         1 RES1   0.0000
    56 H26     -2.4256  10.6694  17.1305   H         1 RES1   0.0000
    57 C21      1.0612  16.8837  13.7096   C.3       1 RES1   0.0000
    58 H27      0.9089  17.3952  14.5435   H         1 RES1   0.0000
    59 H28      1.2625  17.5320  12.9918   H         1 RES1   0.0000
    60 C22     -1.1892  12.8641  18.1237   C.3       1 RES1   0.0000
    61 H29     -1.3932  12.1736  18.8035   H         1 RES1   0.0000
    62 H30     -1.8349  13.6069  18.2329   H         1 RES1   0.0000
    63 C23      1.7777  14.9524  17.5790   C.3       1 RES1   0.0000
    64 H31      2.4572  14.2653  17.7966   H         1 RES1   0.0000
    65 H32      1.6956  15.5618  18.3543   H         1 RES1   0.0000
    66 O4      -0.1291  16.1841  13.3768   O.3       1 RES1   0.0000
    67 C24     -1.4960  15.1972  11.6888   C.3       1 RES1   0.0000
    68 H33     -2.1859  15.8522  11.9642   H         1 RES1   0.0000
    69 H34     -1.5709  15.0587  10.7120   H         1 RES1   0.0000
    70 C25     -0.1294  15.7205  12.0288   C.3       1 RES1   0.0000
    71 H35      0.5433  15.0030  11.9203   H         1 RES1   0.0000
    72 H36      0.1083  16.4633  11.4169   H         1 RES1   0.0000
    73 H37      1.2468  14.4848  15.0495   H         1 RES1   0.0000
    74 S1A      0.0223  10.6937  21.3619   S.2       1 RES1   0.0000
    75 N1A      2.0878   9.5142  19.9060   N.2       1 RES1   0.0000
    76 N2A      4.5224  11.0115  20.8496   N.ar      1 RES1   0.0000
    77 C1A     12.2060  14.3050  22.7421   C.ar      1 RES1   0.0000
    78 N3A     11.6455  16.3249  20.8788   N.ar      1 RES1   0.0000
    79 C2A     10.8229  16.0786  21.8979   C.ar      1 RES1   0.0000
    80 H1A     10.0362  16.6034  21.9792   H         1 RES1   0.0000
    81 C3A      4.9110  12.9493  22.8265   C.ar      1 RES1   0.0000
    82 C4A      5.5936  10.9731  21.6619   C.ar      1 RES1   0.0000
    83 H2A      6.2194  10.2659  21.5532   H         1 RES1   0.0000
    84 N4A     11.3623  12.5349  24.2700   N.3       1 RES1   0.0000
    85 C5A      1.2145   9.9860  20.4962   C.1       1 RES1   0.0000
    86 C6A     13.0597  14.5656  21.6867   C.ar      1 RES1   0.0000
    87 H3A     13.8508  14.0509  21.5764   H         1 RES1   0.0000
    88 C7A     12.5448  13.2463  23.7607   C.3       1 RES1   0.0000
    89 H4A     13.1615  12.5906  23.3501   H         1 RES1   0.0000
    90 H5A     13.0160  13.6710  24.5197   H         1 RES1   0.0000
    91 C8A      5.0676  13.9829  23.9011   C.3       1 RES1   0.0000
    92 H6A      5.2450  13.5174  24.7572   H         1 RES1   0.0000
    93 H7A      4.2088  14.4645  23.9982   H         1 RES1   0.0000
    94 C9A     12.7614  15.5731  20.7933   C.ar      1 RES1   0.0000
    95 H8A     13.3698  15.7458  20.0841   H         1 RES1   0.0000
    96 C10A     5.8253  11.9150  22.6466   C.ar      1 RES1   0.0000
    97 H9A      6.5991  11.8579  23.1952   H         1 RES1   0.0000
    98 C11A     3.7932  12.9932  21.9973   C.ar      1 RES1   0.0000
    99 H10A     3.1466  13.6829  22.0928   H         1 RES1   0.0000
   100 C12A    11.0628  15.0908  22.8467   C.ar      1 RES1   0.0000
   101 H11A    10.4511  14.9541  23.5593   H         1 RES1   0.0000
   102 C13A    11.0902  11.3076  23.5118   C.3       1 RES1   0.0000
   103 H12A    10.3148  10.8467  23.9181   H         1 RES1   0.0000
   104 H13A    11.8723  10.7049  23.5903   H         1 RES1   0.0000
   105 C14A     3.6403  12.0141  21.0278   C.ar      1 RES1   0.0000
   106 H14A     2.8774  12.0521  20.4636   H         1 RES1   0.0000
   107 O1A      9.9855  13.9596  26.3575   O.3       1 RES1   0.0000
   108 O2A      7.7636  14.3245  21.4078   O.3       1 RES1   0.0000
   109 O3A      9.5944  12.3023  21.9188   O.3       1 RES1   0.0000
   110 N5A      6.1594  14.9978  23.6770   N.4       1 RES1   1.0000
   111 C15A     6.0315  15.9822  24.8254   C.3       1 RES1   0.0000
   112 H15A     5.2325  16.5444  24.6720   H         1 RES1   0.0000
   113 H16A     5.8832  15.4740  25.6609   H         1 RES1   0.0000
   114 C16A    11.3021  13.4465  26.5527   C.3       1 RES1   0.0000
   115 H17A    11.4320  13.2068  27.5043   H         1 RES1   0.0000
   116 H18A    11.9710  14.1353  26.3115   H         1 RES1   0.0000
   117 C17A    11.4889  12.2395  25.6978   C.3       1 RES1   0.0000
   118 H19A    12.3846  11.8562  25.8700   H         1 RES1   0.0000
   119 H20A    10.8144  11.5591  25.9475   H         1 RES1   0.0000
   120 C18A     6.0780  15.7273  22.3628   C.3       1 RES1   0.0000
   121 H21A     5.1422  16.0210  22.2296   H         1 RES1   0.0000
   122 H22A     6.6376  16.5410  22.4258   H         1 RES1   0.0000
   123 C19A     8.0956  13.3672  20.4099   C.3       1 RES1   0.0000
   124 H23A     8.0183  13.7825  19.5135   H         1 RES1   0.0000
   125 H24A     7.4585  12.6109  20.4533   H         1 RES1   0.0000
   126 C20A    10.8062  11.5388  22.0623   C.3       1 RES1   0.0000
   127 H25A    11.5599  12.0284  21.6487   H         1 RES1   0.0000
   128 H26A    10.7097  10.6694  21.5971   H         1 RES1   0.0000
   129 C21A     7.2229  16.8837  25.0180   C.3       1 RES1   0.0000
   130 H27A     7.3752  17.3952  24.1841   H         1 RES1   0.0000
   131 H28A     7.0216  17.5320  25.7358   H         1 RES1   0.0000
   132 C22A     9.4733  12.8641  20.6038   C.3       1 RES1   0.0000
   133 H29A     9.6773  12.1736  19.9240   H         1 RES1   0.0000
   134 H30A    10.1190  13.6069  20.4946   H         1 RES1   0.0000
   135 C23A     6.5064  14.9524  21.1486   C.3       1 RES1   0.0000
   136 H31A     5.8269  14.2653  20.9310   H         1 RES1   0.0000
   137 H32A     6.5885  15.5618  20.3733   H         1 RES1   0.0000
   138 O4A      8.4132  16.1841  25.3508   O.3       1 RES1   0.0000
   139 C24A     9.7801  15.1972  27.0388   C.3       1 RES1   0.0000
   140 H33A    10.4700  15.8522  26.7633   H         1 RES1   0.0000
   141 H34A     9.8550  15.0587  28.0155   H         1 RES1   0.0000
   142 C25A     8.4135  15.7205  26.6988   C.3       1 RES1   0.0000
   143 H35A     7.7408  15.0030  26.8072   H         1 RES1   0.0000
   144 H36A     8.1758  16.4633  27.3107   H         1 RES1   0.0000
   145 H37A     7.0373  14.4848  23.6780   H         1 RES1   0.0000
   146 Fe1B    -2.9735  17.8639  19.3638   Fe        1 RES1   0.0000
   147 Fe1B    11.2575  17.8639  19.3638   Fe        1 RES1   0.0000
   148 N3B      3.7541   7.8839  17.8488   N.3       1 RES1   0.0000
   149 N3C      4.5300   7.8839  20.8788   N.3       1 RES1   0.0000
   150 Cl1     -0.4891   8.0205  15.5034   Cl        2 RES2   0.0000
   151 O5       0.2432   9.1872  15.3387   O.2       2 RES2   0.0000
   152 O6       0.0876   6.9014  14.9153   O.2       2 RES2   0.0000
   153 O7      -0.4347   7.7826  16.9730   O.3       2 RES2  -1.0000
   154 O8      -1.7824   8.1996  15.1012   O.2       2 RES2   0.0000
   155 O9       0.0455  13.2397  14.4715   O.3       3 RES3   0.0000
   156 H38     -0.3286  13.0160  15.2070   H         3 RES3   0.0000
   157 H39     -0.4952  13.4887  13.8825   H         3 RES3   0.0000
@<TRIPOS>BOND
     1     1     3    1
     2     2    13    2
     3     3    13    2
     4     4     1    1
     5     5    14   ar
     6     6     7   ar
     7     7     8    1
     8     9    19    1
     9    10     4   ar
    10    11    10    1
    11    12    16    1
    12    14    15    1
    13    16     5    1
    14    17    16    1
    15    18    16    1
    16    19    20    1
    17    21    19    1
    18    22     6   ar
    19    23    22    1
    20    24     9   ar
    21    25    24    1
    22    26     9   ar
    23    27    26    1
    24    28     5   ar
    25    29    28    1
    26    30    12    1
    27    31    30    1
    28    32    30    1
    29    33     4   ar
    30    34    33    1
    31    35    42    1
    32    36    51    1
    33    37    54    1
    34    38    19    1
    35    39    38    1
    36    40    39    1
    37    41    39    1
    38    42    43    1
    39    44    42    1
    40    45    12    1
    41    46    45    1
    42    47    45    1
    43    48    38    1
    44    49    48    1
    45    50    48    1
    46    51    52    1
    47    53    51    1
    48    54    30    1
    49    55    54    1
    50    56    54    1
    51    57    39    1
    52    58    57    1
    53    59    57    1
    54    60    37    1
    55    61    60    1
    56    62    60    1
    57    63    36    1
    58    64    63    1
    59    65    63    1
    60    66    57    1
    61    67    35    1
    62    68    67    1
    63    69    67    1
    64    70    66    1
    65    71    70    1
    66    72    70    1
    67    73    38    1
    68    74    85    2
    69    75     1    1
    70    76     1    1
    71    77    86   ar
    72    78    79   ar
    73    79    80    1
    74    81    91    1
    75    82    76   ar
    76    83    82    1
    77    84    88    1
    78    85    75    2
    79    86    87    1
    80    88    77    1
    81    89    88    1
    82    90    88    1
    83    91    92    1
    84    93    91    1
    85    94    78   ar
    86    95    94    1
    87    96    81   ar
    88    97    96    1
    89    98    81   ar
    90    99    98    1
    91   100    77   ar
    92   101   100    1
    93   102    84    1
    94   103   102    1
    95   104   102    1
    96   105    76   ar
    97   106   105    1
    98   107   114    1
    99   108   123    1
   100   109   126    1
   101   110    91    1
   102   111   110    1
   103   112   111    1
   104   113   111    1
   105   114   115    1
   106   116   114    1
   107   117    84    1
   108   118   117    1
   109   119   117    1
   110   120   110    1
   111   121   120    1
   112   122   120    1
   113   123   124    1
   114   125   123    1
   115   126   102    1
   116   127   126    1
   117   128   126    1
   118   129   111    1
   119   130   129    1
   120   131   129    1
   121   132   109    1
   122   133   132    1
   123   134   132    1
   124   135   108    1
   125   136   135    1
   126   137   135    1
   127   138   129    1
   128   139   107    1
   129   140   139    1
   130   141   139    1
   131   142   138    1
   132   143   142    1
   133   144   142    1
   134   145   110    1
   135   146     6   un
   136   147    78   un
   137   148     1   un
   138   149     1   un
   139     7    28   ar
   140    10    24   ar
   141    14    22   ar
   142    26    33   ar
   143    42    45    1
   144    48    63    1
   145    51    60    1
   146    67    70    1
   147    79   100   ar
   148    82    96   ar
   149    86    94   ar
   150    98   105   ar
   151   114   117    1
   152   120   135    1
   153   123   132    1
   154   139   142    1
   155   150   151    2
   156   152   150    2
   157   153   150    1
   158   154   150    2
   159   155   156    1
   160   157   155    1
@<TRIPOS>SUBSTRUCTURE
     1 RES1        1 GROUP             0 ****  ****    0  
     2 RES2      150 GROUP             0 ****  ****    0  
     3 RES3      155 GROUP             0 ****  ****    0  
@<TRIPOS>CRYSIN
   14.2310   16.8820   26.1210   90.0000   98.7300   90.0000    15     1
