@<TRIPOS>MOLECULE
EPIQAY
   113   128     1     0     0
SMALL
NO_CHARGES
****
Generated from the CSD

@<TRIPOS>ATOM
     1 C1       7.3931   6.8834   2.6756   C.ar      1 RES1   0.0000
     2 C2       8.2108   7.9386   3.1206   C.ar      1 RES1   0.0000
     3 H1       8.0845   8.4808   3.8904   H         1 RES1   0.0000
     4 C3       9.2322   8.0173   2.2028   C.ar      1 RES1   0.0000
     5 H2       9.9574   8.6305   2.2302   H         1 RES1   0.0000
     6 C4       8.1127   6.6201  -2.9099   C.ar      1 RES1   0.0000
     7 C5       9.1582   7.4900  -3.2709   C.ar      1 RES1   0.0000
     8 H3       9.2638   7.9496  -4.0956   H         1 RES1   0.0000
     9 C6       9.9920   7.5357  -2.1845   C.ar      1 RES1   0.0000
    10 H4      10.7957   8.0381  -2.1212   H         1 RES1   0.0000
    11 C7      10.3297   3.0631   0.9734   C.ar      1 RES1   0.0000
    12 C8      11.6229   3.4717   1.3325   C.ar      1 RES1   0.0000
    13 H5      12.3159   2.9358   1.7000   H         1 RES1   0.0000
    14 C9      11.6726   4.8162   1.0381   C.ar      1 RES1   0.0000
    15 H6      12.4177   5.3885   1.1785   H         1 RES1   0.0000
    16 C10      6.2252   6.3529   3.4028   C.ar      1 RES1   0.0000
    17 C11      6.2560   6.3713   4.8034   C.ar      1 RES1   0.0000
    18 H7       7.0248   6.7039   5.2515   H         1 RES1   0.0000
    19 C12      5.1782   5.9100   5.5435   C.ar      1 RES1   0.0000
    20 H8       5.2119   5.9317   6.4926   H         1 RES1   0.0000
    21 C13      4.0533   5.4179   4.9046   C.ar      1 RES1   0.0000
    22 H9       3.3120   5.1078   5.4113   H         1 RES1   0.0000
    23 C14      4.0173   5.3811   3.5210   C.ar      1 RES1   0.0000
    24 H10      3.2522   5.0315   3.0795   H         1 RES1   0.0000
    25 C15      5.0887   5.8505   2.7720   C.ar      1 RES1   0.0000
    26 H11      5.0465   5.8288   1.8232   H         1 RES1   0.0000
    27 C16      6.9747   6.2976  -3.7980   C.ar      1 RES1   0.0000
    28 C17      6.7910   7.0790  -4.9505   C.ar      1 RES1   0.0000
    29 H12      7.3955   7.7884  -5.1348   H         1 RES1   0.0000
    30 C18      5.7425   6.8328  -5.8239   C.ar      1 RES1   0.0000
    31 H13      5.6386   7.3708  -6.6000   H         1 RES1   0.0000
    32 C19      4.8439   5.8056  -5.5718   C.ar      1 RES1   0.0000
    33 H14      4.1255   5.6376  -6.1702   H         1 RES1   0.0000
    34 C20      5.0074   5.0293  -4.4382   C.ar      1 RES1   0.0000
    35 H15      4.3960   4.3253  -4.2562   H         1 RES1   0.0000
    36 C21      6.0611   5.2728  -3.5632   C.ar      1 RES1   0.0000
    37 H16      6.1594   4.7294  -2.7902   H         1 RES1   0.0000
    38 C22      9.7872   1.7096   1.1822   C.ar      1 RES1   0.0000
    39 C23     10.1726   1.0133   2.3310   C.ar      1 RES1   0.0000
    40 H17     10.7600   1.4237   2.9547   H         1 RES1   0.0000
    41 C24      9.7052  -0.2735   2.5702   C.ar      1 RES1   0.0000
    42 H18      9.9818  -0.7421   3.3490   H         1 RES1   0.0000
    43 C25      8.8359  -0.8731   1.6733   C.ar      1 RES1   0.0000
    44 H19      8.4973  -1.7438   1.8453   H         1 RES1   0.0000
    45 C26      8.4635  -0.1944   0.5231   C.ar      1 RES1   0.0000
    46 H20      7.8751  -0.6075  -0.0978   H         1 RES1   0.0000
    47 C27      8.9432   1.0841   0.2708   C.ar      1 RES1   0.0000
    48 H21      8.6937   1.5337  -0.5280   H         1 RES1   0.0000
    49 N1       7.8918   6.3679   1.5251   N.ar      1 RES1   0.0000
    50 N2       8.3164   6.1625  -1.6459   N.ar      1 RES1   0.0000
    51 N3       9.6335   4.1115   0.4754   N.ar      1 RES1   0.0000
    52 N4       9.0306   7.0768   1.2571   N.ar      1 RES1   0.0000
    53 N5       9.4773   6.7461  -1.2212   N.ar      1 RES1   0.0000
    54 N6      10.4866   5.1815   0.5180   N.ar      1 RES1   0.0000
    55 Fe1      7.5800   4.7753   0.0000   Fe        1 RES1   0.0000
    56 B1      10.0464   6.6216   0.1921   B         1 RES1   0.0000
    57 H22     10.9478   7.2699   0.2654   H         1 RES1   0.0000
    58 C1A      7.7669   2.6673  -2.6756   C.ar      1 RES1   0.0000
    59 C2A      6.9491   1.6121  -3.1206   C.ar      1 RES1   0.0000
    60 H1A      7.0754   1.0699  -3.8904   H         1 RES1   0.0000
    61 C3A      5.9277   1.5334  -2.2028   C.ar      1 RES1   0.0000
    62 H2A      5.2026   0.9202  -2.2302   H         1 RES1   0.0000
    63 C4A      7.0473   2.9305   2.9099   C.ar      1 RES1   0.0000
    64 C5A      6.0018   2.0606   3.2709   C.ar      1 RES1   0.0000
    65 H3A      5.8961   1.6010   4.0956   H         1 RES1   0.0000
    66 C6A      5.1680   2.0150   2.1845   C.ar      1 RES1   0.0000
    67 H4A      4.3643   1.5126   2.1212   H         1 RES1   0.0000
    68 C7A      4.8303   6.4876  -0.9734   C.ar      1 RES1   0.0000
    69 C8A      3.5371   6.0789  -1.3325   C.ar      1 RES1   0.0000
    70 H5A      2.8440   6.6148  -1.7000   H         1 RES1   0.0000
    71 C9A      3.4874   4.7345  -1.0381   C.ar      1 RES1   0.0000
    72 H6A      2.7422   4.1621  -1.1785   H         1 RES1   0.0000
    73 C10A     8.9347   3.1977  -3.4028   C.ar      1 RES1   0.0000
    74 C11A     8.9040   3.1794  -4.8034   C.ar      1 RES1   0.0000
    75 H7A      8.1351   2.8467  -5.2515   H         1 RES1   0.0000
    76 C12A     9.9818   3.6406  -5.5435   C.ar      1 RES1   0.0000
    77 H8A      9.9481   3.6189  -6.4926   H         1 RES1   0.0000
    78 C13A    11.1066   4.1328  -4.9046   C.ar      1 RES1   0.0000
    79 H9A     11.8479   4.4428  -5.4113   H         1 RES1   0.0000
    80 C14A    11.1427   4.1695  -3.5210   C.ar      1 RES1   0.0000
    81 H10A    11.9078   4.5192  -3.0795   H         1 RES1   0.0000
    82 C15A    10.0712   3.7002  -2.7720   C.ar      1 RES1   0.0000
    83 H11A    10.1135   3.7218  -1.8232   H         1 RES1   0.0000
    84 C16A     8.1852   3.2530   3.7980   C.ar      1 RES1   0.0000
    85 C17A     8.3690   2.4717   4.9505   C.ar      1 RES1   0.0000
    86 H12A     7.7645   1.7623   5.1348   H         1 RES1   0.0000
    87 C18A     9.4175   2.7179   5.8239   C.ar      1 RES1   0.0000
    88 H13A     9.5214   2.1799   6.6000   H         1 RES1   0.0000
    89 C19A    10.3161   3.7451   5.5718   C.ar      1 RES1   0.0000
    90 H14A    11.0345   3.9131   6.1702   H         1 RES1   0.0000
    91 C20A    10.1526   4.5213   4.4382   C.ar      1 RES1   0.0000
    92 H15A    10.7639   5.2253   4.2562   H         1 RES1   0.0000
    93 C21A     9.0989   4.2779   3.5632   C.ar      1 RES1   0.0000
    94 H16A     9.0006   4.8212   2.7902   H         1 RES1   0.0000
    95 C22A     5.3728   7.8411  -1.1822   C.ar      1 RES1   0.0000
    96 C23A     4.9873   8.5373  -2.3310   C.ar      1 RES1   0.0000
    97 H17A     4.4000   8.1269  -2.9547   H         1 RES1   0.0000
    98 C24A     5.4547   9.8242  -2.5702   C.ar      1 RES1   0.0000
    99 H18A     5.1781  10.2928  -3.3490   H         1 RES1   0.0000
   100 C25A     6.3240  10.4238  -1.6733   C.ar      1 RES1   0.0000
   101 H19A     6.6627  11.2945  -1.8453   H         1 RES1   0.0000
   102 C26A     6.6964   9.7450  -0.5231   C.ar      1 RES1   0.0000
   103 H20A     7.2849  10.1582   0.0978   H         1 RES1   0.0000
   104 C27A     6.2167   8.4665  -0.2708   C.ar      1 RES1   0.0000
   105 H21A     6.4663   8.0170   0.5280   H         1 RES1   0.0000
   106 N1A      7.2682   3.1827  -1.5251   N.ar      1 RES1   0.0000
   107 N2A      6.8435   3.3881   1.6459   N.ar      1 RES1   0.0000
   108 N3A      5.5265   5.4391  -0.4754   N.ar      1 RES1   0.0000
   109 N4A      6.1294   2.4739  -1.2571   N.ar      1 RES1   0.0000
   110 N5A      5.6827   2.8045   1.2212   N.ar      1 RES1   0.0000
   111 N6A      4.6734   4.3692  -0.5180   N.ar      1 RES1   0.0000
   112 B1A      5.1136   2.9291  -0.1921   B         1 RES1   0.0000
   113 H22A     4.2121   2.2807  -0.2654   H         1 RES1   0.0000
@<TRIPOS>BOND
     1     1     2   ar
     2     2     3    1
     3     4     2   ar
     4     5     4    1
     5     6     7   ar
     6     7     8    1
     7     9     7   ar
     8    10     9    1
     9    11    12   ar
    10    12    13    1
    11    14    12   ar
    12    15    14    1
    13    16     1    1
    14    17    16   ar
    15    18    17    1
    16    19    17   ar
    17    20    19    1
    18    21    19   ar
    19    22    21    1
    20    23    21   ar
    21    24    23    1
    22    25    16   ar
    23    26    25    1
    24    27     6    1
    25    28    27   ar
    26    29    28    1
    27    30    28   ar
    28    31    30    1
    29    32    30   ar
    30    33    32    1
    31    34    32   ar
    32    35    34    1
    33    36    27   ar
    34    37    36    1
    35    38    11    1
    36    39    38   ar
    37    40    39    1
    38    41    39   ar
    39    42    41    1
    40    43    41   ar
    41    44    43    1
    42    45    43   ar
    43    46    45    1
    44    47    38   ar
    45    48    47    1
    46    49     1   ar
    47    50     6   ar
    48    51    11   ar
    49    52     4   ar
    50    53     9   ar
    51    54    14   ar
    52    55    49    1
    53    56    52    1
    54    57    56    1
    55    58    59   ar
    56    59    60    1
    57    61    59   ar
    58    62    61    1
    59    63    64   ar
    60    64    65    1
    61    66    64   ar
    62    67    66    1
    63    68    69   ar
    64    69    70    1
    65    71    69   ar
    66    72    71    1
    67    73    58    1
    68    74    73   ar
    69    75    74    1
    70    76    74   ar
    71    77    76    1
    72    78    76   ar
    73    79    78    1
    74    80    78   ar
    75    81    80    1
    76    82    73   ar
    77    83    82    1
    78    84    63    1
    79    85    84   ar
    80    86    85    1
    81    87    85   ar
    82    88    87    1
    83    89    87   ar
    84    90    89    1
    85    91    89   ar
    86    92    91    1
    87    93    84   ar
    88    94    93    1
    89    95    68    1
    90    96    95   ar
    91    97    96    1
    92    98    96   ar
    93    99    98    1
    94   100    98   ar
    95   101   100    1
    96   102   100   ar
    97   103   102    1
    98   104    95   ar
    99   105   104    1
   100   106    55    1
   101   107    55    1
   102   108    55    1
   103   109    61   ar
   104   110    66   ar
   105   111    71   ar
   106   112   109    1
   107   113   112    1
   108    23    25   ar
   109    34    36   ar
   110    45    47   ar
   111    49    52   ar
   112    50    53   ar
   113    50    55    1
   114    51    54   ar
   115    51    55    1
   116    53    56    1
   117    54    56    1
   118    58   106   ar
   119    63   107   ar
   120    68   108   ar
   121    80    82   ar
   122    91    93   ar
   123   102   104   ar
   124   106   109   ar
   125   107   110   ar
   126   108   111   ar
   127   110   112    1
   128   111   112    1
@<TRIPOS>SUBSTRUCTURE
     1 RES1        1 GROUP             0 ****  ****    0  
@<TRIPOS>CRYSIN
   10.5020   10.6260   12.0360   66.8390   82.0480   64.0010     2     1
