@<TRIPOS>MOLECULE
EQOWAK
   119   125     3     0     0
SMALL
USER_CHARGES
****
Generated from the CSD

@<TRIPOS>ATOM
     1 Fe1      1.9741  11.2475   4.0238   Fe        1 RES1   2.0000
     2 P1       2.6872   9.1229   4.1607   P.3       1 RES1   0.0000
     3 P2       0.3810  10.8399   5.5641   P.3       1 RES1   0.0000
     4 P3       3.5191  11.8292   5.5753   P.3       1 RES1   0.0000
     5 Si1      2.4896   9.5753   7.0235   Si        1 RES1   0.0000
     6 O1       2.7053   8.6172   5.7090   O.3       1 RES1   0.0000
     7 O2       0.9842  10.2225   6.9314   O.3       1 RES1   0.0000
     8 O3       3.5109  10.8507   6.8777   O.3       1 RES1   0.0000
     9 N1       0.6682  10.8469   2.6077   N.1       1 RES1   0.0000
    10 N2       1.4234  13.1233   3.9152   N.1       1 RES1   0.0000
    11 N3       3.1892  11.6816   2.5454   N.1       1 RES1   0.0000
    12 C1       1.6987   7.8222   3.3691   C.ar      1 RES1   0.0000
    13 C2       1.1622   6.7664   4.1119   C.ar      1 RES1   0.0000
    14 H1       1.3380   6.6988   5.0429   H         1 RES1   0.0000
    15 C3       0.3759   5.8241   3.4834   C.ar      1 RES1   0.0000
    16 H2       0.0070   5.1074   3.9882   H         1 RES1   0.0000
    17 C4       0.1170   5.9062   2.1412   C.ar      1 RES1   0.0000
    18 H3      -0.4449   5.2635   1.7267   H         1 RES1   0.0000
    19 C5       0.6736   6.9234   1.3873   C.ar      1 RES1   0.0000
    20 H4       0.5079   6.9684   0.4530   H         1 RES1   0.0000
    21 C6       1.4755   7.8782   2.0001   C.ar      1 RES1   0.0000
    22 H5       1.8699   8.5692   1.4826   H         1 RES1   0.0000
    23 C7       4.3842   8.7056   3.6410   C.ar      1 RES1   0.0000
    24 C8       5.2551   8.0681   4.5209   C.ar      1 RES1   0.0000
    25 H6       4.9735   7.8811   5.4090   H         1 RES1   0.0000
    26 C9       6.5281   7.7040   4.1126   C.ar      1 RES1   0.0000
    27 H7       7.1137   7.2639   4.7187   H         1 RES1   0.0000
    28 C10      6.9443   7.9778   2.8319   C.ar      1 RES1   0.0000
    29 H8       7.8196   7.7345   2.5574   H         1 RES1   0.0000
    30 C11      6.0960   8.6046   1.9436   C.ar      1 RES1   0.0000
    31 H9       6.3899   8.7938   1.0614   H         1 RES1   0.0000
    32 C12      4.8080   8.9598   2.3394   C.ar      1 RES1   0.0000
    33 H10      4.2185   9.3755   1.7200   H         1 RES1   0.0000
    34 C13     -0.9129   9.6037   5.1995   C.ar      1 RES1   0.0000
    35 C14     -1.8866   9.8330   4.2301   C.ar      1 RES1   0.0000
    36 H11     -1.8649  10.6334   3.7174   H         1 RES1   0.0000
    37 C15     -2.8876   8.8997   4.0099   C.ar      1 RES1   0.0000
    38 H12     -3.5369   9.0586   3.3347   H         1 RES1   0.0000
    39 C16     -2.9480   7.7480   4.7554   C.ar      1 RES1   0.0000
    40 H13     -3.6415   7.1173   4.6000   H         1 RES1   0.0000
    41 C17     -2.0057   7.5084   5.7267   C.ar      1 RES1   0.0000
    42 H14     -2.0533   6.7177   6.2498   H         1 RES1   0.0000
    43 C18     -0.9801   8.4254   5.9455   C.ar      1 RES1   0.0000
    44 H15     -0.3210   8.2476   6.6075   H         1 RES1   0.0000
    45 C19     -0.5829  12.2342   6.2123   C.ar      1 RES1   0.0000
    46 C20     -0.5579  12.5331   7.5706   C.ar      1 RES1   0.0000
    47 H16     -0.0128  12.0285   8.1620   H         1 RES1   0.0000
    48 C21     -1.3387  13.5801   8.0582   C.ar      1 RES1   0.0000
    49 H17     -1.3059  13.8019   8.9810   H         1 RES1   0.0000
    50 C22     -2.1510  14.2921   7.2202   C.ar      1 RES1   0.0000
    51 H18     -2.6921  14.9913   7.5669   H         1 RES1   0.0000
    52 C23     -2.1885  13.9963   5.8740   C.ar      1 RES1   0.0000
    53 H19     -2.7617  14.4853   5.2953   H         1 RES1   0.0000
    54 C24     -1.3898  12.9843   5.3647   C.ar      1 RES1   0.0000
    55 H20     -1.3936  12.8017   4.4328   H         1 RES1   0.0000
    56 C25      3.3164  13.4702   6.3261   C.ar      1 RES1   0.0000
    57 C26      2.5997  13.6154   7.4974   C.ar      1 RES1   0.0000
    58 H21      2.2848  12.8467   7.9580   H         1 RES1   0.0000
    59 C27      2.3375  14.8828   8.0060   C.ar      1 RES1   0.0000
    60 H22      1.8351  14.9700   8.8072   H         1 RES1   0.0000
    61 C28      2.7925  16.0012   7.3700   C.ar      1 RES1   0.0000
    62 H23      2.6023  16.8640   7.7223   H         1 RES1   0.0000
    63 C29      3.5267  15.8688   6.2150   C.ar      1 RES1   0.0000
    64 H24      3.8643  16.6418   5.7767   H         1 RES1   0.0000
    65 C30      3.7759  14.6177   5.6936   C.ar      1 RES1   0.0000
    66 H25      4.2705  14.5397   4.8858   H         1 RES1   0.0000
    67 C31      5.2776  11.7708   5.1155   C.ar      1 RES1   0.0000
    68 C32      5.7821  12.5260   4.0522   C.ar      1 RES1   0.0000
    69 H26      5.1963  13.0760   3.5453   H         1 RES1   0.0000
    70 C33      7.1342  12.4801   3.7313   C.ar      1 RES1   0.0000
    71 H27      7.4688  12.9956   3.0070   H         1 RES1   0.0000
    72 C34      7.9904  11.6833   4.4659   C.ar      1 RES1   0.0000
    73 H28      8.9150  11.6502   4.2473   H         1 RES1   0.0000
    74 C35      7.5034  10.9377   5.5109   C.ar      1 RES1   0.0000
    75 H29      8.0968  10.3922   6.0141   H         1 RES1   0.0000
    76 C36      6.1566  10.9720   5.8407   C.ar      1 RES1   0.0000
    77 H30      5.8336  10.4490   6.5640   H         1 RES1   0.0000
    78 C37      2.5752   8.5680   8.5315   C.ar      1 RES1   0.0000
    79 C38      2.1933   9.0946   9.7768   C.ar      1 RES1   0.0000
    80 H31      2.0281  10.0257   9.8652   H         1 RES1   0.0000
    81 C39      2.0551   8.2601  10.8763   C.ar      1 RES1   0.0000
    82 H32      1.8307   8.6283  11.7223   H         1 RES1   0.0000
    83 C40      2.2413   6.9114  10.7489   C.ar      1 RES1   0.0000
    84 H33      2.1158   6.3441  11.4999   H         1 RES1   0.0000
    85 C41      2.6084   6.3789   9.5495   C.ar      1 RES1   0.0000
    86 H34      2.7524   5.4432   9.4724   H         1 RES1   0.0000
    87 C42      2.7704   7.1951   8.4388   C.ar      1 RES1   0.0000
    88 H35      3.0185   6.8123   7.6053   H         1 RES1   0.0000
    89 C43     -0.0300  10.6062   1.7451   C.1       1 RES1   0.0000
    90 C44     -0.9350  10.2513   0.6566   C.3       1 RES1   0.0000
    91 H36     -0.4185   9.8839  -0.0919   H         1 RES1   0.0000
    92 H37     -1.4181  11.0496   0.3594   H         1 RES1   0.0000
    93 H38     -1.5766   9.5788   0.9711   H         1 RES1   0.0000
    94 C45      1.1881  14.2316   3.8523   C.1       1 RES1   0.0000
    95 C46      0.8863  15.6598   3.8221   C.3       1 RES1   0.0000
    96 H39      0.7274  15.9797   4.7354   H         1 RES1   0.0000
    97 H40      0.0859  15.8142   3.2778   H         1 RES1   0.0000
    98 H41      1.6443  16.1452   3.4333   H         1 RES1   0.0000
    99 C47      3.7796  11.9952   1.6232   C.1       1 RES1   0.0000
   100 C48      4.5969  12.3633   0.4715   C.3       1 RES1   0.0000
   101 H42      5.5444  12.2555   0.6953   H         1 RES1   0.0000
   102 H43      4.4210  13.2983   0.2323   H         1 RES1   0.0000
   103 H44      4.3718  11.7850  -0.2858   H         1 RES1   0.0000
   104 S1       3.6352  16.1086   1.0876   S.o2      2 RES2   0.0000
   105 O4       3.0983  14.9268   1.7096   O.3       2 RES2  -1.0000
   106 O5       2.9835  17.3336   1.4298   O.2       2 RES2   0.0000
   107 O6       3.9710  15.9438  -0.2974   O.2       2 RES2   0.0000
   108 F1       5.1509  16.4273   3.1834   F         2 RES2   0.0000
   109 F2       5.9761  15.1545   1.6904   F         2 RES2   0.0000
   110 F3       5.9437  17.2864   1.4174   F         2 RES2   0.0000
   111 C49      5.2156  16.2599   1.8784   C.3       2 RES2   0.0000
   112 S2      10.8642  13.7539   1.5946   S.o2      3 RES3   0.0000
   113 O7      12.0393  14.2992   2.1738   O.2       3 RES3   0.0000
   114 O8      10.2402  12.7202   2.3615   O.2       3 RES3   0.0000
   115 O9      10.9512  13.4955   0.1814   O.3       3 RES3  -1.0000
   116 F4       8.5454  14.7352   1.0532   F         3 RES3   0.0000
   117 F5      10.1210  16.1719   1.0938   F         3 RES3   0.0000
   118 F6       9.3320  15.4020   2.9181   F         3 RES3   0.0000
   119 C50      9.6858  15.1006   1.6787   C.3       3 RES3   0.0000
@<TRIPOS>BOND
     1     1     2    1
     2     2     6    1
     3     3     1    1
     4     4     1    1
     5     5     6    1
     6     7     3    1
     7     8     4    1
     8     9     1    1
     9    10     1    1
    10    11     1    1
    11    12     2    1
    12    13    12   ar
    13    14    13    1
    14    15    13   ar
    15    16    15    1
    16    17    15   ar
    17    18    17    1
    18    19    17   ar
    19    20    19    1
    20    21    12   ar
    21    22    21    1
    22    23     2    1
    23    24    23   ar
    24    25    24    1
    25    26    24   ar
    26    27    26    1
    27    28    26   ar
    28    29    28    1
    29    30    28   ar
    30    31    30    1
    31    32    23   ar
    32    33    32    1
    33    34     3    1
    34    35    34   ar
    35    36    35    1
    36    37    35   ar
    37    38    37    1
    38    39    37   ar
    39    40    39    1
    40    41    39   ar
    41    42    41    1
    42    43    34   ar
    43    44    43    1
    44    45     3    1
    45    46    45   ar
    46    47    46    1
    47    48    46   ar
    48    49    48    1
    49    50    48   ar
    50    51    50    1
    51    52    50   ar
    52    53    52    1
    53    54    45   ar
    54    55    54    1
    55    56     4    1
    56    57    56   ar
    57    58    57    1
    58    59    57   ar
    59    60    59    1
    60    61    59   ar
    61    62    61    1
    62    63    61   ar
    63    64    63    1
    64    65    56   ar
    65    66    65    1
    66    67     4    1
    67    68    67   ar
    68    69    68    1
    69    70    68   ar
    70    71    70    1
    71    72    70   ar
    72    73    72    1
    73    74    72   ar
    74    75    74    1
    75    76    67   ar
    76    77    76    1
    77    78     5    1
    78    79    78   ar
    79    80    79    1
    80    81    79   ar
    81    82    81    1
    82    83    81   ar
    83    84    83    1
    84    85    83   ar
    85    86    85    1
    86    87    78   ar
    87    88    87    1
    88    89     9    3
    89    90    89    1
    90    91    90    1
    91    92    90    1
    92    93    90    1
    93    94    10    3
    94    95    94    1
    95    96    95    1
    96    97    95    1
    97    98    95    1
    98    99    11    3
    99   100    99    1
   100   101   100    1
   101   102   100    1
   102   103   100    1
   103     5     7    1
   104     5     8    1
   105    19    21   ar
   106    30    32   ar
   107    41    43   ar
   108    52    54   ar
   109    63    65   ar
   110    74    76   ar
   111    85    87   ar
   112   104   105    1
   113   106   104    2
   114   107   104    2
   115   108   111    1
   116   109   111    1
   117   110   111    1
   118   111   104    1
   119   112   113    2
   120   114   112    2
   121   115   112    1
   122   116   119    1
   123   117   119    1
   124   118   119    1
   125   119   112    1
@<TRIPOS>SUBSTRUCTURE
     1 RES1        1 GROUP             0 ****  ****    0  
     2 RES2      104 GROUP             0 ****  ****    0  
     3 RES3      112 GROUP             0 ****  ****    0  
@<TRIPOS>CRYSIN
   13.2856   23.6456   17.1543   90.0000  102.9940   90.0000    14     1
