@<TRIPOS>MOLECULE
ERUXIB
   104   113     3     0     0
SMALL
USER_CHARGES
****
Generated from the CSD

@<TRIPOS>ATOM
     1 C1       6.7414   7.6946   5.4904   C.1       1 RES1   0.0000
     2 C2       7.7043   8.7504   5.2231   C.3       1 RES1   0.0000
     3 H1       7.5469   9.1125   4.3474   H         1 RES1   0.0000
     4 H2       8.5935   8.3908   5.2647   H         1 RES1   0.0000
     5 H3       7.6085   9.4449   5.8781   H         1 RES1   0.0000
     6 N1       5.9832   6.8756   5.6932   N.1       1 RES1   0.0000
     7 C3       2.3145   6.6576   0.2820   C.ar      2 RES2   0.0000
     8 C4       2.0026   7.2913   1.5064   C.ar      2 RES2   0.0000
     9 H4       2.2988   6.9095   2.3010   H         2 RES2   0.0000
    10 C5       1.2570   8.4823   1.5571   C.ar      2 RES2   0.0000
    11 H5       1.0565   8.8710   2.3778   H         2 RES2   0.0000
    12 C6       0.8217   9.0760   0.3855   C.ar      2 RES2   0.0000
    13 H6       0.3168   9.8562   0.4200   H         2 RES2   0.0000
    14 C7       1.1393   8.5066  -0.8446   C.ar      2 RES2   0.0000
    15 H7       0.8550   8.9101  -1.6328   H         2 RES2   0.0000
    16 C8       1.8933   7.3161  -0.8910   C.ar      2 RES2   0.0000
    17 H8       2.1188   6.9555  -1.7180   H         2 RES2   0.0000
    18 C9       5.2885   7.0884   0.2503   C.2       2 RES2   0.0000
    19 H9       4.7927   7.8751   0.2500   H         2 RES2   0.0000
    20 C10      6.6444   6.9964   0.2519   C.2       2 RES2   0.0000
    21 H10      7.2482   7.7038   0.2542   H         2 RES2   0.0000
    22 C11      5.8002   4.9074   0.2432   C.3       2 RES2   0.0000
    23 C12      8.3473   5.1558   0.2499   C.3       2 RES2   0.0000
    24 H11      8.3499   4.1960   0.2306   H         2 RES2   0.0000
    25 H12      8.7929   5.4610   1.0436   H         2 RES2   0.0000
    26 H13      8.8049   5.4928  -0.5237   H         2 RES2   0.0000
    27 C13      3.9897   3.3312   1.6201   C.3       2 RES2   0.0000
    28 C14      2.3844   3.1763   3.1992   C.2       2 RES2   0.0000
    29 H14      1.8847   2.8685   3.9208   H         2 RES2   0.0000
    30 C15      2.1018   4.2590   2.4218   C.2       2 RES2   0.0000
    31 H15      1.3688   4.8242   2.5120   H         2 RES2   0.0000
    32 C16      4.2027   1.4528   3.3412   C.3       2 RES2   0.0000
    33 H16      3.8562   0.6467   2.9516   H         2 RES2   0.0000
    34 H17      4.0197   1.4570   4.2837   H         2 RES2   0.0000
    35 H18      5.1513   1.4946   3.1993   H         2 RES2   0.0000
    36 C17      3.9821   3.3452  -1.1506   C.3       2 RES2   0.0000
    37 C18      2.1108   4.2971  -1.9490   C.2       2 RES2   0.0000
    38 H19      1.3834   4.8699  -2.0365   H         2 RES2   0.0000
    39 C19      2.3844   3.2163  -2.7338   C.2       2 RES2   0.0000
    40 H20      1.8865   2.9201  -3.4612   H         2 RES2   0.0000
    41 C20      4.1807   1.4581  -2.8565   C.3       2 RES2   0.0000
    42 H21      5.0990   1.4041  -2.5822   H         2 RES2   0.0000
    43 H22      4.1361   1.5347  -3.8124   H         2 RES2   0.0000
    44 H23      3.7161   0.6657  -2.5770   H         2 RES2   0.0000
    45 B1       3.2632   5.3507   0.2465   B         2 RES2   0.0000
    46 N2       4.7763   5.7999   0.2492   N.pl3     2 RES2   0.0000
    47 N3       6.9546   5.6439   0.2494   N.pl3     2 RES2   0.0000
    48 N4       3.5598   2.6189   2.7108   N.pl3     2 RES2   0.0000
    49 N5       3.1100   4.3648   1.4681   N.pl3     2 RES2   0.0000
    50 N6       3.1125   4.3866  -0.9982   N.pl3     2 RES2   0.0000
    51 N7       3.5512   2.6411  -2.2384   N.pl3     2 RES2   0.0000
    52 Fe1      5.3891   2.9590   0.2325   Fe        2 RES2   2.0000
    53 C3A      8.4637  -0.7395   0.2820   C.ar      2 RES2   0.0000
    54 C4A      8.7757  -1.3732   1.5064   C.ar      2 RES2   0.0000
    55 H4A      8.4795  -0.9915   2.3010   H         2 RES2   0.0000
    56 C5A      9.5213  -2.5643   1.5571   C.ar      2 RES2   0.0000
    57 H5A      9.7217  -2.9529   2.3778   H         2 RES2   0.0000
    58 C6A      9.9565  -3.1580   0.3855   C.ar      2 RES2   0.0000
    59 H6A     10.4615  -3.9381   0.4200   H         2 RES2   0.0000
    60 C7A      9.6390  -2.5886  -0.8446   C.ar      2 RES2   0.0000
    61 H7A      9.9233  -2.9920  -1.6328   H         2 RES2   0.0000
    62 C8A      8.8849  -1.3981  -0.8910   C.ar      2 RES2   0.0000
    63 H8A      8.6595  -1.0374  -1.7180   H         2 RES2   0.0000
    64 C9A      5.4898  -1.1704   0.2503   C.2       2 RES2   0.0000
    65 H9A      5.9856  -1.9571   0.2500   H         2 RES2   0.0000
    66 C10A     4.1339  -1.0784   0.2519   C.2       2 RES2   0.0000
    67 H10A     3.5301  -1.7857   0.2542   H         2 RES2   0.0000
    68 C11A     4.9780   1.0107   0.2432   C.3       2 RES2   0.0000
    69 C12A     2.4309   0.7622   0.2499   C.3       2 RES2   0.0000
    70 H11A     2.4284   1.7221   0.2306   H         2 RES2   0.0000
    71 H12A     1.9853   0.4571   1.0436   H         2 RES2   0.0000
    72 H13A     1.9733   0.4253  -0.5237   H         2 RES2   0.0000
    73 C13A     6.7886   2.5869   1.6201   C.3       2 RES2   0.0000
    74 C14A     8.3939   2.7417   3.1992   C.2       2 RES2   0.0000
    75 H14A     8.8935   3.0495   3.9208   H         2 RES2   0.0000
    76 C15A     8.6765   1.6591   2.4218   C.2       2 RES2   0.0000
    77 H15A     9.4095   1.0938   2.5120   H         2 RES2   0.0000
    78 C16A     6.5756   4.4653   3.3412   C.3       2 RES2   0.0000
    79 H16A     6.9221   5.2713   2.9516   H         2 RES2   0.0000
    80 H17A     6.7585   4.4610   4.2837   H         2 RES2   0.0000
    81 H18A     5.6270   4.4234   3.1993   H         2 RES2   0.0000
    82 C17A     6.7961   2.5728  -1.1506   C.3       2 RES2   0.0000
    83 C18A     8.6674   1.6210  -1.9490   C.2       2 RES2   0.0000
    84 H19A     9.3948   1.0481  -2.0365   H         2 RES2   0.0000
    85 C19A     8.3939   2.7017  -2.7338   C.2       2 RES2   0.0000
    86 H20A     8.8918   2.9980  -3.4612   H         2 RES2   0.0000
    87 C20A     6.5976   4.4600  -2.8565   C.3       2 RES2   0.0000
    88 H21A     5.6793   4.5139  -2.5822   H         2 RES2   0.0000
    89 H22A     6.6422   4.3834  -3.8124   H         2 RES2   0.0000
    90 H23A     7.0621   5.2523  -2.5770   H         2 RES2   0.0000
    91 B1A      7.5150   0.5673   0.2465   B         2 RES2   0.0000
    92 N2A      6.0020   0.1181   0.2492   N.pl3     2 RES2   0.0000
    93 N3A      3.8237   0.2741   0.2494   N.pl3     2 RES2   0.0000
    94 N4A      7.2184   3.2992   2.7108   N.pl3     2 RES2   0.0000
    95 N5A      7.6683   1.5533   1.4681   N.pl3     2 RES2   0.0000
    96 N6A      7.6657   1.5315  -0.9982   N.pl3     2 RES2   0.0000
    97 N7A      7.2270   3.2769  -2.2384   N.pl3     2 RES2   0.0000
    98 F1      12.4834   5.8769   4.4969   F         3 RES3   0.0000
    99 F2       9.3730   5.9049   3.7101   F         3 RES3   0.0000
   100 P1      10.9283   5.8866   4.0990   P.3       3 RES3  -1.0000
   101 F3      10.5523   5.6316   5.6185   F         3 RES3   0.0000
   102 F4      11.3269   6.1879   2.5767   F         3 RES3   0.0000
   103 F5      10.9970   4.3229   3.8088   F         3 RES3   0.0000
   104 F6      10.8761   7.4622   4.3849   F         3 RES3   0.0000
@<TRIPOS>BOND
     1     1     2    1
     2     2     3    1
     3     4     2    1
     4     5     2    1
     5     6     1    3
     6     7     8   ar
     7     8     9    1
     8    10     8   ar
     9    11    10    1
    10    12    10   ar
    11    13    12    1
    12    14    12   ar
    13    15    14    1
    14    16     7   ar
    15    17    16    1
    16    18    19    1
    17    20    18    2
    18    21    20    1
    19    22    46    1
    20    23    24    1
    21    25    23    1
    22    26    23    1
    23    27    48    1
    24    28    29    1
    25    30    28    2
    26    31    30    1
    27    32    33    1
    28    34    32    1
    29    35    32    1
    30    36    50    1
    31    37    38    1
    32    39    37    2
    33    40    39    1
    34    41    42    1
    35    43    41    1
    36    44    41    1
    37    45     7    1
    38    46    18    1
    39    47    20    1
    40    48    28    1
    41    49    27    1
    42    50    37    1
    43    51    36    1
    44    52    22    1
    45    53    54   ar
    46    54    55    1
    47    56    54   ar
    48    57    56    1
    49    58    56   ar
    50    59    58    1
    51    60    58   ar
    52    61    60    1
    53    62    53   ar
    54    63    62    1
    55    64    65    1
    56    66    64    2
    57    67    66    1
    58    68    52    1
    59    69    70    1
    60    71    69    1
    61    72    69    1
    62    73    52    1
    63    74    75    1
    64    76    74    2
    65    77    76    1
    66    78    79    1
    67    80    78    1
    68    81    78    1
    69    82    52    1
    70    83    84    1
    71    85    83    2
    72    86    85    1
    73    87    88    1
    74    89    87    1
    75    90    87    1
    76    91    53    1
    77    92    64    1
    78    93    66    1
    79    94    73    1
    80    95    73    1
    81    96    82    1
    82    97    82    1
    83    14    16   ar
    84    22    47    1
    85    23    47    1
    86    27    52    1
    87    30    49    1
    88    32    48    1
    89    36    52    1
    90    39    51    1
    91    41    51    1
    92    45    46    1
    93    45    49    1
    94    45    50    1
    95    60    62   ar
    96    68    92    1
    97    68    93    1
    98    69    93    1
    99    74    94    1
   100    76    95    1
   101    78    94    1
   102    83    96    1
   103    85    97    1
   104    87    97    1
   105    91    92    1
   106    91    95    1
   107    91    96    1
   108    98   100    1
   109    99   100    1
   110   100   101    1
   111   102   100    1
   112   103   100    1
   113   104   100    1
@<TRIPOS>SUBSTRUCTURE
     1 RES1        1 GROUP             0 ****  ****    0  
     2 RES2        7 GROUP             0 ****  ****    0  
     3 RES3       98 GROUP             0 ****  ****    0  
@<TRIPOS>CRYSIN
   21.5565   11.8361   19.3448   90.0000   90.0000   90.0000    56     1
