@<TRIPOS>MOLECULE
ESAMEQ
   138   137     5     0     0
SMALL
USER_CHARGES
****
Generated from the CSD

@<TRIPOS>ATOM
     1 Fe1      4.2516   3.2485   8.4719   Fe        1 RES1   0.0000
     2 Cl1      2.3567   7.2519   3.3030   Cl        1 RES1   0.0000
     3 Cl2      5.3880   8.1104   3.8512   Cl        1 RES1   0.0000
     4 S1       2.5727   1.9157   9.1717   S.o       1 RES1   0.0000
     5 S2       6.1949   2.5526   9.3655   S.o       1 RES1   0.0000
     6 O1       0.6685   4.0889   6.6259   O.2       1 RES1   0.0000
     7 O2       2.4325   1.6544  10.6081   O.2       1 RES1   0.0000
     8 O3       2.3892   0.6997   8.3596   O.3       1 RES1  -1.0000
     9 O4       7.3547   5.8296   7.6177   O.2       1 RES1   0.0000
    10 O5       6.2187   2.1667  10.7871   O.2       1 RES1   0.0000
    11 O6       6.9386   1.6141   8.5115   O.2       1 RES1   0.0000
    12 N1       2.8447   4.1033   7.4084   N.am      1 RES1  -1.0000
    13 N2       5.3954   4.6178   7.6654   N.am      1 RES1  -1.0000
    14 C1       3.9540   4.2715  10.1231   C.1       1 RES1   0.0000
    15 C2       4.5538   2.0395   6.9543   C.1       1 RES1   0.0000
    16 C3       3.3723   4.9897   6.4518   C.ar      1 RES1   0.0000
    17 C4       2.6584   5.5961   5.4092   C.ar      1 RES1   0.0000
    18 H1       1.6807   5.4290   5.2892   H         1 RES1   0.0000
    19 C5       3.2896   6.5256   4.5819   C.ar      1 RES1   0.0000
    20 C6       4.6035   6.8676   4.7844   C.ar      1 RES1   0.0000
    21 C7       5.3476   6.2457   5.7834   C.ar      1 RES1   0.0000
    22 H2       6.2953   6.5345   5.8739   H         1 RES1   0.0000
    23 C8       4.7525   5.2962   6.6174   C.ar      1 RES1   0.0000
    24 C9       1.5274   3.7647   7.4532   C.2       1 RES1   0.0000
    25 C10      1.1196   2.9812   8.6977   C.3       1 RES1   0.0000
    26 C11      0.7843   3.9893   9.8082   C.3       1 RES1   0.0000
    27 H3       0.0352   4.5293   9.5456   H         1 RES1   0.0000
    28 H4       1.5482   4.5526   9.9600   H         1 RES1   0.0000
    29 H5       0.5719   3.5157  10.6142   H         1 RES1   0.0000
    30 C12     -0.0898   2.0870   8.4394   C.3       1 RES1   0.0000
    31 H6      -0.8400   2.6193   8.1231   H         1 RES1   0.0000
    32 H7       0.0971   1.2361   7.8699   H         1 RES1   0.0000
    33 H8      -0.3914   1.6798   9.3261   H         1 RES1   0.0000
    34 C13      6.6402   4.9199   8.0673   C.2       1 RES1   0.0000
    35 C14      7.1899   4.1033   9.2378   C.3       1 RES1   0.0000
    36 C15      7.0786   4.9454  10.5078   C.3       1 RES1   0.0000
    37 H9       7.3930   4.4707  11.3199   H         1 RES1   0.0000
    38 H10      7.8549   5.7919  10.5179   H         1 RES1   0.0000
    39 H11      6.1486   5.1324  10.6209   H         1 RES1   0.0000
    40 C16      8.6558   3.7414   9.0032   C.3       1 RES1   0.0000
    41 H12      8.7757   3.3419   8.1051   H         1 RES1   0.0000
    42 H13      8.9862   3.2501   9.7405   H         1 RES1   0.0000
    43 H14      9.1920   4.6234   9.0371   H         1 RES1   0.0000
    44 N7       3.7972   4.9587  11.0302   N.1       1 RES1   0.0000
    45 N8       4.6927   1.4496   5.9733   N.1       1 RES1   0.0000
    46 N3       1.2058   1.1597   3.6966   N.4       2 RES2   1.0000
    47 C17      1.7667   2.5695   3.6023   C.3       2 RES2   0.0000
    48 H15      1.4426   3.2346   4.2251   H         2 RES2   0.0000
    49 H16      2.7793   2.5031   3.8509   H         2 RES2   0.0000
    50 C18      1.5339   3.2744   2.2985   C.3       2 RES2   0.0000
    51 H17      1.9212   4.1520   2.3298   H         2 RES2   0.0000
    52 H18      0.5883   3.3486   2.1461   H         2 RES2   0.0000
    53 H19      1.9340   2.7731   1.5838   H         2 RES2   0.0000
    54 C19      1.5874   0.6850   5.0943   C.3       2 RES2   0.0000
    55 H20      2.6846   0.8067   5.1839   H         2 RES2   0.0000
    56 H21      1.1646   1.3611   5.6678   H         2 RES2   0.0000
    57 C20      1.1692  -0.7171   5.4370   C.3       2 RES2   0.0000
    58 H22      1.4560  -0.9240   6.3309   H         2 RES2   0.0000
    59 H23      1.5682  -1.3357   4.8210   H         2 RES2   0.0000
    60 H24      0.2126  -0.7846   5.3833   H         2 RES2   0.0000
    61 C21      1.7797   0.2601   2.6240   C.3       2 RES2   0.0000
    62 H25      1.4180  -0.6230   2.7174   H         2 RES2   0.0000
    63 H26      1.5470   0.6108   1.7608   H         2 RES2   0.0000
    64 C22      3.2759   0.1295   2.6367   C.3       2 RES2   0.0000
    65 H27      3.5667  -0.4493   1.9288   H         2 RES2   0.0000
    66 H28      3.5449  -0.2379   3.4835   H         2 RES2   0.0000
    67 H29      3.6742   0.9970   2.5247   H         2 RES2   0.0000
    68 C23     -0.2958   1.1365   3.5107   C.3       2 RES2   0.0000
    69 H30     -0.5263   0.1815   3.6448   H         2 RES2   0.0000
    70 H31     -0.3725   1.4364   2.5023   H         2 RES2   0.0000
    71 C24     -1.0764   2.0373   4.4155   C.3       2 RES2   0.0000
    72 H32     -2.0151   1.9520   4.2273   H         2 RES2   0.0000
    73 H33     -0.8050   2.9480   4.2766   H         2 RES2   0.0000
    74 H34     -0.9081   1.7872   5.3250   H         2 RES2   0.0000
    75 N4       7.4269   2.9093   3.5266   N.4       3 RES3   1.0000
    76 C25      5.9854   3.3962   3.4726   C.3       3 RES3   0.0000
    77 H35      5.4401   2.6071   3.9831   H         3 RES3   0.0000
    78 H36      6.0213   4.1232   4.0817   H         3 RES3   0.0000
    79 C26      5.4526   3.6750   2.0906   C.3       3 RES3   0.0000
    80 H37      4.5434   3.9793   2.1484   H         3 RES3   0.0000
    81 H38      5.4872   2.8683   1.5726   H         3 RES3   0.0000
    82 H39      5.9884   4.3500   1.6690   H         3 RES3   0.0000
    83 C27      8.3671   3.8853   2.8552   C.3       3 RES3   0.0000
    84 H40      7.9976   3.9417   1.8706   H         3 RES3   0.0000
    85 H41      9.2244   3.5212   2.9885   H         3 RES3   0.0000
    86 C28      8.3396   5.2851   3.4074   C.3       3 RES3   0.0000
    87 H42      8.9580   5.8384   2.9235   H         3 RES3   0.0000
    88 H43      8.5858   5.2630   4.3348   H         3 RES3   0.0000
    89 H44      7.4537   5.6448   3.3200   H         3 RES3   0.0000
    90 C29      7.7471   2.7377   5.0112   C.3       3 RES3   0.0000
    91 H45      7.1391   2.1081   5.4012   H         3 RES3   0.0000
    92 H46      7.5559   3.6308   5.4527   H         3 RES3   0.0000
    93 C30      9.1673   2.3073   5.2932   C.3       3 RES3   0.0000
    94 H47      9.2900   2.2232   6.2435   H         3 RES3   0.0000
    95 H48      9.7772   2.9624   4.9487   H         3 RES3   0.0000
    96 H49      9.3336   1.4607   4.8725   H         3 RES3   0.0000
    97 C31      7.5705   1.5968   2.7673   C.3       3 RES3   0.0000
    98 H50      7.3435   1.8060   1.8370   H         3 RES3   0.0000
    99 H51      8.5080   1.6311   2.8048   H         3 RES3   0.0000
   100 C32      6.8772   0.4094   3.3671   C.3       3 RES3   0.0000
   101 H52      7.0187  -0.3641   2.8160   H         3 RES3   0.0000
   102 H53      5.9350   0.5876   3.4320   H         3 RES3   0.0000
   103 H54      7.2324   0.2479   4.2452   H         3 RES3   0.0000
   104 N5       5.1293   9.0996   9.4723   N.4       4 RES4   1.0000
   105 C33      5.2462  10.0391   8.2817   C.3       4 RES4   0.0000
   106 H55      4.1732  10.1331   8.0043   H         4 RES4   0.0000
   107 H56      5.6040  10.8347   8.6898   H         4 RES4   0.0000
   108 C34      6.1464   9.5776   7.1761   C.3       4 RES4   0.0000
   109 H57      6.1496  10.2305   6.4720   H         4 RES4   0.0000
   110 H58      5.8309   8.7388   6.8304   H         4 RES4   0.0000
   111 H59      7.0366   9.4692   7.5182   H         4 RES4   0.0000
   112 C35      6.4937   8.7399  10.0393   C.3       4 RES4   0.0000
   113 H60      6.3096   8.1401  10.8449   H         4 RES4   0.0000
   114 H61      7.0278   8.3725   9.3081   H         4 RES4   0.0000
   115 C36      7.3174   9.9074  10.5409   C.3       4 RES4   0.0000
   116 H62      8.1558   9.5843  10.8830   H         4 RES4   0.0000
   117 H63      6.8415  10.3622  11.2392   H         4 RES4   0.0000
   118 H64      7.4822  10.5149   9.8167   H         4 RES4   0.0000
   119 C37      4.2875   9.8443  10.4934   C.3       4 RES4   0.0000
   120 H65      3.4840  10.1752   9.9130   H         4 RES4   0.0000
   121 H66      4.7782  10.7030  10.6747   H         4 RES4   0.0000
   122 C38      4.0150   9.0974  11.7645   C.3       4 RES4   0.0000
   123 H67      3.4809   9.6341  12.3548   H         4 RES4   0.0000
   124 H68      4.8472   8.8816  12.1958   H         4 RES4   0.0000
   125 H69      3.5449   8.2873  11.5551   H         4 RES4   0.0000
   126 C39      4.4807   7.7927   9.0808   C.3       4 RES4   0.0000
   127 H70      5.1393   7.4629   8.4098   H         4 RES4   0.0000
   128 H71      4.3220   7.2372   9.9824   H         4 RES4   0.0000
   129 C40      3.1008   7.9089   8.4748   C.3       4 RES4   0.0000
   130 H72      2.7662   7.0358   8.2575   H         4 RES4   0.0000
   131 H73      3.1545   8.4400   7.6773   H         4 RES4   0.0000
   132 H74      2.5115   8.3316   9.1020   H         4 RES4   0.0000
   133 N6      -0.0303   7.6964  11.2325   N.1       5 RES5   0.0000
   134 C41      0.1595   8.7764  11.0734   C.1       5 RES5   0.0000
   135 C42      0.3921  10.1663  10.8494   C.3       5 RES5   0.0000
   136 H75     -0.2223  10.6798  11.3781   H         5 RES5   0.0000
   137 H76      0.2605  10.3699   9.9197   H         5 RES5   0.0000
   138 H77      1.2924  10.3854  11.1003   H         5 RES5   0.0000
@<TRIPOS>BOND
     1     1     4    1
     2     2    19    1
     3     3    20    1
     4     4     7    2
     5     5     1    1
     6     6    24    2
     7     8     4    1
     8     9    34    2
     9    10     5    2
    10    11     5    2
    11    12     1    1
    12    13     1    1
    13    14     1    1
    14    15     1    1
    15    16    12    1
    16    17    16   ar
    17    18    17    1
    18    19    17   ar
    19    20    19   ar
    20    21    20   ar
    21    22    21    1
    22    23    13    1
    23    24    12   am
    24    25     4    1
    25    26    25    1
    26    27    26    1
    27    28    26    1
    28    29    26    1
    29    30    25    1
    30    31    30    1
    31    32    30    1
    32    33    30    1
    33    34    13   am
    34    35     5    1
    35    36    35    1
    36    37    36    1
    37    38    36    1
    38    39    36    1
    39    40    35    1
    40    41    40    1
    41    42    40    1
    42    43    40    1
    43    44    14    3
    44    45    15    3
    45    16    23   ar
    46    21    23   ar
    47    24    25    1
    48    34    35    1
    49    46    47    1
    50    47    48    1
    51    49    47    1
    52    50    47    1
    53    51    50    1
    54    52    50    1
    55    53    50    1
    56    54    46    1
    57    55    54    1
    58    56    54    1
    59    57    54    1
    60    58    57    1
    61    59    57    1
    62    60    57    1
    63    61    46    1
    64    62    61    1
    65    63    61    1
    66    64    61    1
    67    65    64    1
    68    66    64    1
    69    67    64    1
    70    68    46    1
    71    69    68    1
    72    70    68    1
    73    71    68    1
    74    72    71    1
    75    73    71    1
    76    74    71    1
    77    75    76    1
    78    76    77    1
    79    78    76    1
    80    79    76    1
    81    80    79    1
    82    81    79    1
    83    82    79    1
    84    83    75    1
    85    84    83    1
    86    85    83    1
    87    86    83    1
    88    87    86    1
    89    88    86    1
    90    89    86    1
    91    90    75    1
    92    91    90    1
    93    92    90    1
    94    93    90    1
    95    94    93    1
    96    95    93    1
    97    96    93    1
    98    97    75    1
    99    98    97    1
   100    99    97    1
   101   100    97    1
   102   101   100    1
   103   102   100    1
   104   103   100    1
   105   104   105    1
   106   105   106    1
   107   107   105    1
   108   108   105    1
   109   109   108    1
   110   110   108    1
   111   111   108    1
   112   112   104    1
   113   113   112    1
   114   114   112    1
   115   115   112    1
   116   116   115    1
   117   117   115    1
   118   118   115    1
   119   119   104    1
   120   120   119    1
   121   121   119    1
   122   122   119    1
   123   123   122    1
   124   124   122    1
   125   125   122    1
   126   126   104    1
   127   127   126    1
   128   128   126    1
   129   129   126    1
   130   130   129    1
   131   131   129    1
   132   132   129    1
   133   133   134    3
   134   134   135    1
   135   135   136    1
   136   137   135    1
   137   138   135    1
@<TRIPOS>SUBSTRUCTURE
     1 RES1        1 GROUP             0 ****  ****    0  
     2 RES2       46 GROUP             0 ****  ****    0  
     3 RES3       75 GROUP             0 ****  ****    0  
     4 RES4      104 GROUP             0 ****  ****    0  
     5 RES5      133 GROUP             0 ****  ****    0  
@<TRIPOS>CRYSIN
   20.0780   11.0660   22.5990   90.0000   97.5660   90.0000    14     1
