@<TRIPOS>MOLECULE
EURFEC
   122   120     2     0     0
SMALL
USER_CHARGES
****
Generated from the CSD

@<TRIPOS>ATOM
     1 Fe1      0.0000   0.0000   0.0000   Fe        1 RES1   2.0000
     2 O1       0.7123   0.6073   1.8859   O.2       1 RES1   0.0000
     3 O2       1.0111  -1.8194   0.3150   O.2       1 RES1   0.0000
     4 O3       1.7063   0.8820  -0.8578   O.2       1 RES1   0.0000
     5 N1       2.2118   1.7568   3.0859   N.am      1 RES1   0.0000
     6 N2       0.7440   2.8563   1.7436   N.am      1 RES1   0.0000
     7 N3       2.3434  -3.0606   1.6251   N.am      1 RES1   0.0000
     8 N4       3.1541  -1.2544   0.4946   N.am      1 RES1   0.0000
     9 N5       1.0986   1.3662  -2.9800   N.am      1 RES1   0.0000
    10 N6       2.7572   2.5911  -1.9884   N.am      1 RES1   0.0000
    11 C1       1.2100   1.6916   2.1891   C.2       1 RES1   0.0000
    12 C2       2.8491   0.5513   3.6372   C.3       1 RES1   0.0000
    13 C3       3.1736   0.6471   4.9709   C.3       1 RES1   0.0000
    14 C4       1.1554   4.1778   2.1628   C.3       1 RES1   0.0000
    15 C5       0.3973   5.2556   1.3914   C.3       1 RES1   0.0000
    16 C6       2.1600  -2.0269   0.7876   C.2       1 RES1   0.0000
    17 C7       1.2438  -3.8901   2.0866   C.3       1 RES1   0.0000
    18 C8       1.6862  -5.3388   2.0688   C.3       1 RES1   0.0000
    19 C9       4.5095  -1.4070   0.8943   C.3       1 RES1   0.0000
    20 C10      5.4278  -1.3789   0.0322   C.3       1 RES1   0.0000
    21 C11      1.4220   1.6033  -1.8910   C.2       1 RES1   0.0000
    22 C12      1.3084   2.0411  -4.2799   C.3       1 RES1   0.0000
    23 C13      0.4003   1.5237  -5.2614   C.3       1 RES1   0.0000
    24 C14      3.4826   2.9077  -0.7715   C.3       1 RES1   0.0000
    25 C15      4.6896   3.2186  -1.0729   C.3       1 RES1   0.0000
    26 H1       2.3290   2.5768   3.5491   H         1 RES1   0.0000
    27 H2       3.8950   0.4473   3.0401   H         1 RES1   0.0000
    28 H3       2.3489  -0.3543   3.3408   H         1 RES1   0.0000
    29 H4       3.6765  -0.2551   5.3867   H         1 RES1   0.0000
    30 H5       2.1974   0.6974   5.5468   H         1 RES1   0.0000
    31 H6       3.7443   1.5001   5.2461   H         1 RES1   0.0000
    32 H7       0.0772   2.9650   1.1847   H         1 RES1   0.0000
    33 H8       1.0666   4.2940   3.2375   H         1 RES1   0.0000
    34 H9       2.2516   4.3030   1.9122   H         1 RES1   0.0000
    35 H10      0.6732   6.2452   1.6784   H         1 RES1   0.0000
    36 H11     -0.6961   5.1346   1.6683   H         1 RES1   0.0000
    37 H12      0.4762   5.1263   0.3320   H         1 RES1   0.0000
    38 H13      3.0984  -3.1203   2.1950   H         1 RES1   0.0000
    39 H14      1.9174  -6.3412   2.0476   H         1 RES1   0.0000
    40 H15      2.4766  -5.4587   2.7344   H         1 RES1   0.0000
    41 H16      1.9676  -5.5771   1.0492   H         1 RES1   0.0000
    42 H17      3.0507  -0.4772   0.1660   H         1 RES1   0.0000
    43 H18      4.7238  -0.6302   1.6505   H         1 RES1   0.0000
    44 H19      4.5833  -2.3648   1.3897   H         1 RES1   0.0000
    45 H20      6.4234  -1.4881   0.4844   H         1 RES1   0.0000
    46 H21      5.3090  -2.1031  -0.7266   H         1 RES1   0.0000
    47 H22      5.4495  -0.3684  -0.4658   H         1 RES1   0.0000
    48 H23      0.3869   0.6020  -2.9588   H         1 RES1   0.0000
    49 H24      2.3359   1.9059  -4.6009   H         1 RES1   0.0000
    50 H25      1.1229   3.1113  -4.1554   H         1 RES1   0.0000
    51 H26      0.5744   2.0218  -6.2353   H         1 RES1   0.0000
    52 H27      0.5923   0.4608  -5.4130   H         1 RES1   0.0000
    53 H28     -0.6207   1.6662  -4.9675   H         1 RES1   0.0000
    54 H29      2.0726   3.0094  -2.7336   H         1 RES1   0.0000
    55 H30      3.5411   4.0675  -0.5521   H         1 RES1   0.0000
    56 H31      3.9449   2.4754   0.1863   H         1 RES1   0.0000
    57 H32      5.4528   3.3930  -0.2625   H         1 RES1   0.0000
    58 H33      5.5453   3.0822  -2.0036   H         1 RES1   0.0000
    59 H34      4.5449   4.4017  -1.3863   H         1 RES1   0.0000
    60 O1A     -0.7123  -0.6073  -1.8859   O.2       1 RES1   0.0000
    61 O2A     -1.0111   1.8194  -0.3150   O.2       1 RES1   0.0000
    62 O3A     -1.7063  -0.8820   0.8578   O.2       1 RES1   0.0000
    63 C1A     -1.2100  -1.6916  -2.1891   C.2       1 RES1   0.0000
    64 C6A     -2.1600   2.0269  -0.7876   C.2       1 RES1   0.0000
    65 C11A    -1.4220  -1.6033   1.8910   C.2       1 RES1   0.0000
    66 N1A     -2.2118  -1.7568  -3.0859   N.am      1 RES1   0.0000
    67 N2A     -0.7440  -2.8563  -1.7436   N.am      1 RES1   0.0000
    68 N3A     -2.3434   3.0606  -1.6251   N.am      1 RES1   0.0000
    69 N4A     -3.1541   1.2544  -0.4946   N.am      1 RES1   0.0000
    70 N5A     -1.0986  -1.3662   2.9800   N.am      1 RES1   0.0000
    71 N6A     -2.7572  -2.5911   1.9884   N.am      1 RES1   0.0000
    72 C2A     -2.8491  -0.5513  -3.6372   C.3       1 RES1   0.0000
    73 H1A     -2.3290  -2.5768  -3.5491   H         1 RES1   0.0000
    74 C4A     -1.1554  -4.1778  -2.1628   C.3       1 RES1   0.0000
    75 H7A     -0.0772  -2.9650  -1.1847   H         1 RES1   0.0000
    76 C7A     -1.2438   3.8901  -2.0866   C.3       1 RES1   0.0000
    77 H13A    -3.0984   3.1203  -2.1950   H         1 RES1   0.0000
    78 C9A     -4.5095   1.4070  -0.8943   C.3       1 RES1   0.0000
    79 H17A    -3.0507   0.4772  -0.1660   H         1 RES1   0.0000
    80 C12A    -1.3084  -2.0411   4.2799   C.3       1 RES1   0.0000
    81 H23A    -0.3869  -0.6020   2.9588   H         1 RES1   0.0000
    82 C14A    -3.4826  -2.9077   0.7715   C.3       1 RES1   0.0000
    83 H29A    -2.0726  -3.0094   2.7336   H         1 RES1   0.0000
    84 C3A     -3.1736  -0.6471  -4.9709   C.3       1 RES1   0.0000
    85 H2A     -3.8950  -0.4473  -3.0401   H         1 RES1   0.0000
    86 H3A     -2.3489   0.3543  -3.3408   H         1 RES1   0.0000
    87 C5A     -0.3973  -5.2556  -1.3914   C.3       1 RES1   0.0000
    88 H8A     -1.0666  -4.2940  -3.2375   H         1 RES1   0.0000
    89 H9A     -2.2516  -4.3030  -1.9122   H         1 RES1   0.0000
    90 C8A     -1.6862   5.3388  -2.0688   C.3       1 RES1   0.0000
    91 C10A    -5.4278   1.3789  -0.0322   C.3       1 RES1   0.0000
    92 H18A    -4.7238   0.6302  -1.6505   H         1 RES1   0.0000
    93 H19A    -4.5833   2.3648  -1.3897   H         1 RES1   0.0000
    94 C13A    -0.4003  -1.5237   5.2614   C.3       1 RES1   0.0000
    95 H24A    -2.3359  -1.9059   4.6009   H         1 RES1   0.0000
    96 H25A    -1.1229  -3.1113   4.1554   H         1 RES1   0.0000
    97 C15A    -4.6896  -3.2186   1.0729   C.3       1 RES1   0.0000
    98 H30A    -3.5411  -4.0675   0.5521   H         1 RES1   0.0000
    99 H31A    -3.9449  -2.4754  -0.1863   H         1 RES1   0.0000
   100 H4A     -3.6765   0.2551  -5.3867   H         1 RES1   0.0000
   101 H5A     -2.1974  -0.6974  -5.5468   H         1 RES1   0.0000
   102 H6A     -3.7443  -1.5001  -5.2461   H         1 RES1   0.0000
   103 H10A    -0.6732  -6.2452  -1.6784   H         1 RES1   0.0000
   104 H11A     0.6961  -5.1346  -1.6683   H         1 RES1   0.0000
   105 H12A    -0.4762  -5.1263  -0.3320   H         1 RES1   0.0000
   106 H14A    -1.9174   6.3412  -2.0476   H         1 RES1   0.0000
   107 H15A    -2.4766   5.4587  -2.7344   H         1 RES1   0.0000
   108 H16A    -1.9676   5.5771  -1.0492   H         1 RES1   0.0000
   109 H20A    -6.4234   1.4881  -0.4844   H         1 RES1   0.0000
   110 H21A    -5.3090   2.1031   0.7266   H         1 RES1   0.0000
   111 H22A    -5.4495   0.3684   0.4658   H         1 RES1   0.0000
   112 H26A    -0.5744  -2.0218   6.2353   H         1 RES1   0.0000
   113 H27A    -0.5923  -0.4608   5.4130   H         1 RES1   0.0000
   114 H28A     0.6207  -1.6662   4.9675   H         1 RES1   0.0000
   115 H32A    -5.4528  -3.3930   0.2625   H         1 RES1   0.0000
   116 H33A    -5.5453  -3.0822   2.0036   H         1 RES1   0.0000
   117 H34A    -4.5449  -4.4017   1.3863   H         1 RES1   0.0000
   118 Cl1      5.5991   4.0474   3.4644   Cl        2 RES2   0.0000
   119 O4       6.1343   3.4527   4.4501   O.2       2 RES2   0.0000
   120 O5       5.8368   5.3066   3.4940   O.2       2 RES2   0.0000
   121 O6       4.2283   3.9943   3.6990   O.2       2 RES2   0.0000
   122 O7       5.5648   3.3459   2.4236   O.3       2 RES2  -1.0000
@<TRIPOS>BOND
     1     1     2    1
     2     2    11    2
     3     3     1    1
     4     4     1    1
     5     5    11   am
     6     6    11   am
     7     7    16   am
     8     8    16   am
     9     9    21   am
    10    10    21   am
    11    12     5    1
    12    13    12    1
    13    14     6    1
    14    15    14    1
    15    16     3    2
    16    17     7    1
    17    18    17    1
    18    19     8    1
    19    20    19    1
    20    21     4    2
    21    22     9    1
    22    23    22    1
    23    24    10    1
    24    25    24    1
    25    26     5    1
    26    27    12    1
    27    28    12    1
    28    29    13    1
    29    30    13    1
    30    31    13    1
    31    32     6    1
    32    33    14    1
    33    34    14    1
    34    35    15    1
    35    36    15    1
    36    37    15    1
    37    38     7    1
    38    39    18    1
    39    40    18    1
    40    41    18    1
    41    42     8    1
    42    43    19    1
    43    44    19    1
    44    45    20    1
    45    46    20    1
    46    47    20    1
    47    48     9    1
    48    49    22    1
    49    50    22    1
    50    51    23    1
    51    52    23    1
    52    53    23    1
    53    54    10    1
    54    55    24    1
    55    56    24    1
    56    57    25    1
    57    58    25    1
    58    59    25    1
    59    60     1    1
    60    61     1    1
    61    62     1    1
    62    63    60    2
    63    64    61    2
    64    65    62    2
    65    66    63   am
    66    67    63   am
    67    68    64   am
    68    69    64   am
    69    70    65   am
    70    71    65   am
    71    72    66    1
    72    73    66    1
    73    74    67    1
    74    75    67    1
    75    76    68    1
    76    77    68    1
    77    78    69    1
    78    79    69    1
    79    80    70    1
    80    81    70    1
    81    82    71    1
    82    83    71    1
    83    84    72    1
    84    85    72    1
    85    86    72    1
    86    87    74    1
    87    88    74    1
    88    89    74    1
    89    90    76    1
    90    91    78    1
    91    92    78    1
    92    93    78    1
    93    94    80    1
    94    95    80    1
    95    96    80    1
    96    97    82    1
    97    98    82    1
    98    99    82    1
    99   100    84    1
   100   101    84    1
   101   102    84    1
   102   103    87    1
   103   104    87    1
   104   105    87    1
   105   106    90    1
   106   107    90    1
   107   108    90    1
   108   109    91    1
   109   110    91    1
   110   111    91    1
   111   112    94    1
   112   113    94    1
   113   114    94    1
   114   115    97    1
   115   116    97    1
   116   117    97    1
   117   118   119    2
   118   120   118    2
   119   121   118    2
   120   122   118    1
@<TRIPOS>SUBSTRUCTURE
     1 RES1        1 GROUP             0 ****  ****    0  
     2 RES2      118 GROUP             0 ****  ****    0  
@<TRIPOS>CRYSIN
   13.7710   11.9520    9.1420   77.8000  112.0000  118.0000     2     1
