@<TRIPOS>MOLECULE
EVINAZ
   137   145     4     0     0
SMALL
USER_CHARGES
****
Generated from the CSD

@<TRIPOS>ATOM
     1 C1       5.0609   5.3850   8.2504   C.2       1 RES1   0.0000
     2 H1       4.8565   5.7543   9.0785   H         1 RES1   0.0000
     3 C2       5.7824   5.0685   6.3161   C.2       1 RES1   0.0000
     4 H2       6.2081   5.2173   5.5027   H         1 RES1   0.0000
     5 C3       3.1462  10.8777  11.3382   C.ar      1 RES1   0.0000
     6 C4       3.9974   3.1313   8.6156   C.3       1 RES1   0.0000
     7 H3       3.7787   3.4789   9.4941   H         1 RES1   0.0000
     8 H4       4.5978   2.3788   8.7384   H         1 RES1   0.0000
     9 C5       2.7341   2.6405   7.9620   C.ar      1 RES1   0.0000
    10 C6       3.6507   9.2745   7.3157   C.2       1 RES1   0.0000
    11 H5       3.6351   9.2367   6.3856   H         1 RES1   0.0000
    12 C7       4.4383  12.8741  11.6635   C.ar      1 RES1   0.0000
    13 H6       4.6653  13.7348  11.3929   H         1 RES1   0.0000
    14 C8       2.2933  10.0306  10.4523   C.3       1 RES1   0.0000
    15 H7       1.5239  10.5390  10.1521   H         1 RES1   0.0000
    16 H8       1.9737   9.2580  10.9448   H         1 RES1   0.0000
    17 C9       1.5122   3.2051   8.2814   C.ar      1 RES1   0.0000
    18 H9       1.4780   3.9124   8.8848   H         1 RES1   0.0000
    19 N1       7.8475  12.8270  11.8439   N.2       1 RES1   0.0000
    20 C10      5.0191  12.3403  12.7978   C.ar      1 RES1   0.0000
    21 C11      2.7594   1.5769   7.0703   C.ar      1 RES1   0.0000
    22 H10      3.5705   1.1776   6.8514   H         1 RES1   0.0000
    23 C12      3.6746  10.3768  12.5168   C.ar      1 RES1   0.0000
    24 H11      3.3934   9.5478  12.8318   H         1 RES1   0.0000
    25 C13      4.6160  11.0973  13.2340   C.ar      1 RES1   0.0000
    26 H12      4.9772  10.7404  14.0133   H         1 RES1   0.0000
    27 C14      4.2808   9.0427   9.2648   C.2       1 RES1   0.0000
    28 H13      4.7707   8.8268  10.0250   H         1 RES1   0.0000
    29 C15      3.5265  12.1456  10.9270   C.ar      1 RES1   0.0000
    30 H14      3.1651  12.5081  10.1507   H         1 RES1   0.0000
    31 C16      7.2926  14.8998  12.2506   C.2       1 RES1   0.0000
    32 H15      6.8613  15.6322  12.6262   H         1 RES1   0.0000
    33 C17      6.1105  13.0878  13.5431   C.3       1 RES1   0.0000
    34 H16      6.5587  12.4827  14.1553   H         1 RES1   0.0000
    35 H17      5.7165  13.8061  14.0636   H         1 RES1   0.0000
    36 Fe1      6.6317   8.0210   7.3941   Fe        1 RES1   2.0000
    37 N2       5.7522   5.9924   7.3081   N.2       1 RES1   0.0000
    38 N3       4.6958   4.1738   7.8539   N.pl3     1 RES1   0.0000
    39 N4       5.1650   3.9532   6.5985   N.2       1 RES1   0.0000
    40 N5       4.6985   8.8400   8.0426   N.2       1 RES1   0.0000
    41 N6       3.0812   9.5870   9.2891   N.pl3     1 RES1   0.0000
    42 N7       2.6560   9.7530   8.0197   N.2       1 RES1   0.0000
    43 N8       7.0762  13.6363  12.6040   N.pl3     1 RES1   0.0000
    44 N9       8.1895  14.9736  11.3086   N.2       1 RES1   0.0000
    45 C18      8.4968  13.6848  11.0927   C.2       1 RES1   0.0000
    46 H18      9.1218  13.4185  10.4568   H         1 RES1   0.0000
    47 O1       6.0913   8.3671   5.3906   O.3       1 RES1   0.0000
    48 H19      5.4171   7.8731   5.1729   H         1 RES1   0.0000
    49 H20      5.8724   9.1947   5.2838   H         1 RES1   0.0000
    50 C1A     -1.9550  -1.0734   6.5379   C.2       1 RES1   0.0000
    51 H1A     -1.7505  -1.4427   5.7097   H         1 RES1   0.0000
    52 C2A     -2.6764  -0.7569   8.4722   C.2       1 RES1   0.0000
    53 H2A     -3.1021  -0.9057   9.2855   H         1 RES1   0.0000
    54 C3A     10.1172   5.1643   3.4501   C.ar      1 RES1   0.0000
    55 C4A     -0.8915   1.1803   6.1726   C.3       1 RES1   0.0000
    56 H3A     -0.6727   0.8327   5.2942   H         1 RES1   0.0000
    57 H4A     -1.4918   1.9328   6.0499   H         1 RES1   0.0000
    58 C5A      0.3719   1.6712   6.8263   C.ar      1 RES1   0.0000
    59 C6A      9.6126   6.7676   7.4725   C.2       1 RES1   0.0000
    60 H5A      9.6282   6.8054   8.4027   H         1 RES1   0.0000
    61 C7A      8.8250   3.1680   3.1248   C.ar      1 RES1   0.0000
    62 H6A      8.5980   2.3073   3.3954   H         1 RES1   0.0000
    63 C8A     10.9700   6.0115   4.3359   C.3       1 RES1   0.0000
    64 H7A     11.7394   5.5031   4.6361   H         1 RES1   0.0000
    65 H8A     11.2896   6.7840   3.8435   H         1 RES1   0.0000
    66 C9A      1.5938   1.1065   6.5068   C.ar      1 RES1   0.0000
    67 H9A      1.6280   0.3992   5.9035   H         1 RES1   0.0000
    68 N1A      5.4158   3.2151   2.9443   N.2       1 RES1   0.0000
    69 C10A     8.2443   3.7018   1.9905   C.ar      1 RES1   0.0000
    70 C11A     0.3466   2.7347   7.7180   C.ar      1 RES1   0.0000
    71 H10A    -0.4645   3.1340   7.9369   H         1 RES1   0.0000
    72 C12A     9.5887   5.6653   2.2715   C.ar      1 RES1   0.0000
    73 H11A     9.8699   6.4943   1.9565   H         1 RES1   0.0000
    74 C13A     8.6473   4.9447   1.5542   C.ar      1 RES1   0.0000
    75 H12A     8.2861   5.3017   0.7749   H         1 RES1   0.0000
    76 C14A     8.9826   6.9994   5.5234   C.2       1 RES1   0.0000
    77 H13A     8.4927   7.2153   4.7633   H         1 RES1   0.0000
    78 C15A     9.7368   3.8965   3.8612   C.ar      1 RES1   0.0000
    79 H14A    10.0982   3.5340   4.6376   H         1 RES1   0.0000
    80 C16A     5.9707   1.1422   2.5377   C.2       1 RES1   0.0000
    81 H15A     6.4020   0.4098   2.1620   H         1 RES1   0.0000
    82 C17A     7.1528   2.9543   1.2452   C.3       1 RES1   0.0000
    83 H16A     6.7046   3.5594   0.6329   H         1 RES1   0.0000
    84 H17A     7.5468   2.2359   0.7246   H         1 RES1   0.0000
    85 Fe1     -3.5257  -3.7094   7.3941   Fe        1 RES1   2.0000
    86 N2A     -2.6463  -1.6807   7.4802   N.2       1 RES1   0.0000
    87 N2A      7.5111  10.0497   7.4802   N.3       1 RES1   0.0000
    88 N3A     -1.5898   0.1379   6.9344   N.pl3     1 RES1   0.0000
    89 N4A     -2.0590   0.3584   8.1897   N.2       1 RES1   0.0000
    90 N5A      8.5648   7.2020   6.7457   N.2       1 RES1   0.0000
    91 N6A     10.1821   6.4550   5.4992   N.pl3     1 RES1   0.0000
    92 N7A     10.6073   6.2891   6.7686   N.2       1 RES1   0.0000
    93 N8A      6.1871   2.4058   2.1842   N.pl3     1 RES1   0.0000
    94 N9A      5.0738   1.0685   3.4797   N.2       1 RES1   0.0000
    95 C18A     4.7665   2.3573   3.6956   C.2       1 RES1   0.0000
    96 H18A     4.1415   2.6236   4.3315   H         1 RES1   0.0000
    97 O1A      7.1720   7.6750   9.3976   O.3       1 RES1   0.0000
    98 H19A     7.8462   8.1689   9.6153   H         1 RES1   0.0000
    99 H20A     7.3909   6.8474   9.5044   H         1 RES1   0.0000
   100 C19      6.5235  10.4361  -0.0098   C.ar      2 RES2   0.0000
   101 C20      5.3691  10.7224   0.6906   C.ar      2 RES2   0.0000
   102 H21      4.9387  10.0463   1.1638   H         2 RES2   0.0000
   103 C21      7.1664  11.4565  -0.6980   C.ar      2 RES2   0.0000
   104 H22      7.9514  11.2797  -1.1638   H         2 RES2   0.0000
   105 C22      5.7742   7.1402   0.6433   C.2       2 RES2   0.0000
   106 H23      5.4499   6.8888  -0.1908   H         2 RES2   0.0000
   107 C23      7.1183   9.0403  -0.0858   C.3       2 RES2   0.0000
   108 H24      6.9197   8.6608  -0.9568   H         2 RES2   0.0000
   109 H25      8.0825   9.1039  -0.0044   H         2 RES2   0.0000
   110 N10      6.8254   8.1666   2.2567   N.2       2 RES2   0.0000
   111 N11      6.6161   8.1398   0.9456   N.pl3     2 RES2   0.0000
   112 C24      6.1449   7.2026   2.8488   C.2       2 RES2   0.0000
   113 H26      6.1068   6.9940   3.7547   H         2 RES2   0.0000
   114 N12      5.5187   6.5971   1.8263   N.2       2 RES2   0.0000
   115 C19A     5.4876  13.0248   0.0098   C.ar      2 RES2   0.0000
   116 C20A     6.6420  12.7385  -0.6906   C.ar      2 RES2   0.0000
   117 H21A     7.0723  13.4146  -1.1638   H         2 RES2   0.0000
   118 C21A     4.8446  12.0043   0.6980   C.ar      2 RES2   0.0000
   119 H22A     4.0596  12.1812   1.1638   H         2 RES2   0.0000
   120 C22A     6.2368  16.3207  -0.6433   C.2       2 RES2   0.0000
   121 H23A     6.5611  16.5721   0.1908   H         2 RES2   0.0000
   122 C23A     4.8928  14.4206   0.0858   C.3       2 RES2   0.0000
   123 H24A     5.0914  14.8001   0.9568   H         2 RES2   0.0000
   124 H25A     3.9286  14.3570   0.0044   H         2 RES2   0.0000
   125 N10A     5.1857  15.2943  -2.2567   N.2       2 RES2   0.0000
   126 N11A     5.3949  15.3211  -0.9456   N.pl3     2 RES2   0.0000
   127 C24A     5.8662  16.2583  -2.8488   C.2       2 RES2   0.0000
   128 H26A     5.9042  16.4669  -3.7547   H         2 RES2   0.0000
   129 N12A     6.4924  16.8637  -1.8263   N.2       2 RES2   0.0000
   130 Cl1     10.3870   9.9897   2.8596   Cl        3 RES3   0.0000
   131 O2      11.4350   9.0736   2.7565   O.3       3 RES3  -1.0000
   132 O3       9.3307   9.6235   3.6690   O.2       3 RES3   0.0000
   133 O4      10.9168  11.2178   3.2830   O.2       3 RES3   0.0000
   134 O5       9.9023  10.1860   1.5587   O.2       3 RES3   0.0000
   135 O6       5.3918  10.7451   4.4942   O.3       4 RES4   0.0000
   136 H27      5.9748  11.3689   4.1111   H         4 RES4   0.0000
   137 H28      4.8769  10.6943   3.8893   H         4 RES4   0.0000
@<TRIPOS>BOND
     1     1     2    1
     2     3     4    1
     3     5    14    1
     4     6     7    1
     5     8     6    1
     6     9     6    1
     7    10    11    1
     8    12    13    1
     9    14    15    1
    10    16    14    1
    11    17     9   ar
    12    18    17    1
    13    19    43    1
    14    20    12   ar
    15    21     9   ar
    16    22    21    1
    17    23     5   ar
    18    24    23    1
    19    25    20   ar
    20    26    25    1
    21    27    28    1
    22    29     5   ar
    23    30    29    1
    24    31    32    1
    25    33    20    1
    26    34    33    1
    27    35    33    1
    28    36    37    1
    29    37     1    2
    30    38     1    1
    31    39     3    2
    32    40    10    1
    33    41    14    1
    34    42    10    2
    35    43    31    1
    36    44    31    2
    37    45    19    2
    38    46    45    1
    39    47    36    1
    40    48    47    1
    41    49    47    1
    42    50    51    1
    43    52    53    1
    44    54    63    1
    45    55    56    1
    46    57    55    1
    47    58    55    1
    48    59    60    1
    49    61    62    1
    50    63    64    1
    51    65    63    1
    52    66    21   ar
    53    67    66    1
    54    68    93    1
    55    69    61   ar
    56    70    17   ar
    57    71    70    1
    58    72    54   ar
    59    73    72    1
    60    74    69   ar
    61    75    74    1
    62    76    77    1
    63    78    54   ar
    64    79    78    1
    65    80    81    1
    66    82    69    1
    67    83    82    1
    68    84    82    1
    69    85    86   un
    70    86    50    2
    71    87    36   un
    72    88    50    1
    73    89    52    2
    74    90    36    1
    75    91    63    1
    76    92    59    2
    77    93    80    1
    78    94    80    2
    79    95    68    2
    80    96    95    1
    81    97    36    1
    82    98    97    1
    83    99    97    1
    84     3    37    1
    85     6    38    1
    86    12    29   ar
    87    23    25   ar
    88    27    40    2
    89    27    41    1
    90    33    43    1
    91    36    40    1
    92    38    39    1
    93    41    42    1
    94    44    45    1
    95    52    86    1
    96    55    88    1
    97    58    66   ar
    98    58    70   ar
    99    59    90    1
   100    61    78   ar
   101    72    74   ar
   102    76    90    2
   103    76    91    1
   104    82    93    1
   105    88    89    1
   106    91    92    1
   107    94    95    1
   108   100   101   ar
   109   101   102    1
   110   103   100   ar
   111   104   103    1
   112   105   106    1
   113   107   100    1
   114   108   107    1
   115   109   107    1
   116   110   111    1
   117   111   105    1
   118   112   110    2
   119   113   112    1
   120   114   105    2
   121   115   116   ar
   122   116   103   ar
   123   117   116    1
   124   118   101   ar
   125   119   118    1
   126   120   121    1
   127   122   115    1
   128   123   122    1
   129   124   122    1
   130   125   126    1
   131   126   120    1
   132   127   125    2
   133   128   127    1
   134   129   120    2
   135   107   111    1
   136   112   114    1
   137   115   118   ar
   138   122   126    1
   139   127   129    1
   140   130   131    1
   141   132   130    2
   142   133   130    2
   143   134   130    2
   144   135   136    1
   145   137   135    1
@<TRIPOS>SUBSTRUCTURE
     1 RES1        1 GROUP             0 ****  ****    0  
     2 RES2      100 GROUP             0 ****  ****    0  
     3 RES3      130 GROUP             0 ****  ****    0  
     4 RES4      135 GROUP             0 ****  ****    0  
@<TRIPOS>CRYSIN
    8.3036   11.8760   15.7140   72.4300   78.6000   81.0200     2     1
