@<TRIPOS>MOLECULE
EWUSAS
   107   120     1     0     0
SMALL
NO_CHARGES
****
Generated from the CSD

@<TRIPOS>ATOM
     1 Fe1     15.2241   9.5540   3.4010   Fe        1 RES1   0.0000
     2 N1      15.4831  11.5059   3.6550   N.2       1 RES1   0.0000
     3 N2      13.2441   9.8089   3.3927   N.2       1 RES1   0.0000
     4 N3      14.9764   7.5629   3.3954   N.2       1 RES1   0.0000
     5 N4      17.1791   9.3008   3.1505   N.2       1 RES1   0.0000
     6 C1      16.6883  12.1676   3.7674   C.2       1 RES1   0.0000
     7 C2      14.4818  12.4245   3.9789   C.2       1 RES1   0.0000
     8 C3      12.6112  11.0201   3.2616   C.2       1 RES1   0.0000
     9 C4      12.3260   8.8143   3.0635   C.2       1 RES1   0.0000
    10 C5      13.7731   6.9414   3.6510   C.2       1 RES1   0.0000
    11 C6      15.9859   6.6656   3.6323   C.2       1 RES1   0.0000
    12 C7      17.8398   8.1099   2.9082   C.2       1 RES1   0.0000
    13 C8      18.0930  10.3186   2.8801   C.2       1 RES1   0.0000
    14 C9      16.4617  13.4824   4.3148   C.2       1 RES1   0.0000
    15 C10     15.1323  13.6419   4.4500   C.2       1 RES1   0.0000
    16 C11     11.3000  10.7873   2.6673   C.2       1 RES1   0.0000
    17 C12     11.1456   9.4620   2.5509   C.2       1 RES1   0.0000
    18 C13     14.0498   5.6152   4.1823   C.2       1 RES1   0.0000
    19 C14     15.3872   5.4489   4.1716   C.2       1 RES1   0.0000
    20 C15     19.1586   8.3896   2.3889   C.2       1 RES1   0.0000
    21 C16     19.3136   9.7286   2.3408   C.2       1 RES1   0.0000
    22 C17     13.1538  12.2169   3.7045   C.2       1 RES1   0.0000
    23 C18     12.5290   7.4744   3.3204   C.2       1 RES1   0.0000
    24 C19     17.3261   6.8704   3.2803   C.2       1 RES1   0.0000
    25 C20     17.9005  11.6616   3.2375   C.2       1 RES1   0.0000
    26 Br1     17.7110  14.7417   4.9211   Br        1 RES1   0.0000
    27 Br2     14.3607  15.1644   5.2190   Br        1 RES1   0.0000
    28 Br3     10.0758  12.0370   1.9834   Br        1 RES1   0.0000
    29 Br4      9.6593   8.6829   1.6970   Br        1 RES1   0.0000
    30 Br5     12.8428   4.4025   4.9341   Br        1 RES1   0.0000
    31 Br6     16.1891   3.9184   4.9044   Br        1 RES1   0.0000
    32 Br7     20.4271   7.1931   1.7009   Br        1 RES1   0.0000
    33 Br8     20.8569  10.5334   1.6494   Br        1 RES1   0.0000
    34 C21     12.2001  13.3823   3.8906   C.ar      1 RES1   0.0000
    35 C22     12.0850  14.3839   2.9470   C.ar      1 RES1   0.0000
    36 C23     11.2522  15.4582   3.1304   C.ar      1 RES1   0.0000
    37 C24     10.5111  15.5501   4.2988   C.ar      1 RES1   0.0000
    38 C25     10.5984  14.5795   5.2463   C.ar      1 RES1   0.0000
    39 C26     11.4271  13.4857   5.0268   C.ar      1 RES1   0.0000
    40 C27     11.3758   6.5502   3.1786   C.ar      1 RES1   0.0000
    41 C28     11.2186   5.7850   2.0396   C.ar      1 RES1   0.0000
    42 C29     10.1652   4.9235   1.8175   C.ar      1 RES1   0.0000
    43 C30      9.1854   4.8673   2.7985   C.ar      1 RES1   0.0000
    44 C31      9.2824   5.6112   3.9642   C.ar      1 RES1   0.0000
    45 C32     10.3759   6.4165   4.1275   C.ar      1 RES1   0.0000
    46 C33     18.2575   5.7172   3.4462   C.ar      1 RES1   0.0000
    47 C34     18.3961   4.7221   2.5014   C.ar      1 RES1   0.0000
    48 C35     19.2117   3.6136   2.7128   C.ar      1 RES1   0.0000
    49 C36     19.8893   3.4963   3.8906   C.ar      1 RES1   0.0000
    50 C37     19.7919   4.4683   4.8609   C.ar      1 RES1   0.0000
    51 C38     18.9758   5.5547   4.6146   C.ar      1 RES1   0.0000
    52 C39     19.0226  12.6096   3.0086   C.ar      1 RES1   0.0000
    53 C40     19.0906  13.3357   1.8282   C.ar      1 RES1   0.0000
    54 C41     20.1529  14.1561   1.5297   C.ar      1 RES1   0.0000
    55 C42     21.1861  14.2886   2.4478   C.ar      1 RES1   0.0000
    56 C43     21.1396  13.6012   3.6216   C.ar      1 RES1   0.0000
    57 C44     20.0650  12.7717   3.8986   C.ar      1 RES1   0.0000
    58 F1      12.7829  14.2925   1.8068   F         1 RES1   0.0000
    59 F2      11.1414  16.4096   2.1936   F         1 RES1   0.0000
    60 F3       9.7172  16.6147   4.4968   F         1 RES1   0.0000
    61 F4       9.8900  14.6907   6.3853   F         1 RES1   0.0000
    62 F5      11.4980  12.5453   5.9811   F         1 RES1   0.0000
    63 F6      12.1332   5.8994   1.0359   F         1 RES1   0.0000
    64 F7      10.0762   4.2198   0.7093   F         1 RES1   0.0000
    65 F8       8.1176   4.0537   2.5977   F         1 RES1   0.0000
    66 F9       8.3332   5.5123   4.8957   F         1 RES1   0.0000
    67 F10     10.4581   7.1314   5.2731   F         1 RES1   0.0000
    68 F11     17.7643   4.8193   1.3236   F         1 RES1   0.0000
    69 F12     19.3363   2.6690   1.7559   F         1 RES1   0.0000
    70 F13     20.6542   2.4042   4.1181   F         1 RES1   0.0000
    71 F14     20.4413   4.3531   6.0226   F         1 RES1   0.0000
    72 F15     18.8489   6.4645   5.6023   F         1 RES1   0.0000
    73 F16     18.1056  13.2177   0.9168   F         1 RES1   0.0000
    74 F17     20.2233  14.7906   0.3506   F         1 RES1   0.0000
    75 F18     22.2346  15.0761   2.1628   F         1 RES1   0.0000
    76 F19     22.1233  13.7546   4.5236   F         1 RES1   0.0000
    77 F20     20.0524  12.1208   5.0616   F         1 RES1   0.0000
    78 N5      15.0159   9.7424   1.4280   N.2       1 RES1   0.0000
    79 N6      14.6688  10.6946  -0.5260   N.pl3     1 RES1   0.0000
    80 C45     15.2138  10.8289   0.7040   C.2       1 RES1   0.0000
    81 H1      15.6777  11.6008   1.0078   H         1 RES1   0.0000
    82 C46     14.1035   9.4583  -0.5849   C.2       1 RES1   0.0000
    83 H2      13.6394   9.0814  -1.3223   H         1 RES1   0.0000
    84 C47     14.3338   8.8617   0.6223   C.2       1 RES1   0.0000
    85 H3      14.0665   7.9831   0.8659   H         1 RES1   0.0000
    86 C48     14.5931  11.7367  -1.5525   C.3       1 RES1   0.0000
    87 H4      14.5934  11.3118  -2.4478   H         1 RES1   0.0000
    88 H5      15.3929  12.3156  -1.4896   H         1 RES1   0.0000
    89 C49     13.3567  12.5801  -1.4053   C.3       1 RES1   0.0000
    90 H6      13.3413  13.2631  -2.1079   H         1 RES1   0.0000
    91 H7      12.5619  12.0120  -1.4842   H         1 RES1   0.0000
    92 H8      13.3606  13.0156  -0.5273   H         1 RES1   0.0000
    93 N7      15.3003   9.2738   5.3735   N.2       1 RES1   0.0000
    94 N8      14.5445   8.6525   7.3542   N.pl3     1 RES1   0.0000
    95 C50     14.2592   9.3030   6.2019   C.2       1 RES1   0.0000
    96 H9      13.4286   9.7246   6.0105   H         1 RES1   0.0000
    97 C51     15.8313   8.1889   7.2538   C.2       1 RES1   0.0000
    98 H10     16.3084   7.6889   7.9070   H         1 RES1   0.0000
    99 C52     16.2877   8.5859   6.0346   C.2       1 RES1   0.0000
   100 H11     17.1561   8.4133   5.6920   H         1 RES1   0.0000
   101 C53     13.5869   8.3187   8.4182   C.3       1 RES1   0.0000
   102 H12     13.0322   9.1145   8.6163   H         1 RES1   0.0000
   103 H13     14.0843   8.0836   9.2413   H         1 RES1   0.0000
   104 C54     12.6958   7.1846   8.0435   C.3       1 RES1   0.0000
   105 H14     12.0773   6.9995   8.7809   H         1 RES1   0.0000
   106 H15     12.1869   7.4213   7.2405   H         1 RES1   0.0000
   107 H16     13.2384   6.3886   7.8641   H         1 RES1   0.0000
@<TRIPOS>BOND
     1     1     2    1
     2     2     6    2
     3     3     1    1
     4     4     1    1
     5     5     1    1
     6     6    14    1
     7     7     2    1
     8     8     3    1
     9     9     3    1
    10    10     4    1
    11    11     4    2
    12    12     5    1
    13    13     5    1
    14    14    15    2
    15    15     7    1
    16    16     8    2
    17    17     9    2
    18    18    10    1
    19    19    11    1
    20    20    12    1
    21    21    13    1
    22    22     7    2
    23    23     9    1
    24    24    11    1
    25    25     6    1
    26    26    14    1
    27    27    15    1
    28    28    16    1
    29    29    17    1
    30    30    18    1
    31    31    19    1
    32    32    20    1
    33    33    21    1
    34    34    22    1
    35    35    34   ar
    36    36    35   ar
    37    37    36   ar
    38    38    37   ar
    39    39    34   ar
    40    40    23    1
    41    41    40   ar
    42    42    41   ar
    43    43    42   ar
    44    44    43   ar
    45    45    40   ar
    46    46    24    1
    47    47    46   ar
    48    48    47   ar
    49    49    48   ar
    50    50    49   ar
    51    51    46   ar
    52    52    25    1
    53    53    52   ar
    54    54    53   ar
    55    55    54   ar
    56    56    55   ar
    57    57    52   ar
    58    58    35    1
    59    59    36    1
    60    60    37    1
    61    61    38    1
    62    62    39    1
    63    63    41    1
    64    64    42    1
    65    65    43    1
    66    66    44    1
    67    67    45    1
    68    68    47    1
    69    69    48    1
    70    70    49    1
    71    71    50    1
    72    72    51    1
    73    73    53    1
    74    74    54    1
    75    75    55    1
    76    76    56    1
    77    77    57    1
    78    78     1    1
    79    79    80    1
    80    80    78    2
    81    81    80    1
    82    82    79    1
    83    83    82    1
    84    84    78    1
    85    85    84    1
    86    86    79    1
    87    87    86    1
    88    88    86    1
    89    89    86    1
    90    90    89    1
    91    91    89    1
    92    92    89    1
    93    93     1    1
    94    94    95    1
    95    95    93    2
    96    96    95    1
    97    97    94    1
    98    98    97    1
    99    99    93    1
   100   100    99    1
   101   101    94    1
   102   102   101    1
   103   103   101    1
   104   104   101    1
   105   105   104    1
   106   106   104    1
   107   107   104    1
   108     8    22    1
   109    10    23    2
   110    12    24    2
   111    13    25    2
   112    16    17    1
   113    18    19    2
   114    20    21    2
   115    38    39   ar
   116    44    45   ar
   117    50    51   ar
   118    56    57   ar
   119    82    84    2
   120    97    99    2
@<TRIPOS>SUBSTRUCTURE
     1 RES1        1 GROUP             0 ****  ****    0  
@<TRIPOS>CRYSIN
   14.3704   14.3747   15.2954   78.4159   63.6903   89.2151     2     1
