@<TRIPOS>MOLECULE
FACCES
   111   116     1     0     0
SMALL
NO_CHARGES
****
Generated from the CSD

@<TRIPOS>ATOM
     1 Fe1      5.5589   1.3725   3.8428   Fe        1 RES1   0.0000
     2 P1       4.7774   0.8764   1.9317   P.3       1 RES1   0.0000
     3 P2       6.5119   3.0077   2.8896   P.3       1 RES1   0.0000
     4 P3       6.3947   1.6628   5.7824   P.3       1 RES1   0.0000
     5 P4       3.9223   2.5612   4.5035   P.3       1 RES1   0.0000
     6 O1       3.1831   1.0969   1.7309   O.3       1 RES1   0.0000
     7 O2       4.9676  -0.6173   1.3547   O.3       1 RES1   0.0000
     8 O3       8.0965   2.8754   2.5197   O.3       1 RES1   0.0000
     9 O4       6.4762   4.4665   3.5867   O.3       1 RES1   0.0000
    10 O5       7.6134   2.7155   5.8804   O.3       1 RES1   0.0000
    11 O6       6.9987   0.4207   6.6091   O.3       1 RES1   0.0000
    12 O7       3.4301   3.8050   3.5725   O.3       1 RES1   0.0000
    13 O8       2.4923   1.8538   4.8418   O.3       1 RES1   0.0000
    14 C1       2.5219   0.6651   0.5327   C.3       1 RES1   0.0000
    15 C2       2.7859  -0.8029   0.2498   C.3       1 RES1   0.0000
    16 C3       4.2797  -0.9903   0.1470   C.3       1 RES1   0.0000
    17 C4       2.2449  -1.6866   1.3974   C.3       1 RES1   0.0000
    18 C5       2.0635  -1.2181  -1.0449   C.3       1 RES1   0.0000
    19 C6       8.8070   3.9943   1.9601   C.3       1 RES1   0.0000
    20 C7       8.6846   5.2437   2.8343   C.3       1 RES1   0.0000
    21 C8       7.2119   5.5413   3.0097   C.3       1 RES1   0.0000
    22 C9       9.3421   6.4306   2.1024   C.3       1 RES1   0.0000
    23 C10      9.3666   4.9478   4.1684   C.3       1 RES1   0.0000
    24 C11      8.2929   2.9140   7.1307   C.3       1 RES1   0.0000
    25 C12      8.8400   1.6242   7.7219   C.3       1 RES1   0.0000
    26 C13      7.6764   0.6669   7.8547   C.3       1 RES1   0.0000
    27 C14      9.9071   1.0362   6.7830   C.3       1 RES1   0.0000
    28 C15      9.3809   1.9935   9.1162   C.3       1 RES1   0.0000
    29 C16      2.2833   4.5639   3.9851   C.3       1 RES1   0.0000
    30 C17      1.0455   3.6985   4.0941   C.3       1 RES1   0.0000
    31 C18      1.3281   2.6402   5.1358   C.3       1 RES1   0.0000
    32 C19      0.7178   3.0260   2.7710   C.3       1 RES1   0.0000
    33 C20     -0.1704   4.5363   4.5051   C.3       1 RES1   0.0000
    34 C21      5.5279   1.9090   0.6117   C.3       1 RES1   0.0000
    35 C22      5.7610   3.2851   1.2361   C.3       1 RES1   0.0000
    36 C23      5.1325   2.3499   6.9173   C.3       1 RES1   0.0000
    37 C24      4.3312   3.3788   6.1112   C.3       1 RES1   0.0000
    38 C25      7.2503   0.1157   3.4144   C.3       1 RES1   0.0000
    39 C26      4.6149  -0.4465   4.5857   C.3       1 RES1   0.0000
    40 C27      0.8019  -1.4717   1.8495   C.3       1 RES1   0.0000
    41 C28      2.5249  -0.5494  -2.3474   C.3       1 RES1   0.0000
    42 C29     10.8062   6.2946   1.7641   C.3       1 RES1   0.0000
    43 C30      9.2458   6.0429   5.2481   C.3       1 RES1   0.0000
    44 C31     11.1359   1.8832   6.5269   C.3       1 RES1   0.0000
    45 C32     10.0163   0.8727   9.8939   C.3       1 RES1   0.0000
    46 C33      0.6931   3.9006   1.5396   C.3       1 RES1   0.0000
    47 C34     -0.1719   5.1940   5.8488   C.3       1 RES1   0.0000
    48 H1       2.8332   1.1979  -0.2166   H         1 RES1   0.0000
    49 H2       1.5664   0.8084   0.6244   H         1 RES1   0.0000
    50 H3       4.4697  -1.9200  -0.0506   H         1 RES1   0.0000
    51 H4       4.6154  -0.4538  -0.5880   H         1 RES1   0.0000
    52 H5       2.3364  -2.6145   1.1271   H         1 RES1   0.0000
    53 H6       2.8190  -1.5562   2.1688   H         1 RES1   0.0000
    54 H7       2.1614  -2.1790  -1.1476   H         1 RES1   0.0000
    55 H8       1.1173  -1.0362  -0.9311   H         1 RES1   0.0000
    56 H9       8.4551   4.1854   1.0765   H         1 RES1   0.0000
    57 H10      9.7427   3.7610   1.8653   H         1 RES1   0.0000
    58 H11      7.1157   6.3240   3.5725   H         1 RES1   0.0000
    59 H12      6.8293   5.7526   2.1435   H         1 RES1   0.0000
    60 H13      8.8548   6.5849   1.2772   H         1 RES1   0.0000
    61 H14      9.2321   7.2224   2.6525   H         1 RES1   0.0000
    62 H15     10.3085   4.7880   4.0009   H         1 RES1   0.0000
    63 H16      8.9926   4.1266   4.5257   H         1 RES1   0.0000
    64 H17      7.6768   3.3145   7.7630   H         1 RES1   0.0000
    65 H18      9.0256   3.5350   6.9964   H         1 RES1   0.0000
    66 H19      8.0010  -0.1745   8.2088   H         1 RES1   0.0000
    67 H20      7.0417   1.0307   8.4918   H         1 RES1   0.0000
    68 H21     10.1990   0.1874   7.1513   H         1 RES1   0.0000
    69 H22      9.4870   0.8507   5.9278   H         1 RES1   0.0000
    70 H23     10.0371   2.7008   9.0102   H         1 RES1   0.0000
    71 H24      8.6497   2.3536   9.6425   H         1 RES1   0.0000
    72 H25      2.1231   5.2749   3.3433   H         1 RES1   0.0000
    73 H26      2.4644   4.9754   4.8450   H         1 RES1   0.0000
    74 H27      1.4477   3.0720   5.9973   H         1 RES1   0.0000
    75 H28      0.5596   2.0523   5.2038   H         1 RES1   0.0000
    76 H29      1.3659   2.3205   2.6240   H         1 RES1   0.0000
    77 H30     -0.1521   2.6035   2.8564   H         1 RES1   0.0000
    78 H31     -0.2876   5.2308   3.8380   H         1 RES1   0.0000
    79 H32     -0.9515   3.9631   4.4577   H         1 RES1   0.0000
    80 H33      6.3676   1.5250   0.3146   H         1 RES1   0.0000
    81 H34      4.9299   1.9769  -0.1486   H         1 RES1   0.0000
    82 H35      4.9194   3.7610   1.3231   H         1 RES1   0.0000
    83 H36      6.3567   3.8106   0.6797   H         1 RES1   0.0000
    84 H37      4.5490   1.6462   7.2398   H         1 RES1   0.0000
    85 H38      5.5574   2.7743   7.6793   H         1 RES1   0.0000
    86 H39      4.8572   4.1799   5.9626   H         1 RES1   0.0000
    87 H40      3.5205   3.6250   6.5854   H         1 RES1   0.0000
    88 H41      0.5972  -2.0743   2.5687   H         1 RES1   0.0000
    89 H42      0.2073  -1.6389   1.1128   H         1 RES1   0.0000
    90 H43      0.6922  -0.5659   2.1498   H         1 RES1   0.0000
    91 H44      2.0103  -0.8929  -3.0825   H         1 RES1   0.0000
    92 H45      3.4543  -0.7386  -2.4928   H         1 RES1   0.0000
    93 H46      2.3965   0.3987  -2.2826   H         1 RES1   0.0000
    94 H47     11.1055   7.0901   1.3168   H         1 RES1   0.0000
    95 H48     10.9332   5.5358   1.1903   H         1 RES1   0.0000
    96 H49     11.3105   6.1733   2.5719   H         1 RES1   0.0000
    97 H50      9.7064   5.7636   6.0432   H         1 RES1   0.0000
    98 H51      8.3185   6.1917   5.4520   H         1 RES1   0.0000
    99 H52      9.6353   6.8586   4.9224   H         1 RES1   0.0000
   100 H53     11.7243   1.4221   5.9246   H         1 RES1   0.0000
   101 H54     11.5910   2.0468   7.3568   H         1 RES1   0.0000
   102 H55     10.8726   2.7210   6.1380   H         1 RES1   0.0000
   103 H56     10.3149   1.2016  10.7443   H         1 RES1   0.0000
   104 H57     10.7651   0.5273   9.4023   H         1 RES1   0.0000
   105 H58      9.3735   0.1727  10.0282   H         1 RES1   0.0000
   106 H59      0.4731   3.3659   0.7730   H         1 RES1   0.0000
   107 H60      1.5558   4.3011   1.4148   H         1 RES1   0.0000
   108 H61      0.0334   4.5877   1.6487   H         1 RES1   0.0000
   109 H62     -0.9892   5.6846   5.9641   H         1 RES1   0.0000
   110 H63      0.5734   5.7967   5.9120   H         1 RES1   0.0000
   111 H64     -0.1003   4.5253   6.5332   H         1 RES1   0.0000
@<TRIPOS>BOND
     1     1     2    1
     2     2     6    1
     3     3     1    1
     4     4     1    1
     5     5     1    1
     6     6    14    1
     7     7     2    1
     8     8     3    1
     9     9     3    1
    10    10     4    1
    11    11     4    1
    12    12     5    1
    13    13     5    1
    14    14    15    1
    15    15    16    1
    16    16     7    1
    17    17    15    1
    18    18    15    1
    19    19     8    1
    20    20    19    1
    21    21     9    1
    22    22    20    1
    23    23    20    1
    24    24    10    1
    25    25    24    1
    26    26    11    1
    27    27    25    1
    28    28    25    1
    29    29    12    1
    30    30    29    1
    31    31    13    1
    32    32    30    1
    33    33    30    1
    34    34     2    1
    35    35     3    1
    36    36     4    1
    37    37     5    1
    38    38     1    1
    39    39     1    1
    40    40    17    1
    41    41    18    1
    42    42    22    1
    43    43    23    1
    44    44    27    1
    45    45    28    1
    46    46    32    1
    47    47    33    1
    48    48    14    1
    49    49    14    1
    50    50    16    1
    51    51    16    1
    52    52    17    1
    53    53    17    1
    54    54    18    1
    55    55    18    1
    56    56    19    1
    57    57    19    1
    58    58    21    1
    59    59    21    1
    60    60    22    1
    61    61    22    1
    62    62    23    1
    63    63    23    1
    64    64    24    1
    65    65    24    1
    66    66    26    1
    67    67    26    1
    68    68    27    1
    69    69    27    1
    70    70    28    1
    71    71    28    1
    72    72    29    1
    73    73    29    1
    74    74    31    1
    75    75    31    1
    76    76    32    1
    77    77    32    1
    78    78    33    1
    79    79    33    1
    80    80    34    1
    81    81    34    1
    82    82    35    1
    83    83    35    1
    84    84    36    1
    85    85    36    1
    86    86    37    1
    87    87    37    1
    88    88    40    1
    89    89    40    1
    90    90    40    1
    91    91    41    1
    92    92    41    1
    93    93    41    1
    94    94    42    1
    95    95    42    1
    96    96    42    1
    97    97    43    1
    98    98    43    1
    99    99    43    1
   100   100    44    1
   101   101    44    1
   102   102    44    1
   103   103    45    1
   104   104    45    1
   105   105    45    1
   106   106    46    1
   107   107    46    1
   108   108    46    1
   109   109    47    1
   110   110    47    1
   111   111    47    1
   112    20    21    1
   113    25    26    1
   114    30    31    1
   115    34    35    1
   116    36    37    1
@<TRIPOS>SUBSTRUCTURE
     1 RES1        1 GROUP             0 ****  ****    0  
@<TRIPOS>CRYSIN
   13.6050   18.3730   16.1130   90.0000  101.1760   90.0000   231     1
