@<TRIPOS>MOLECULE
FACGOI
   131   143     2     0     0
SMALL
NO_CHARGES
****
Generated from the CSD

@<TRIPOS>ATOM
     1 Fe1      7.0934   5.5225   5.6601   Fe        1 RES1   0.0000
     2 N1       8.6204   4.4015   6.2803   N.2       1 RES1   0.0000
     3 N2       6.2133   5.2865   7.4355   N.2       1 RES1   0.0000
     4 N3       6.0006   3.9402   4.9897   N.3       1 RES1   0.0000
     5 H1       5.1418   4.1413   5.1077   H         1 RES1   0.0000
     6 H2       6.1339   3.8777   4.1115   H         1 RES1   0.0000
     7 C1       9.7751   4.0992   5.5832   C.2       1 RES1   0.0000
     8 C2      10.6781   3.3472   6.4050   C.2       1 RES1   0.0000
     9 H3      11.5139   3.0270   6.1548   H         1 RES1   0.0000
    10 C3      10.0903   3.1906   7.6129   C.2       1 RES1   0.0000
    11 H4      10.4435   2.7475   8.3510   H         1 RES1   0.0000
    12 C4       8.8051   3.8456   7.5336   C.2       1 RES1   0.0000
    13 C5       7.8995   3.9011   8.5883   C.2       1 RES1   0.0000
    14 C6       6.6789   4.5629   8.5238   C.2       1 RES1   0.0000
    15 C7       5.7009   4.5629   9.5803   C.2       1 RES1   0.0000
    16 H5       5.7789   4.1396  10.4044   H         1 RES1   0.0000
    17 C8       4.6497   5.2922   9.1468   C.2       1 RES1   0.0000
    18 H6       3.8684   5.4677   9.6188   H         1 RES1   0.0000
    19 C9       4.9660   5.7452   7.8189   C.2       1 RES1   0.0000
    20 C10      4.1256   6.5315   7.0344   C.2       1 RES1   0.0000
    21 C11      8.2435   3.1762   9.8537   C.ar      1 RES1   0.0000
    22 C12      8.8107   3.8523  10.9297   C.ar      1 RES1   0.0000
    23 H7       8.9711   4.7664  10.8640   H         1 RES1   0.0000
    24 C13      9.1433   3.1783  12.1070   C.ar      1 RES1   0.0000
    25 H8       9.5167   3.6370  12.8247   H         1 RES1   0.0000
    26 C14      8.9086   1.8226  12.1874   C.ar      1 RES1   0.0000
    27 C15      8.3496   1.1208  11.1346   C.ar      1 RES1   0.0000
    28 H9       8.2030   0.2044  11.2014   H         1 RES1   0.0000
    29 C16      8.0109   1.8102   9.9731   C.ar      1 RES1   0.0000
    30 H10      7.6223   1.3495   9.2656   H         1 RES1   0.0000
    31 C17      2.8123   6.9590   7.6242   C.ar      1 RES1   0.0000
    32 C18      1.7720   6.0523   7.7589   C.ar      1 RES1   0.0000
    33 H11      1.8877   5.1755   7.4714   H         1 RES1   0.0000
    34 C19      0.5547   6.4391   8.3193   C.ar      1 RES1   0.0000
    35 H12     -0.1379   5.8256   8.4121   H         1 RES1   0.0000
    36 C20      0.3920   7.7367   8.7324   C.ar      1 RES1   0.0000
    37 C21      1.3959   8.6744   8.5638   C.ar      1 RES1   0.0000
    38 H13      1.2633   9.5594   8.8162   H         1 RES1   0.0000
    39 C22      2.6085   8.2681   8.0113   C.ar      1 RES1   0.0000
    40 H14      3.2919   8.8900   7.9015   H         1 RES1   0.0000
    41 C23      6.2266   2.5855   5.5730   C.3       1 RES1   0.0000
    42 H15      6.5892   2.6822   6.4673   H         1 RES1   0.0000
    43 H16      6.8833   2.1153   5.0364   H         1 RES1   0.0000
    44 C24      4.9632   1.7638   5.6398   C.ar      1 RES1   0.0000
    45 C25      4.7285   0.7336   4.7522   C.ar      1 RES1   0.0000
    46 H17      5.3515   0.5488   4.0877   H         1 RES1   0.0000
    47 C26      3.5737  -0.0312   4.8383   C.ar      1 RES1   0.0000
    48 H18      3.4294  -0.7244   4.2349   H         1 RES1   0.0000
    49 C27      2.6398   0.2321   5.8163   C.ar      1 RES1   0.0000
    50 H19      1.8677  -0.2839   5.8763   H         1 RES1   0.0000
    51 C28      2.8536   1.2612   6.7027   C.ar      1 RES1   0.0000
    52 H20      2.2206   1.4448   7.3582   H         1 RES1   0.0000
    53 C29      4.0202   2.0371   6.6269   C.ar      1 RES1   0.0000
    54 H21      4.1625   2.7292   7.2325   H         1 RES1   0.0000
    55 Cl1      9.3278   0.9691  13.6479   Cl        1 RES1   0.0000
    56 Cl2     -1.1142   8.2154   9.4694   Cl        1 RES1   0.0000
    57 N1A      5.5663   6.6436   5.0400   N.2       1 RES1   0.0000
    58 N2A      7.9734   5.7585   3.8848   N.2       1 RES1   0.0000
    59 C1A      4.4117   6.9458   5.7371   C.2       1 RES1   0.0000
    60 C2A      3.5086   7.6978   4.9153   C.2       1 RES1   0.0000
    61 H3A      2.6728   8.0181   5.1654   H         1 RES1   0.0000
    62 C3A      4.0965   7.8544   3.7074   C.2       1 RES1   0.0000
    63 H4A      3.7433   8.2975   2.9693   H         1 RES1   0.0000
    64 C4A      5.3816   7.1994   3.7866   C.2       1 RES1   0.0000
    65 C5A      6.2872   7.1439   2.7319   C.2       1 RES1   0.0000
    66 C6A      7.5078   6.4822   2.7964   C.2       1 RES1   0.0000
    67 C7A      8.4858   6.4821   1.7399   C.2       1 RES1   0.0000
    68 H5A      8.4078   6.9055   0.9158   H         1 RES1   0.0000
    69 C8A      9.5370   5.7528   2.1735   C.2       1 RES1   0.0000
    70 H6A     10.3184   5.5773   1.7014   H         1 RES1   0.0000
    71 C9A      9.2207   5.2998   3.5014   C.2       1 RES1   0.0000
    72 C10A    10.0612   4.5135   4.2858   C.2       1 RES1   0.0000
    73 C11A     5.9433   7.8688   1.4665   C.ar      1 RES1   0.0000
    74 C12A     5.3761   7.1927   0.3905   C.ar      1 RES1   0.0000
    75 H7A      5.2157   6.2786   0.4562   H         1 RES1   0.0000
    76 C13A     5.0434   7.8667  -0.7868   C.ar      1 RES1   0.0000
    77 H8A      4.6701   7.4080  -1.5045   H         1 RES1   0.0000
    78 C14A     5.2781   9.2224  -0.8671   C.ar      1 RES1   0.0000
    79 C15A     5.8371   9.9242   0.1857   C.ar      1 RES1   0.0000
    80 H9A      5.9837  10.8406   0.1189   H         1 RES1   0.0000
    81 C16A     6.1758   9.2348   1.3471   C.ar      1 RES1   0.0000
    82 H10A     6.5645   9.6956   2.0546   H         1 RES1   0.0000
    83 C17A    11.3744   4.0861   3.6961   C.ar      1 RES1   0.0000
    84 C18A    12.4147   4.9927   3.5614   C.ar      1 RES1   0.0000
    85 H11A    12.2991   5.8695   3.8489   H         1 RES1   0.0000
    86 C19A    13.6321   4.6059   3.0010   C.ar      1 RES1   0.0000
    87 H12A    14.3247   5.2194   2.9082   H         1 RES1   0.0000
    88 C20A    13.7948   3.3083   2.5878   C.ar      1 RES1   0.0000
    89 C21A    12.7909   2.3706   2.7565   C.ar      1 RES1   0.0000
    90 H13A    12.9235   1.4856   2.5040   H         1 RES1   0.0000
    91 C22A    11.5782   2.7769   3.3089   C.ar      1 RES1   0.0000
    92 H14A    10.8948   2.1550   3.4187   H         1 RES1   0.0000
    93 Cl1A     4.8590  10.0759  -2.3277   Cl        1 RES1   0.0000
    94 Cl2A    15.3010   2.8296   1.8509   Cl        1 RES1   0.0000
    95 N3A      8.1861   7.1048   6.3305   N.3       1 RES1   0.0000
    96 H1A      9.0449   6.9037   6.2126   H         1 RES1   0.0000
    97 H2A      8.0528   7.1673   7.2087   H         1 RES1   0.0000
    98 C23A     7.9601   8.4595   5.7473   C.3       1 RES1   0.0000
    99 H15A     7.5975   8.3628   4.8530   H         1 RES1   0.0000
   100 H16A     7.3034   8.9298   6.2839   H         1 RES1   0.0000
   101 C24A     9.2236   9.2812   5.6805   C.ar      1 RES1   0.0000
   102 C25A     9.4583  10.3114   6.5680   C.ar      1 RES1   0.0000
   103 H17A     8.8353  10.4962   7.2325   H         1 RES1   0.0000
   104 C26A    10.6130  11.0762   6.4820   C.ar      1 RES1   0.0000
   105 H18A    10.7573  11.7694   7.0853   H         1 RES1   0.0000
   106 C27A    11.5470  10.8129   5.5039   C.ar      1 RES1   0.0000
   107 H19A    12.3190  11.3289   5.4439   H         1 RES1   0.0000
   108 C28A    11.3331   9.7838   4.6175   C.ar      1 RES1   0.0000
   109 H20A    11.9661   9.6002   3.9621   H         1 RES1   0.0000
   110 C29A    10.1665   9.0079   4.6934   C.ar      1 RES1   0.0000
   111 H21A    10.0243   8.3158   4.0877   H         1 RES1   0.0000
   112 C30      1.9176   3.3375  10.7758   C.3       2 RES2   0.0000
   113 H22      1.6425   3.9313  10.0750   H         2 RES2   0.0000
   114 H23      1.5611   3.6424  11.6135   H         2 RES2   0.0000
   115 H24      2.8765   3.3219  10.8244   H         2 RES2   0.0000
   116 C31      1.3923   1.9100  10.4803   C.3       2 RES2   0.0000
   117 H25      0.4277   1.9654  10.3977   H         2 RES2   0.0000
   118 H26      1.7360   1.6450   9.6132   H         2 RES2   0.0000
   119 C32      1.7029   0.7913  11.4538   C.3       2 RES2   0.0000
   120 H27      2.6663   0.6985  11.5025   H         2 RES2   0.0000
   121 H28      1.3959   1.0674  12.3312   H         2 RES2   0.0000
   122 C30A     0.9489  -3.0101  11.8648   C.3       2 RES2   0.0000
   123 H22A     1.2239  -3.6039  12.5655   H         2 RES2   0.0000
   124 H23A     1.3054  -3.3149  11.0271   H         2 RES2   0.0000
   125 H24A    -0.0100  -2.9945  11.8161   H         2 RES2   0.0000
   126 C31A     1.4742  -1.5825  12.1602   C.3       2 RES2   0.0000
   127 H25A     2.4388  -1.6379  12.2429   H         2 RES2   0.0000
   128 H26A     1.1304  -1.3175  13.0274   H         2 RES2   0.0000
   129 C32A     1.1635  -0.4639  11.1867   C.3       2 RES2   0.0000
   130 H27A     0.2002  -0.3710  11.1380   H         2 RES2   0.0000
   131 H28A     1.4706  -0.7399  10.3094   H         2 RES2   0.0000
@<TRIPOS>BOND
     1     1     2    1
     2     2     7    1
     3     3     1    1
     4     4     1    1
     5     5     4    1
     6     6     4    1
     7     7     8    2
     8     8     9    1
     9    10     8    1
    10    11    10    1
    11    12     2    1
    12    13    12    1
    13    14     3    1
    14    15    14    1
    15    16    15    1
    16    17    15    2
    17    18    17    1
    18    19     3    2
    19    20    19    1
    20    21    13    1
    21    22    21   ar
    22    23    22    1
    23    24    22   ar
    24    25    24    1
    25    26    24   ar
    26    27    26   ar
    27    28    27    1
    28    29    21   ar
    29    30    29    1
    30    31    20    1
    31    32    31   ar
    32    33    32    1
    33    34    32   ar
    34    35    34    1
    35    36    34   ar
    36    37    36   ar
    37    38    37    1
    38    39    31   ar
    39    40    39    1
    40    41     4    1
    41    42    41    1
    42    43    41    1
    43    44    41    1
    44    45    44   ar
    45    46    45    1
    46    47    45   ar
    47    48    47    1
    48    49    47   ar
    49    50    49    1
    50    51    49   ar
    51    52    51    1
    52    53    44   ar
    53    54    53    1
    54    55    26    1
    55    56    36    1
    56    57     1    1
    57    58     1    1
    58    59    20    2
    59    60    59    1
    60    61    60    1
    61    62    60    2
    62    63    62    1
    63    64    57    1
    64    65    64    2
    65    66    58    2
    66    67    66    1
    67    68    67    1
    68    69    67    2
    69    70    69    1
    70    71    58    1
    71    72     7    1
    72    73    65    1
    73    74    73   ar
    74    75    74    1
    75    76    74   ar
    76    77    76    1
    77    78    76   ar
    78    79    78   ar
    79    80    79    1
    80    81    73   ar
    81    82    81    1
    82    83    72    1
    83    84    83   ar
    84    85    84    1
    85    86    84   ar
    86    87    86    1
    87    88    86   ar
    88    89    88   ar
    89    90    89    1
    90    91    83   ar
    91    92    91    1
    92    93    78    1
    93    94    88    1
    94    95     1    1
    95    96    95    1
    96    97    95    1
    97    98    95    1
    98    99    98    1
    99   100    98    1
   100   101    98    1
   101   102   101   ar
   102   103   102    1
   103   104   102   ar
   104   105   104    1
   105   106   104   ar
   106   107   106    1
   107   108   106   ar
   108   109   108    1
   109   110   101   ar
   110   111   110    1
   111    10    12    2
   112    13    14    2
   113    17    19    1
   114    27    29   ar
   115    37    39   ar
   116    51    53   ar
   117    57    59    1
   118    62    64    1
   119    65    66    1
   120    69    71    1
   121    71    72    2
   122    79    81   ar
   123    89    91   ar
   124   108   110   ar
   125   112   113    1
   126   114   112    1
   127   115   112    1
   128   116   112    1
   129   117   116    1
   130   118   116    1
   131   119   116    1
   132   120   119    1
   133   121   119    1
   134   122   123    1
   135   124   122    1
   136   125   122    1
   137   126   122    1
   138   127   126    1
   139   128   126    1
   140   129   119    1
   141   130   129    1
   142   131   129    1
   143   126   129    1
@<TRIPOS>SUBSTRUCTURE
     1 RES1        1 GROUP             0 ****  ****    0  
     2 RES2      112 GROUP             0 ****  ****    0  
@<TRIPOS>CRYSIN
   10.7986   11.0555   11.4118   87.9180   82.7850   79.8150     2     1
