@<TRIPOS>MOLECULE
FAFGID
   111   120     2     0     0
SMALL
NO_CHARGES
****
Generated from the CSD

@<TRIPOS>ATOM
     1 Fe1     -0.0571   6.6580   5.2372   Fe        1 RES1   0.0000
     2 O1      -1.3843   8.0402   5.5923   O.3       1 RES1   0.0000
     3 O2       1.1098   7.1473   6.7016   O.3       1 RES1   0.0000
     4 O3       0.8589   7.6346   3.8083   O.3       1 RES1   0.0000
     5 O4       3.1127   8.3555  10.1936   O.2       1 RES1   0.0000
     6 O5      -4.2617  11.0539   5.8007   O.2       1 RES1   0.0000
     7 O6       2.8539   9.2804   0.4593   O.2       1 RES1   0.0000
     8 O7       2.9161  13.7488   5.5057   O.3       1 RES1   0.0000
     9 O8       5.5161  15.3433   4.9741   O.3       1 RES1   0.0000
    10 O9       7.4760  14.5777   3.0010   O.3       1 RES1   0.0000
    11 O10      8.5059  14.9894  -0.0883   O.3       1 RES1   0.0000
    12 O11     10.8080  15.1123  -1.2188   O.3       1 RES1   0.0000
    13 N1      -1.7287   5.9830   4.0043   N.ar      1 RES1   0.0000
    14 N2      -0.8024   5.3739   6.8146   N.ar      1 RES1   0.0000
    15 N3       1.1067   5.0991   4.3399   N.ar      1 RES1   0.0000
    16 N4       3.0360   8.5094   7.9557   N.am      1 RES1   0.0000
    17 N5      -2.4232  10.2003   6.7846   N.am      1 RES1   0.0000
    18 N6       1.5355   9.7306   2.2238   N.am      1 RES1   0.0000
    19 C1      -1.8700   4.9221   3.2148   C.ar      1 RES1   0.0000
    20 C2      -1.7760   4.4726   6.8217   C.ar      1 RES1   0.0000
    21 C3       1.2455   3.8238   4.6702   C.ar      1 RES1   0.0000
    22 C4      -2.2264   3.8666   7.9998   C.ar      1 RES1   0.0000
    23 C5      -3.0156   4.6622   2.5259   C.ar      1 RES1   0.0000
    24 C6       2.0180   2.9511   3.9019   C.ar      1 RES1   0.0000
    25 C7      -4.0747   5.5160   2.6177   C.ar      1 RES1   0.0000
    26 C8      -1.6441   4.2050   9.1851   C.ar      1 RES1   0.0000
    27 C9       2.6272   3.3659   2.7820   C.ar      1 RES1   0.0000
    28 C10     -0.6107   5.1458   9.2345   C.ar      1 RES1   0.0000
    29 C11     -3.9763   6.6745   3.4232   C.ar      1 RES1   0.0000
    30 C12      2.5143   4.7062   2.3916   C.ar      1 RES1   0.0000
    31 C13     -4.9876   7.6278   3.6140   C.ar      1 RES1   0.0000
    32 C14      0.0736   5.5424  10.3791   C.ar      1 RES1   0.0000
    33 C15      3.0930   5.2655   1.2417   C.ar      1 RES1   0.0000
    34 C16      1.1058   6.4348  10.2943   C.ar      1 RES1   0.0000
    35 C17     -4.7675   8.7158   4.3912   C.ar      1 RES1   0.0000
    36 C18      2.9423   6.5686   0.9821   C.ar      1 RES1   0.0000
    37 C19     -3.5710   8.9148   5.0924   C.ar      1 RES1   0.0000
    38 C20      1.4960   7.0360   9.0649   C.ar      1 RES1   0.0000
    39 C21      2.2186   7.4617   1.8299   C.ar      1 RES1   0.0000
    40 C22      0.8444   6.6691   7.9080   C.ar      1 RES1   0.0000
    41 C23     -2.5522   7.9810   4.9617   C.ar      1 RES1   0.0000
    42 C24      1.5887   6.9362   2.9657   C.ar      1 RES1   0.0000
    43 C25     -2.7712   6.8619   4.1068   C.ar      1 RES1   0.0000
    44 C26     -0.2219   5.7079   7.9910   C.ar      1 RES1   0.0000
    45 C27      1.7469   5.5489   3.2218   C.ar      1 RES1   0.0000
    46 C28      2.6289   8.0258   9.1338   C.2       1 RES1   0.0000
    47 C29     -3.4466  10.1671   5.9261   C.2       1 RES1   0.0000
    48 C30      2.2213   8.9126   1.4555   C.2       1 RES1   0.0000
    49 C31     -2.0631  11.4027   7.5176   C.3       1 RES1   0.0000
    50 C32      4.0312   9.5553   7.8267   C.3       1 RES1   0.0000
    51 C33      1.4873  11.1614   2.0684   C.3       1 RES1   0.0000
    52 C34      3.3929  10.8779   7.5053   C.3       1 RES1   0.0000
    53 C35     -0.9305  12.1454   6.8552   C.3       1 RES1   0.0000
    54 C36      2.0204  11.8670   3.3437   C.3       1 RES1   0.0000
    55 C37      0.3838  11.3612   6.8782   C.3       1 RES1   0.0000
    56 C38      2.7126  10.8875   6.1328   C.3       1 RES1   0.0000
    57 C39      1.0280  11.6770   4.5130   C.3       1 RES1   0.0000
    58 C40      1.5281  11.8073   5.9403   C.3       1 RES1   0.0000
    59 C41      1.8483  13.2388   6.2935   C.3       1 RES1   0.0000
    60 C42      3.2768  15.0494   5.8979   C.3       1 RES1   0.0000
    61 C43      4.1653  15.6836   4.8910   C.3       1 RES1   0.0000
    62 C44      5.7611  14.0315   4.5607   C.3       1 RES1   0.0000
    63 C45      7.2236  13.8532   4.1651   C.3       1 RES1   0.0000
    64 C46      8.0361  14.1351   1.8317   C.3       1 RES1   0.0000
    65 C47      8.4597  15.3002   0.9945   C.3       1 RES1   0.0000
    66 C48      8.9000  16.3071  -0.8832   C.3       1 RES1   0.0000
    67 C49      9.9761  16.2744  -1.4131   C.2       1 RES1   0.0000
    68 C50     12.1648  14.6830  -1.6780   C.3       1 RES1   0.0000
    69 H1       0.8375   3.5320   5.4633   H         1 RES1   0.0000
    70 H2      -1.1588   4.3580   3.1900   H         1 RES1   0.0000
    71 H3      -2.1934   4.2249   5.9897   H         1 RES1   0.0000
    72 H4       2.0857   2.0445   4.2287   H         1 RES1   0.0000
    73 H5      -2.8442   3.1624   7.9698   H         1 RES1   0.0000
    74 H6      -3.0766   3.8924   1.9395   H         1 RES1   0.0000
    75 H7      -1.7946   9.4206   6.7245   H         1 RES1   0.0000
    76 H8       2.5484   8.2049   7.2403   H         1 RES1   0.0000
    77 H9       1.1688   9.4572   2.9392   H         1 RES1   0.0000
    78 H10      3.0418   2.7430   2.2892   H         1 RES1   0.0000
    79 H11     -4.8287   5.3506   2.1179   H         1 RES1   0.0000
    80 H12     -1.9960   3.8458   9.9905   H         1 RES1   0.0000
    81 H13      3.5958   4.7032   0.6642   H         1 RES1   0.0000
    82 H14     -0.0715   5.1484  11.2252   H         1 RES1   0.0000
    83 H15     -5.7921   7.6187   3.1582   H         1 RES1   0.0000
    84 H16      3.3318   6.9272   0.2137   H         1 RES1   0.0000
    85 H17     -5.4159   9.4056   4.4989   H         1 RES1   0.0000
    86 H18      1.5761   6.7124  11.0804   H         1 RES1   0.0000
    87 H19     -1.8426  11.1409   8.4167   H         1 RES1   0.0000
    88 H20      4.6358   9.3066   7.1290   H         1 RES1   0.0000
    89 H21      0.6153  11.4501   1.9041   H         1 RES1   0.0000
    90 H22     -2.8430  11.9505   7.5512   H         1 RES1   0.0000
    91 H23      2.0623  11.4093   1.3477   H         1 RES1   0.0000
    92 H24      4.4902   9.5998   8.6446   H         1 RES1   0.0000
    93 H25     -0.7599  12.9447   7.3410   H         1 RES1   0.0000
    94 H26      2.1130  12.8032   3.1724   H         1 RES1   0.0000
    95 H27      4.0723  11.5399   7.5123   H         1 RES1   0.0000
    96 H28      2.7439  11.0716   8.1623   H         1 RES1   0.0000
    97 H29      2.8574  11.5085   3.5928   H         1 RES1   0.0000
    98 H30     -1.1334  12.3255   5.9685   H         1 RES1   0.0000
    99 H31      0.1832  10.4564   6.6062   H         1 RES1   0.0000
   100 H32      0.6614  10.8153   4.4530   H         1 RES1   0.0000
   101 H33      2.4175  10.0102   5.9650   H         1 RES1   0.0000
   102 H34      3.3815  11.1341   5.5022   H         1 RES1   0.0000
   103 H35      0.3320  12.3297   4.4159   H         1 RES1   0.0000
   104 H36      0.7176  11.3386   7.7649   H         1 RES1   0.0000
   105 H37      1.0598  13.8060   6.2052   H         1 RES1   0.0000
   106 H38      2.0889  13.3189   7.2580   H         1 RES1   0.0000
   107 H39      3.7054  15.0517   6.7828   H         1 RES1   0.0000
   108 H40      2.4513  15.6046   6.0568   H         1 RES1   0.0000
   109 H41      3.8051  15.3882   4.0397   H         1 RES1   0.0000
   110 H42      4.0550  16.6286   4.9370   H         1 RES1   0.0000
   111 O12      5.0672   1.5667   0.9627   O.3       2 RES2   0.0000
@<TRIPOS>BOND
     1     1     2    1
     2     2    41    1
     3     3     1    1
     4     4     1    1
     5     5    46    2
     6     6    47    2
     7     7    48    2
     8     8    59    1
     9     9    61    1
    10    10    63    1
    11    11    65    1
    12    12    67    1
    13    13     1    1
    14    14     1    1
    15    15     1    1
    16    16    46   am
    17    17    47   am
    18    18    48   am
    19    19    13   ar
    20    20    14   ar
    21    21    15   ar
    22    22    20   ar
    23    23    19   ar
    24    24    21   ar
    25    25    23   ar
    26    26    22   ar
    27    27    24   ar
    28    28    26   ar
    29    29    25   ar
    30    30    27   ar
    31    31    29   ar
    32    32    28   ar
    33    33    30   ar
    34    34    32   ar
    35    35    31   ar
    36    36    33   ar
    37    37    35   ar
    38    38    34   ar
    39    39    36   ar
    40    40     3    1
    41    41    37   ar
    42    42     4    1
    43    43    13   ar
    44    44    14   ar
    45    45    15   ar
    46    46    38    1
    47    47    37    1
    48    48    39    1
    49    49    17    1
    50    50    16    1
    51    51    18    1
    52    52    50    1
    53    53    49    1
    54    54    51    1
    55    55    53    1
    56    56    52    1
    57    57    54    1
    58    58    55    1
    59    59    58    1
    60    60     8    1
    61    61    60    1
    62    62     9    1
    63    63    62    1
    64    64    10    1
    65    65    64    1
    66    66    11    1
    67    67    66    1
    68    68    12    1
    69    69    21    1
    70    70    19    1
    71    71    20    1
    72    72    24    1
    73    73    22    1
    74    74    23    1
    75    75    17    1
    76    76    16    1
    77    77    18    1
    78    78    27    1
    79    79    25    1
    80    80    26    1
    81    81    33    1
    82    82    32    1
    83    83    31    1
    84    84    36    1
    85    85    35    1
    86    86    34    1
    87    87    49    1
    88    88    50    1
    89    89    51    1
    90    90    49    1
    91    91    51    1
    92    92    50    1
    93    93    53    1
    94    94    54    1
    95    95    52    1
    96    96    52    1
    97    97    54    1
    98    98    53    1
    99    99    55    1
   100   100    57    1
   101   101    56    1
   102   102    56    1
   103   103    57    1
   104   104    55    1
   105   105    59    1
   106   106    59    1
   107   107    60    1
   108   108    60    1
   109   109    61    1
   110   110    61    1
   111    28    44   ar
   112    29    43   ar
   113    30    45   ar
   114    38    40   ar
   115    39    42   ar
   116    40    44   ar
   117    41    43   ar
   118    42    45   ar
   119    56    58    1
   120    57    58    1
@<TRIPOS>SUBSTRUCTURE
     1 RES1        1 GROUP             0 ****  ****    0  
     2 RES2      111 GROUP             0 ****  ****    0  
@<TRIPOS>CRYSIN
   10.6110   13.1290   18.1090   93.2200  101.7700   97.5100     2     1
