@<TRIPOS>MOLECULE
FALWIY
   115   116     4     0     0
SMALL
USER_CHARGES
****
Generated from the CSD

@<TRIPOS>ATOM
     1 Tl1     -0.9907  19.3448  21.4781   Tl        1 RES1  -3.0000
     2 Tl2      0.1486  15.9348  20.3340   Tl        1 RES1   0.0000
     3 Tl3     -0.9737  18.4296  17.8263   Tl        1 RES1   0.0000
     4 Fe1     -2.0460  17.3519  19.9573   Fe        1 RES1   0.0000
     5 Fe2      0.8561  18.3813  19.7402   Fe        1 RES1   0.0000
     6 Fe3     -1.2064  18.8375  15.3314   Fe        1 RES1   0.0000
     7 Fe4      0.7506  13.4686  20.6727   Fe        1 RES1   0.0000
     8 Fe5     -0.6227  19.1354  24.2610   Fe        1 RES1   0.0000
     9 C1      -2.4586  16.6287  21.4384   C.1       1 RES1   0.0000
    10 C2      -2.4668  16.0924  18.8534   C.1       1 RES1   0.0000
    11 C3      -3.3754  18.4389  19.6716   C.1       1 RES1   0.0000
    12 C4       1.7582  17.7074  18.5175   C.1       1 RES1   0.0000
    13 C5       1.8941  18.2149  21.0795   C.1       1 RES1   0.0000
    14 C6       1.0429  20.0313  19.3014   C.1       1 RES1   0.0000
    15 C7      -2.7837  19.1971  15.6537   C.1       1 RES1   0.0000
    16 C8      -1.4255  19.0039  13.6972   C.1       1 RES1   0.0000
    17 C9      -0.0395  20.0806  15.5622   C.1       1 RES1   0.0000
    18 C10     -0.5665  17.2204  15.1646   C.1       1 RES1   0.0000
    19 C11      1.5992  13.9802  22.0852   C.1       1 RES1   0.0000
    20 C12      1.5124  13.6329  19.1117   C.1       1 RES1   0.0000
    21 C13      1.0336  11.7077  20.8738   C.1       1 RES1   0.0000
    22 C14     -1.0377  13.2467  20.8876   C.1       1 RES1   0.0000
    23 C15     -0.5108  19.2361  25.9249   C.1       1 RES1   0.0000
    24 C16      0.7988  20.0518  23.8085   C.1       1 RES1   0.0000
    25 C17     -2.3364  18.7800  24.1125   C.1       1 RES1   0.0000
    26 C18      0.0562  17.5163  23.9045   C.1       1 RES1   0.0000
    27 O1      -2.9305  16.0102  22.3640   O.2       1 RES1   0.0000
    28 O2      -2.9221  15.2746  18.1632   O.2       1 RES1   0.0000
    29 O3      -4.3856  19.0142  19.4888   O.2       1 RES1   0.0000
    30 O4       2.5779  17.2903  17.7107   O.2       1 RES1   0.0000
    31 O5       2.7629  18.1307  21.8955   O.2       1 RES1   0.0000
    32 O6       1.1736  21.1552  18.9631   O.2       1 RES1   0.0000
    33 O7      -3.9239  19.3635  15.9485   O.2       1 RES1   0.0000
    34 O8      -1.4884  19.2053  12.5111   O.2       1 RES1   0.0000
    35 O9       0.7495  20.8100  15.6217   O.2       1 RES1   0.0000
    36 O10     -0.0497  16.1993  15.0709   O.2       1 RES1   0.0000
    37 O11      2.1856  14.2596  23.1022   O.2       1 RES1   0.0000
    38 O12      2.0087  13.7870  18.0581   O.2       1 RES1   0.0000
    39 O13      1.3416  10.7481  21.0018   O.2       1 RES1   0.0000
    40 O14     -2.1433  13.0247  21.0041   O.2       1 RES1   0.0000
    41 O15     -0.4101  19.3923  27.1134   O.2       1 RES1   0.0000
    42 O16      1.8146  20.6045  23.5662   O.2       1 RES1   0.0000
    43 O17     -3.4609  18.4985  24.1056   O.2       1 RES1   0.0000
    44 O18      0.3349  16.4561  23.6165   O.2       1 RES1   0.0000
    45 Fe5B    -1.9649  21.9586  21.4498   Fe        1 RES1   0.0000
    46 Tl1B    -1.5970  21.7492  24.2327   Tl        1 RES1  -3.0000
    47 C15B    -2.0768  21.8579  19.7859   C.1       1 RES1   0.0000
    48 C16B    -3.3864  21.0422  21.9023   C.1       1 RES1   0.0000
    49 C17B    -0.2512  22.3140  21.5984   C.1       1 RES1   0.0000
    50 C18B    -2.6438  23.5777  21.8063   C.1       1 RES1   0.0000
    51 Fe1B    -0.5416  23.7421  25.7535   Fe        1 RES1   0.0000
    52 Fe2B    -3.4438  22.7127  25.9706   Fe        1 RES1   0.0000
    53 O15B    -2.1776  21.7017  18.5974   O.2       1 RES1   0.0000
    54 O16B    -4.4023  20.4895  22.1446   O.2       1 RES1   0.0000
    55 O17B     0.8732  22.5955  21.6052   O.2       1 RES1   0.0000
    56 O18B    -2.9226  24.6379  22.0943   O.2       1 RES1   0.0000
    57 Tl2B    -2.7363  25.1592  25.3768   Tl        1 RES1   0.0000
    58 Tl3B    -1.6140  22.6644  27.8845   Tl        1 RES1   0.0000
    59 C1B     -0.1290  24.4653  24.2724   C.1       1 RES1   0.0000
    60 C2B     -0.1208  25.0016  26.8574   C.1       1 RES1   0.0000
    61 C3B      0.7878  22.6551  26.0392   C.1       1 RES1   0.0000
    62 C4B     -4.3459  23.3866  27.1934   C.1       1 RES1   0.0000
    63 C5B     -4.4817  22.8791  24.6313   C.1       1 RES1   0.0000
    64 C6B     -3.6305  21.0627  26.4094   C.1       1 RES1   0.0000
    65 Fe4B    -3.3382  27.6254  25.0381   Fe        1 RES1   0.0000
    66 Fe3B    -1.3812  22.2565  30.3794   Fe        1 RES1   0.0000
    67 O1B      0.3429  25.0838  23.3468   O.2       1 RES1   0.0000
    68 O2B      0.3344  25.8194  27.5476   O.2       1 RES1   0.0000
    69 O3B      1.7980  22.0798  26.2220   O.2       1 RES1   0.0000
    70 O4B     -5.1655  23.8037  28.0002   O.2       1 RES1   0.0000
    71 O5B     -5.3506  22.9633  23.8153   O.2       1 RES1   0.0000
    72 O6B     -3.7613  19.9388  26.7477   O.2       1 RES1   0.0000
    73 C11B    -4.1868  27.1138  23.6256   C.1       1 RES1   0.0000
    74 C12B    -4.1000  27.4611  26.5991   C.1       1 RES1   0.0000
    75 C13B    -3.6212  29.3863  24.8370   C.1       1 RES1   0.0000
    76 C14B    -1.5500  27.8473  24.8233   C.1       1 RES1   0.0000
    77 C7B      0.1960  21.8969  30.0571   C.1       1 RES1   0.0000
    78 C8B     -1.1622  22.0901  32.0136   C.1       1 RES1   0.0000
    79 C9B     -2.5481  21.0134  30.1486   C.1       1 RES1   0.0000
    80 C10B    -2.0211  23.8736  30.5463   C.1       1 RES1   0.0000
    81 O11B    -4.7732  26.8344  22.6086   O.2       1 RES1   0.0000
    82 O12B    -4.5963  27.3070  27.6528   O.2       1 RES1   0.0000
    83 O13B    -3.9292  30.3459  24.7090   O.2       1 RES1   0.0000
    84 O14B    -0.4443  28.0693  24.7067   O.2       1 RES1   0.0000
    85 O7B      1.3363  21.7305  29.7623   O.2       1 RES1   0.0000
    86 O8B     -1.0993  21.8887  33.1998   O.2       1 RES1   0.0000
    87 O9B     -3.3371  20.2840  30.0891   O.2       1 RES1   0.0000
    88 O10B    -2.5379  24.8947  30.6400   O.2       1 RES1   0.0000
    89 N1      11.6405  13.8569   2.9026   N.4       2 RES2   1.0000
    90 C19     13.6682  14.4754   4.2214   C.3       2 RES2   0.0000
    91 C20     10.3471  15.9198   3.9083   C.3       2 RES2   0.0000
    92 C21      9.3790  13.1028   1.8353   C.3       2 RES2   0.0000
    93 C22     12.8397  12.0652   1.6753   C.3       2 RES2   0.0000
    94 C31     12.3810  13.6453   4.1871   C.3       2 RES2   0.0000
    95 C32     11.1219  15.3322   2.7244   C.3       2 RES2   0.0000
    96 C33     10.3380  12.9775   3.0078   C.3       2 RES2   0.0000
    97 C34     12.3890  13.4994   1.5542   C.3       2 RES2   0.0000
    98 C23      5.4678   3.0944  18.9448   C.3       3 RES3   0.0000
    99 C24      5.2752   0.7233  20.0282   C.3       3 RES3   0.0000
   100 C25      4.2814   1.5534  17.8226   C.3       3 RES3   0.0000
   101 C26      6.7012   1.1671  18.0878   C.3       3 RES3   0.0000
   102 N3       5.4274   1.6540  18.8991   N.4       3 RES3   1.0000
   103 C35      6.7447   3.5012  19.8545   C.3       3 RES3   0.0000
   104 C36      4.2557   1.3397  20.9858   C.3       3 RES3   0.0000
   105 C37      4.2013  -0.0925  17.3953   C.3       3 RES3   0.0000
   106 C38      6.9451   1.6931  16.6822   C.3       3 RES3   0.0000
   107 N2      10.6783   4.0663  13.6812   N.4       4 RES4   1.0000
   108 C27     11.5415   5.2004  11.4551   C.3       4 RES4   0.0000
   109 C28     11.2853   6.3819  14.5932   C.3       4 RES4   0.0000
   110 C29     10.6206   3.0163  15.9782   C.3       4 RES4   0.0000
   111 C30      9.8972   1.9479  12.9407   C.3       4 RES4   0.0000
   112 C39     11.4960   4.1525  12.5179   C.2       4 RES4   0.0000
   113 C40     10.1976   5.2806  14.3075   C.3       4 RES4   0.0000
   114 C41     11.5581   3.3882  14.7577   C.3       4 RES4   0.0000
   115 C42      9.3639   3.2711  13.3476   C.3       4 RES4   0.0000
@<TRIPOS>BOND
     1     1     4    1
     2     2     4    1
     3     3     4    1
     4     4     9    1
     5     5     1    1
     6     6     3    1
     7     7     2    1
     8     8     1    1
     9     9    27    3
    10    10     4    1
    11    11     4    1
    12    12     5    1
    13    13     5    1
    14    14     5    1
    15    15     6    1
    16    16     6    1
    17    17     6    1
    18    18     6    1
    19    19     7    1
    20    20     7    1
    21    21     7    1
    22    22     7    1
    23    23     8    1
    24    24     8    1
    25    25     8    1
    26    26     8    1
    27    28    10    3
    28    29    11    3
    29    30    12    3
    30    31    13    3
    31    32    14    3
    32    33    15    3
    33    34    16    3
    34    35    17    3
    35    36    18    3
    36    37    19    3
    37    38    20    3
    38    39    21    3
    39    40    22    3
    40    41    23    3
    41    42    24    3
    42    43    25    3
    43    44    26    3
    44    45     1    1
    45    46     8    1
    46    47    45    1
    47    48    45    1
    48    49    45    1
    49    50    45    1
    50    51    46    1
    51    52    46    1
    52    53    47    3
    53    54    48    3
    54    55    49    3
    55    56    50    3
    56    57    51    1
    57    58    51    1
    58    59    51    1
    59    60    51    1
    60    61    51    1
    61    62    52    1
    62    63    52    1
    63    64    52    1
    64    65    57    1
    65    66    58    1
    66    67    59    3
    67    68    60    3
    68    69    61    3
    69    70    62    3
    70    71    63    3
    71    72    64    3
    72    73    65    1
    73    74    65    1
    74    75    65    1
    75    76    65    1
    76    77    66    1
    77    78    66    1
    78    79    66    1
    79    80    66    1
    80    81    73    3
    81    82    74    3
    82    83    75    3
    83    84    76    3
    84    85    77    3
    85    86    78    3
    86    87    79    3
    87    88    80    3
    88     2     5    1
    89     3     5    1
    90    45    46    1
    91    52    57    1
    92    52    58    1
    93    89    94    1
    94    90    94    1
    95    91    95    1
    96    92    96    1
    97    93    97    1
    98    95    89    1
    99    96    89    1
   100    97    89    1
   101    98   102    1
   102    99   102    1
   103   100   102    1
   104   101   102    1
   105   103    98    1
   106   104    99    1
   107   105   100    1
   108   106   101    1
   109   107   112    1
   110   108   112    1
   111   109   113    1
   112   110   114    1
   113   111   115    1
   114   113   107    1
   115   114   107    1
   116   115   107    1
@<TRIPOS>SUBSTRUCTURE
     1 RES1        1 GROUP             0 ****  ****    0  
     2 RES2       89 GROUP             0 ****  ****    0  
     3 RES3       98 GROUP             0 ****  ****    0  
     4 RES4      107 GROUP             0 ****  ****    0  
@<TRIPOS>CRYSIN
   12.2660   20.5470   22.8920   90.0000   93.2400   90.0000   231     1
