@<TRIPOS>MOLECULE
FAMQUF
   485   517    12     0     0
SMALL
NO_CHARGES
****
Generated from the CSD

@<TRIPOS>ATOM
     1 Fe1      3.4308   3.0375  -6.1841   Fe        1 RES1   0.0000
     2 Fe2      7.0703   5.2836  -4.3146   Fe        1 RES1   0.0000
     3 Fe3      3.8461   5.7870  -8.1155   Fe        1 RES1   0.0000
     4 Fe4      6.7428   6.6123  -7.3898   Fe        1 RES1   0.0000
     5 Fe5      3.8871   6.3262  -5.1731   Fe        1 RES1   0.0000
     6 Fe6      2.4795   3.7319  -3.0266   Fe        1 RES1   0.0000
     7 Fe7      4.4635   6.0017  -2.2676   Fe        1 RES1   0.0000
     8 Fe8      5.2220   2.5668  -3.2936   Fe        1 RES1   0.0000
     9 Fe9      5.9918   0.8372  -6.4508   Fe        1 RES1   0.0000
    10 Fe10     7.9691   2.0224  -4.3495   Fe        1 RES1   0.0000
    11 Fe11     6.6755   3.6044  -7.3161   Fe        1 RES1   0.0000
    12 O1       3.6892   4.8888  -6.4633   O.3       1 RES1   0.0000
    13 O2       3.6793   3.1169  -4.3025   O.3       1 RES1   0.0000
    14 O3       5.2151   2.5498  -6.6326   O.3       1 RES1   0.0000
    15 O4       6.8608   5.1505  -6.2051   O.3       1 RES1   0.0000
    16 O5       5.3057   5.8449  -3.9702   O.3       1 RES1   0.0000
    17 O6       6.7737   3.4551  -4.0253   O.3       1 RES1   0.0000
    18 O7       4.8336   7.1144  -6.8103   O.3       1 RES1   0.0000
    19 H1       4.6406   7.9305  -6.9521   H         1 RES1   0.0000
    20 O8       2.8016   5.7125  -3.5406   O.3       1 RES1   0.0000
    21 H2       2.1445   6.2209  -3.3607   H         1 RES1   0.0000
    22 O9       4.3211   3.9399  -2.0655   O.3       1 RES1   0.0000
    23 H3       4.2965   3.6886  -1.2550   H         1 RES1   0.0000
    24 O10      6.0557   1.0730  -4.4125   O.3       1 RES1   0.0000
    25 H4       6.0541   0.3277  -4.0041   H         1 RES1   0.0000
    26 O11      7.6541   2.0928  -6.3765   O.3       1 RES1   0.0000
    27 H5       8.3137   1.7973  -6.8251   H         1 RES1   0.0000
    28 O12      5.7413   5.0808  -8.4568   O.3       1 RES1   0.0000
    29 H6       5.9477   5.0528  -9.2822   H         1 RES1   0.0000
    30 O13      4.3198   7.0885  -9.6674   O.co2     1 RES1   0.0000
    31 O14      6.3457   7.7108  -9.0198   O.co2     1 RES1   0.0000
    32 C1       5.4096   7.6362  -9.8409   C.2       1 RES1   0.0000
    33 C2       5.6772   8.2753 -11.1932   C.3       1 RES1   0.0000
    34 H7       5.0438   7.9047 -11.8578   H         1 RES1   0.0000
    35 H8       5.5163   9.2506 -11.1298   H         1 RES1   0.0000
    36 C3       7.0887   8.0340 -11.6673   C.3       1 RES1   0.0000
    37 H9       7.2108   8.4664 -12.5498   H         1 RES1   0.0000
    38 H10      7.7173   8.4620 -11.0324   H         1 RES1   0.0000
    39 C4       7.4274   6.5873 -11.7837   C.2       1 RES1   0.0000
    40 O15      6.6265   5.7420 -11.4599   O.2       1 RES1   0.0000
    41 C5       8.7603   6.1833 -12.2324   C.ar      1 RES1   0.0000
    42 C6       9.8201   7.0684 -12.2662   C.ar      1 RES1   0.0000
    43 H11      9.6943   7.9707 -11.9974   H         1 RES1   0.0000
    44 C7      11.0640   6.6481 -12.6937   C.ar      1 RES1   0.0000
    45 H12     11.7817   7.2686 -12.7191   H         1 RES1   0.0000
    46 C8      11.2827   5.3590 -13.0831   C.ar      1 RES1   0.0000
    47 C9      10.2305   4.4890 -13.0577   C.ar      1 RES1   0.0000
    48 H13     10.3662   3.5911 -13.3350   H         1 RES1   0.0000
    49 C10      8.9787   4.8849 -12.6408   C.ar      1 RES1   0.0000
    50 H14      8.2614   4.2595 -12.6345   H         1 RES1   0.0000
    51 C11     12.6600   4.8732 -13.4196   C.3       1 RES1   0.0000
    52 H15     12.6030   4.2053 -14.1349   H         1 RES1   0.0000
    53 H16     13.0719   4.4716 -12.6281   H         1 RES1   0.0000
    54 H17     13.2035   5.6306 -13.7223   H         1 RES1   0.0000
    55 O16      1.7034   4.4235  -1.2994   O.co2     1 RES1   0.0000
    56 O17      3.1682   5.9629  -0.6793   O.co2     1 RES1   0.0000
    57 C12      2.2425   5.1636  -0.4635   C.2       1 RES1   0.0000
    58 C13      1.7878   4.9884   0.9714   C.3       1 RES1   0.0000
    59 H18      2.4955   5.3242   1.5767   H         1 RES1   0.0000
    60 H19      0.9768   5.5363   1.1195   H         1 RES1   0.0000
    61 C14      1.4822   3.5514   1.3227   C.3       1 RES1   0.0000
    62 H20      1.2776   3.4917   2.2877   H         1 RES1   0.0000
    63 H21      0.6778   3.2601   0.8233   H         1 RES1   0.0000
    64 C15      2.6162   2.6339   1.0031   C.2       1 RES1   0.0000
    65 O18      3.6790   3.0853   0.6666   O.2       1 RES1   0.0000
    66 C16      2.4270   1.1896   1.1576   C.ar      1 RES1   0.0000
    67 C17      1.2099   0.6449   1.5026   C.ar      1 RES1   0.0000
    68 H22      0.4723   1.2162   1.6825   H         1 RES1   0.0000
    69 C18      1.0511  -0.7213   1.5894   C.ar      1 RES1   0.0000
    70 H23      0.1968  -1.0731   1.8158   H         1 RES1   0.0000
    71 C19      2.0815  -1.5834   1.3587   C.ar      1 RES1   0.0000
    72 C20      3.2853  -1.0430   1.0137   C.ar      1 RES1   0.0000
    73 H24      4.0256  -1.6181   0.8698   H         1 RES1   0.0000
    74 C21      3.4539   0.3155   0.8635   C.ar      1 RES1   0.0000
    75 H25      4.2881   0.6558   0.5587   H         1 RES1   0.0000
    76 C22      1.8852  -3.0679   1.4581   C.3       1 RES1   0.0000
    77 H26      0.9770  -3.2503   1.7777   H         1 RES1   0.0000
    78 H27      2.5354  -3.4490   2.0846   H         1 RES1   0.0000
    79 H28      2.0067  -3.4729   0.5756   H         1 RES1   0.0000
    80 O19      7.2057  -0.7669  -6.0823   O.co2     1 RES1   0.0000
    81 O20      8.6562   0.1529  -4.6665   O.co2     1 RES1   0.0000
    82 C23      8.0826  -0.8121  -5.2125   C.2       1 RES1   0.0000
    83 C24      8.5137  -2.1882  -4.7342   C.3       1 RES1   0.0000
    84 H29      7.7967  -2.8393  -4.9289   H         1 RES1   0.0000
    85 H30      9.3224  -2.4664  -5.2337   H         1 RES1   0.0000
    86 C25      8.8144  -2.2083  -3.2528   C.3       1 RES1   0.0000
    87 H31      8.9772  -3.1420  -2.9692   H         1 RES1   0.0000
    88 H32      9.6467  -1.6945  -3.0856   H         1 RES1   0.0000
    89 C26      7.7174  -1.6319  -2.4211   C.2       1 RES1   0.0000
    90 O21      6.6457  -1.4112  -2.9290   O.2       1 RES1   0.0000
    91 C27      7.9132  -1.4563  -0.9799   C.ar      1 RES1   0.0000
    92 C28      9.1444  -1.6390  -0.3831   C.ar      1 RES1   0.0000
    93 H33      9.8873  -1.9151  -0.9079   H         1 RES1   0.0000
    94 C29      9.3091  -1.4227   0.9714   C.ar      1 RES1   0.0000
    95 H34     10.1690  -1.5379   1.3587   H         1 RES1   0.0000
    96 C30      8.2657  -1.0460   1.7692   C.ar      1 RES1   0.0000
    97 C31      7.0517  -0.8498   1.1746   C.ar      1 RES1   0.0000
    98 H35      6.3202  -0.5596   1.7036   H         1 RES1   0.0000
    99 C32      6.8605  -1.0671  -0.1757   C.ar      1 RES1   0.0000
   100 H36      5.9985  -0.9476  -0.5545   H         1 RES1   0.0000
   101 C33      8.4741  -0.7516   3.2253   C.3       1 RES1   0.0000
   102 H37      9.4316  -0.6364   3.4031   H         1 RES1   0.0000
   103 H38      8.1319  -1.4973   3.7586   H         1 RES1   0.0000
   104 H39      7.9957   0.0704   3.4687   H         1 RES1   0.0000
   105 O22      2.1218   6.7410  -8.0166   O.co2     1 RES1   0.0000
   106 O23      2.0866   7.1208  -5.8411   O.co2     1 RES1   0.0000
   107 C34      1.5832   7.1560  -6.9775   C.2       1 RES1   0.0000
   108 C35      0.2962   7.9352  -7.1362   C.3       1 RES1   0.0000
   109 H40      0.4521   8.6787  -7.7711   H         1 RES1   0.0000
   110 H41     -0.3874   7.3409  -7.5320   H         1 RES1   0.0000
   111 C36     -0.2426   8.5028  -5.8495   C.3       1 RES1   0.0000
   112 H42     -1.2063   8.6936  -5.9680   H         1 RES1   0.0000
   113 H43     -0.1571   7.8169  -5.1427   H         1 RES1   0.0000
   114 C37      0.4361   9.7481  -5.3860   C.2       1 RES1   0.0000
   115 O24      1.4351  10.1185  -5.9532   O.2       1 RES1   0.0000
   116 C38     -0.1381  10.5553  -4.3067   C.ar      1 RES1   0.0000
   117 C39     -1.2118  10.1341  -3.5575   C.ar      1 RES1   0.0000
   118 H44     -1.6341   9.3094  -3.7607   H         1 RES1   0.0000
   119 C40     -1.6754  10.9038  -2.5142   C.ar      1 RES1   0.0000
   120 H45     -2.4239  10.5984  -2.0147   H         1 RES1   0.0000
   121 C41     -1.0903  12.0909  -2.1756   C.ar      1 RES1   0.0000
   122 C42     -0.0331  12.5061  -2.9311   C.ar      1 RES1   0.0000
   123 H46      0.3820  13.3357  -2.7258   H         1 RES1   0.0000
   124 C43      0.4487  11.7646  -3.9829   C.ar      1 RES1   0.0000
   125 H47      1.1861  12.0836  -4.4887   H         1 RES1   0.0000
   126 C44     -1.6138  12.9355  -1.0518   C.3       1 RES1   0.0000
   127 H48     -1.3953  12.4792  -0.2116   H         1 RES1   0.0000
   128 H49     -2.5841  13.0380  -1.1259   H         1 RES1   0.0000
   129 H50     -1.1907  13.8202  -1.0624   H         1 RES1   0.0000
   130 O25      4.2942   7.9702  -2.3047   O.co2     1 RES1   0.0000
   131 O26      4.0281   8.3156  -4.4781   O.co2     1 RES1   0.0000
   132 C45      4.2163   8.6916  -3.3036   C.2       1 RES1   0.0000
   133 C46      4.3506  10.1770  -3.0454   C.3       1 RES1   0.0000
   134 H51      3.7049  10.4364  -2.3407   H         1 RES1   0.0000
   135 H52      5.2601  10.3574  -2.6983   H         1 RES1   0.0000
   136 C47      4.1159  11.0397  -4.2538   C.3       1 RES1   0.0000
   137 H53      4.7746  10.7998  -4.9501   H         1 RES1   0.0000
   138 H54      3.2140  10.8522  -4.6115   H         1 RES1   0.0000
   139 C48      4.2251  12.4996  -3.9681   C.2       1 RES1   0.0000
   140 O27      4.6068  12.8804  -2.8930   O.2       1 RES1   0.0000
   141 C49      3.7371  13.4537  -4.9649   C.ar      1 RES1   0.0000
   142 C50      3.4020  13.0802  -6.2474   C.ar      1 RES1   0.0000
   143 H55      3.5001  12.1752  -6.5183   H         1 RES1   0.0000
   144 C51      2.9269  14.0176  -7.1405   C.ar      1 RES1   0.0000
   145 H56      2.7056  13.7449  -8.0230   H         1 RES1   0.0000
   146 C52      2.7658  15.3268  -6.7913   C.ar      1 RES1   0.0000
   147 C53      3.1193  15.6894  -5.5257   C.ar      1 RES1   0.0000
   148 H57      3.0472  16.6030  -5.2718   H         1 RES1   0.0000
   149 C54      3.5796  14.7759  -4.6072   C.ar      1 RES1   0.0000
   150 H58      3.7879  15.0556  -3.7226   H         1 RES1   0.0000
   151 C55      2.3194  16.3525  -7.7881   C.3       1 RES1   0.0000
   152 H59      1.6210  15.9673  -8.3574   H         1 RES1   0.0000
   153 H60      3.0837  16.6177  -8.3426   H         1 RES1   0.0000
   154 H61      1.9641  17.1400  -7.3246   H         1 RES1   0.0000
   155 O28      4.1030   0.9996  -2.5565   O.co2     1 RES1   0.0000
   156 O29      2.0984   1.9035  -2.3153   O.co2     1 RES1   0.0000
   157 C56      2.8806   0.9336  -2.3999   C.2       1 RES1   0.0000
   158 C57      2.2541  -0.4447  -2.4359   C.3       1 RES1   0.0000
   159 H62      1.9958  -0.7024  -1.5153   H         1 RES1   0.0000
   160 H63      1.4277  -0.4067  -2.9798   H         1 RES1   0.0000
   161 C58      3.1532  -1.5056  -3.0009   C.3       1 RES1   0.0000
   162 H64      3.4458  -1.2235  -3.9025   H         1 RES1   0.0000
   163 H65      3.9607  -1.5690  -2.4295   H         1 RES1   0.0000
   164 C59      2.5431  -2.8623  -3.1046   C.2       1 RES1   0.0000
   165 O30      1.4538  -3.0896  -2.6391   O.2       1 RES1   0.0000
   166 C60      3.2817  -3.9164  -3.8030   C.ar      1 RES1   0.0000
   167 C61      4.4613  -3.6800  -4.4781   C.ar      1 RES1   0.0000
   168 H66      4.7963  -2.7939  -4.5501   H         1 RES1   0.0000
   169 C62      5.1556  -4.7296  -5.0496   C.ar      1 RES1   0.0000
   170 H67      5.9726  -4.5522  -5.4982   H         1 RES1   0.0000
   171 C63      4.7038  -6.0134  -4.9882   C.ar      1 RES1   0.0000
   172 C64      3.5513  -6.2427  -4.2940   C.ar      1 RES1   0.0000
   173 H68      3.2364  -7.1354  -4.2051   H         1 RES1   0.0000
   174 C65      2.8329  -5.2175  -3.7163   C.ar      1 RES1   0.0000
   175 H69      2.0228  -5.4101  -3.2591   H         1 RES1   0.0000
   176 C66      5.4705  -7.1509  -5.5977   C.3       1 RES1   0.0000
   177 H70      4.9883  -7.9904  -5.4538   H         1 RES1   0.0000
   178 H71      6.3473  -7.1977  -5.1638   H         1 RES1   0.0000
   179 H72      5.5888  -7.0039  -6.5606   H         1 RES1   0.0000
   180 O31      6.2839   2.1581  -1.5872   O.co2     1 RES1   0.0000
   181 O32      8.3109   1.7293  -2.4190   O.co2     1 RES1   0.0000
   182 C67      7.5116   2.0340  -1.5047   C.2       1 RES1   0.0000
   183 C68      8.1325   2.2719  -0.1418   C.3       1 RES1   0.0000
   184 H73      8.3659   1.3980   0.2645   H         1 RES1   0.0000
   185 H74      8.9721   2.7855  -0.2540   H         1 RES1   0.0000
   186 C69      7.2189   3.0209   0.7957   C.3       1 RES1   0.0000
   187 H75      6.8955   3.8389   0.3407   H         1 RES1   0.0000
   188 H76      6.4313   2.4559   0.9947   H         1 RES1   0.0000
   189 C70      7.8692   3.4106   2.0825   C.2       1 RES1   0.0000
   190 O33      8.9984   3.0844   2.3237   O.2       1 RES1   0.0000
   191 C71      7.0972   4.2035   3.0390   C.ar      1 RES1   0.0000
   192 C72      5.8473   4.6903   2.7216   C.ar      1 RES1   0.0000
   193 H77      5.4640   4.4941   1.8751   H         1 RES1   0.0000
   194 C73      5.1523   5.4571   3.6274   C.ar      1 RES1   0.0000
   195 H78      4.2910   5.7780   3.3904   H         1 RES1   0.0000
   196 C74      5.6598   5.7725   4.8527   C.ar      1 RES1   0.0000
   197 C75      6.8895   5.2743   5.1596   C.ar      1 RES1   0.0000
   198 H79      7.2577   5.4580   6.0167   H         1 RES1   0.0000
   199 C76      7.6198   4.5129   4.2750   C.ar      1 RES1   0.0000
   200 H80      8.4835   4.2002   4.5184   H         1 RES1   0.0000
   201 C77      4.9371   6.7275   5.7564   C.3       1 RES1   0.0000
   202 H81      4.8929   6.3624   6.6643   H         1 RES1   0.0000
   203 H82      4.0284   6.8676   5.4157   H         1 RES1   0.0000
   204 H83      5.4157   7.5845   5.7733   H         1 RES1   0.0000
   205 O34      6.3170   0.4618  -8.3891   O.co2     1 RES1   0.0000
   206 O35      6.6128   2.5395  -9.1171   O.co2     1 RES1   0.0000
   207 C78      6.5024   1.3119  -9.2674   C.2       1 RES1   0.0000
   208 C79      6.7051   0.7648 -10.6684   C.3       1 RES1   0.0000
   209 H84      7.0942  -0.1437 -10.6070   H         1 RES1   0.0000
   210 H85      5.8230   0.6829 -11.1128   H         1 RES1   0.0000
   211 C80      7.6038   1.6268 -11.5170   C.3       1 RES1   0.0000
   212 H86      7.2604   2.5560 -11.5065   H         1 RES1   0.0000
   213 H87      8.5098   1.6359 -11.1192   H         1 RES1   0.0000
   214 C81      7.6991   1.1578 -12.9350   C.2       1 RES1   0.0000
   215 O36      8.5921   0.4100 -13.2440   O.2       1 RES1   0.0000
   216 C82      6.7663   1.6421 -13.9529   C.ar      1 RES1   0.0000
   217 C83      5.7536   2.5319 -13.6651   C.ar      1 RES1   0.0000
   218 H88      5.6627   2.8757 -12.7847   H         1 RES1   0.0000
   219 C84      4.8682   2.9252 -14.6492   C.ar      1 RES1   0.0000
   220 H89      4.1775   3.5394 -14.4291   H         1 RES1   0.0000
   221 C85      4.9600   2.4574 -15.9275   C.ar      1 RES1   0.0000
   222 C86      5.9644   1.5735 -16.2089   C.ar      1 RES1   0.0000
   223 H90      6.0350   1.2195 -17.0872   H         1 RES1   0.0000
   224 C87      6.8774   1.1840 -15.2524   C.ar      1 RES1   0.0000
   225 H91      7.5871   0.5980 -15.4894   H         1 RES1   0.0000
   226 C88      3.9427   2.8213 -16.9666   C.3       1 RES1   0.0000
   227 H92      3.1158   3.0995 -16.5179   H         1 RES1   0.0000
   228 H93      3.7669   2.0261 -17.5105   H         1 RES1   0.0000
   229 H94      4.2647   3.5459 -17.5401   H         1 RES1   0.0000
   230 O37      8.5342   4.0756  -8.1140   O.co2     1 RES1   0.0000
   231 O38      8.4952   6.2943  -8.2939   O.co2     1 RES1   0.0000
   232 C89      9.0316   5.1714  -8.4251   C.2       1 RES1   0.0000
   233 C90     10.4238   5.1507  -9.0198   C.3       1 RES1   0.0000
   234 H95     10.4537   5.7834  -9.7817   H         1 RES1   0.0000
   235 H96     11.0664   5.4758  -8.3383   H         1 RES1   0.0000
   236 C91     10.8686   3.7931  -9.4981   C.3       1 RES1   0.0000
   237 H97     10.6655   3.1256  -8.7954   H         1 RES1   0.0000
   238 H98     10.3482   3.5509 -10.3044   H         1 RES1   0.0000
   239 C92     12.3255   3.7309  -9.8240   C.2       1 RES1   0.0000
   240 O39     13.0679   4.5878  -9.4113   O.2       1 RES1   0.0000
   241 C93     12.8372   2.6036 -10.6049   C.ar      1 RES1   0.0000
   242 C94     12.0022   1.6863 -11.2017   C.ar      1 RES1   0.0000
   243 H99     11.0651   1.7342 -11.0493   H         1 RES1   0.0000
   244 C95     12.5097   0.6972 -12.0186   C.ar      1 RES1   0.0000
   245 H100    11.9107   0.0681 -12.4059   H         1 RES1   0.0000
   246 C96     13.8430   0.5911 -12.2874   C.ar      1 RES1   0.0000
   247 C97     14.6686   1.4802 -11.6652   C.ar      1 RES1   0.0000
   248 H101    15.6063   1.4036 -11.7943   H         1 RES1   0.0000
   249 C98     14.1858   2.4851 -10.8546   C.ar      1 RES1   0.0000
   250 H102    14.7916   3.1038 -10.4652   H         1 RES1   0.0000
   251 C99     14.3901  -0.5493 -13.0937   C.3       1 RES1   0.0000
   252 H103    15.3574  -0.6246 -12.9477   H         1 RES1   0.0000
   253 H104    14.2176  -0.3882 -14.0439   H         1 RES1   0.0000
   254 H105    13.9521  -1.3811 -12.8186   H         1 RES1   0.0000
   255 O40      2.9200   2.6420  -8.1627   O.co2     1 RES1   0.0000
   256 O41      3.1761   4.4528  -9.4049   O.co2     1 RES1   0.0000
   257 C100     2.9706   3.2375  -9.2378   C.2       1 RES1   0.0000
   258 C101     2.8346   2.4138 -10.4991   C.3       1 RES1   0.0000
   259 H106     2.1897   2.8563 -11.1065   H         1 RES1   0.0000
   260 H107     3.7116   2.3846 -10.9583   H         1 RES1   0.0000
   261 C102     2.3706   1.0006 -10.2324   C.3       1 RES1   0.0000
   262 H108     2.9951   0.5701  -9.5954   H         1 RES1   0.0000
   263 H109     1.4768   1.0266  -9.8113   H         1 RES1   0.0000
   264 C103     2.3027   0.1868 -11.4811   C.2       1 RES1   0.0000
   265 O42      3.0421   0.4662 -12.3932   O.2       1 RES1   0.0000
   266 C104     1.5651  -1.0743 -11.4662   C.ar      1 RES1   0.0000
   267 C105     0.6619  -1.3851 -10.4737   C.ar      1 RES1   0.0000
   268 H110     0.5153  -0.7725  -9.7626   H         1 RES1   0.0000
   269 C106    -0.0267  -2.5773 -10.5033   C.ar      1 RES1   0.0000
   270 H111    -0.6385  -2.7745  -9.8028   H         1 RES1   0.0000
   271 C107     0.1429  -3.4804 -11.5086   C.ar      1 RES1   0.0000
   272 C108     1.0369  -3.1695 -12.4927   C.ar      1 RES1   0.0000
   273 H112     1.1436  -3.7659 -13.2249   H         1 RES1   0.0000
   274 C109     1.7878  -2.0131 -12.4503   C.ar      1 RES1   0.0000
   275 H113     2.4605  -1.8646 -13.1043   H         1 RES1   0.0000
   276 C110    -0.6095  -4.7805 -11.5192   C.3       1 RES1   0.0000
   277 H114    -0.7871  -5.0453 -10.5922   H         1 RES1   0.0000
   278 H115    -0.0369  -5.4503 -11.9467   H         1 RES1   0.0000
   279 H116    -1.4558  -4.7132 -12.0080   H         1 RES1   0.0000
   280 O43      1.3829   3.4123  -6.0463   O.co2     1 RES1   0.0000
   281 O44      0.7369   3.7470  -3.9533   O.co2     1 RES1   0.0000
   282 C111     0.5431   3.6426  -5.1765   C.2       1 RES1   0.0000
   283 C112    -0.8954   3.8412  -5.6104   C.3       1 RES1   0.0000
   284 H117    -1.3975   2.9996  -5.4580   H         1 RES1   0.0000
   285 H118    -1.3066   4.5437  -5.0474   H         1 RES1   0.0000
   286 C113    -1.0327   4.2324  -7.0579   C.3       1 RES1   0.0000
   287 H119    -1.9221   4.6472  -7.1913   H         1 RES1   0.0000
   288 H120    -0.3486   4.9161  -7.2675   H         1 RES1   0.0000
   289 C114    -0.8850   3.0961  -8.0082   C.2       1 RES1   0.0000
   290 O45     -1.0535   1.9776  -7.5997   O.2       1 RES1   0.0000
   291 C115    -0.6728   3.3815  -9.4282   C.ar      1 RES1   0.0000
   292 C116    -0.2303   4.6248  -9.8324   C.ar      1 RES1   0.0000
   293 H121    -0.1409   5.3203  -9.1954   H         1 RES1   0.0000
   294 C117     0.0829   4.8664 -11.1530   C.ar      1 RES1   0.0000
   295 H122     0.3737   5.7329 -11.4112   H         1 RES1   0.0000
   296 C118    -0.0178   3.8891 -12.1011   C.ar      1 RES1   0.0000
   297 C119    -0.4794   2.6648 -11.7075   C.ar      1 RES1   0.0000
   298 H123    -0.5852   1.9796 -12.3551   H         1 RES1   0.0000
   299 C120    -0.7926   2.4009 -10.3890   C.ar      1 RES1   0.0000
   300 H124    -1.0931   1.5361 -10.1414   H         1 RES1   0.0000
   301 C121     0.5043   4.1224 -13.4873   C.3       1 RES1   0.0000
   302 H125     1.0458   4.9398 -13.4895   H         1 RES1   0.0000
   303 H126    -0.2489   4.2281 -14.1053   H         1 RES1   0.0000
   304 H127     1.0558   3.3633 -13.7730   H         1 RES1   0.0000
   305 O46      2.8243   1.0725  -5.9236   O.co2     1 RES1   0.0000
   306 O47      4.4188  -0.3492  -6.4908   O.co2     1 RES1   0.0000
   307 C122     3.2319  -0.0122  -6.3447   C.2       1 RES1   0.0000
   308 C123     2.2112  -1.1151  -6.5416   C.3       1 RES1   0.0000
   309 H128     2.1862  -1.3656  -7.4981   H         1 RES1   0.0000
   310 H129     2.4917  -1.9108  -6.0252   H         1 RES1   0.0000
   311 C124     0.8241  -0.7046  -6.1014   C.3       1 RES1   0.0000
   312 H130     0.8536  -0.4519  -5.1448   H         1 RES1   0.0000
   313 H131     0.5465   0.0938  -6.6156   H         1 RES1   0.0000
   314 C125    -0.1924  -1.7809  -6.2876   C.2       1 RES1   0.0000
   315 O48      0.0436  -2.7173  -7.0093   O.2       1 RES1   0.0000
   316 C126    -1.5378  -1.5682  -5.7564   C.ar      1 RES1   0.0000
   317 C127    -1.8982  -0.3911  -5.1448   C.ar      1 RES1   0.0000
   318 H132    -1.2685   0.3168  -5.0834   H         1 RES1   0.0000
   319 C128    -3.1614  -0.2273  -4.6178   C.ar      1 RES1   0.0000
   320 H133    -3.3794   0.5938  -4.1924   H         1 RES1   0.0000
   321 C129    -4.1066  -1.2091  -4.6898   C.ar      1 RES1   0.0000
   322 C130    -3.7503  -2.3667  -5.3099   C.ar      1 RES1   0.0000
   323 H134    -4.4031  -3.0508  -5.4136   H         1 RES1   0.0000
   324 C131    -2.4744  -2.5815  -5.7903   C.ar      1 RES1   0.0000
   325 H135    -2.2402  -3.4302  -6.1458   H         1 RES1   0.0000
   326 C132    -5.4873  -0.9954  -4.1459   C.3       1 RES1   0.0000
   327 H136    -5.8320  -0.1235  -4.4337   H         1 RES1   0.0000
   328 H137    -5.4450  -1.0231  -3.1660   H         1 RES1   0.0000
   329 H138    -6.0821  -1.7052  -4.4676   H         1 RES1   0.0000
   330 O49      7.6023   7.3031  -4.3067   O.co2     1 RES1   0.0000
   331 O50      7.4666   8.1053  -6.3659   O.co2     1 RES1   0.0000
   332 C133     7.6654   8.2123  -5.1406   C.2       1 RES1   0.0000
   333 C134     7.9455   9.6236  -4.6728   C.3       1 RES1   0.0000
   334 H139     8.7139   9.9805  -5.1829   H         1 RES1   0.0000
   335 H140     7.1600  10.1880  -4.8824   H         1 RES1   0.0000
   336 C135     8.2463   9.7440  -3.2020   C.3       1 RES1   0.0000
   337 H141     7.4908   9.3621  -2.6877   H         1 RES1   0.0000
   338 H142     9.0537   9.2115  -2.9946   H         1 RES1   0.0000
   339 C136     8.4677  11.1525  -2.7618   C.2       1 RES1   0.0000
   340 O51      8.2987  12.0591  -3.5470   O.2       1 RES1   0.0000
   341 C137     8.7050  11.4469  -1.3481   C.ar      1 RES1   0.0000
   342 C138     8.9064  10.4607  -0.4085   C.ar      1 RES1   0.0000
   343 H143     8.9202   9.5492  -0.6793   H         1 RES1   0.0000
   344 C139     9.0892  10.7789   0.9206   C.ar      1 RES1   0.0000
   345 H144     9.2269  10.0793   1.5491   H         1 RES1   0.0000
   346 C140     9.0807  12.0708   1.3629   C.ar      1 RES1   0.0000
   347 C141     8.8795  13.0429   0.4275   C.ar      1 RES1   0.0000
   348 H145     8.8542  13.9506   0.7090   H         1 RES1   0.0000
   349 C142     8.7069  12.7551  -0.9100   C.ar      1 RES1   0.0000
   350 H146     8.5900  13.4622  -1.5343   H         1 RES1   0.0000
   351 C143     9.2084  12.3881   2.8232   C.3       1 RES1   0.0000
   352 H147    10.1131  12.1855   3.1406   H         1 RES1   0.0000
   353 H148     8.5574  11.8473   3.3184   H         1 RES1   0.0000
   354 H149     9.0179  13.3401   2.9650   H         1 RES1   0.0000
   355 O52      9.6967   2.9175  -4.5797   O.co2     1 RES1   0.0000
   356 O53      9.0943   5.0474  -4.6580   O.co2     1 RES1   0.0000
   357 C144     9.9059   4.1192  -4.8168   C.2       1 RES1   0.0000
   358 C145    11.2349   4.4727  -5.4495   C.3       1 RES1   0.0000
   359 H150    11.9556   4.0187  -4.9459   H         1 RES1   0.0000
   360 H151    11.2471   4.1219  -6.3744   H         1 RES1   0.0000
   361 C146    11.5272   5.9534  -5.4876   C.3       1 RES1   0.0000
   362 H152    12.3454   6.1080  -6.0252   H         1 RES1   0.0000
   363 H153    10.7782   6.4221  -5.9342   H         1 RES1   0.0000
   364 C147    11.7208   6.5282  -4.1226   C.2       1 RES1   0.0000
   365 O54     11.8643   5.7628  -3.2020   O.2       1 RES1   0.0000
   366 C148    11.7604   7.9739  -3.9089   C.ar      1 RES1   0.0000
   367 C149    11.6344   8.8732  -4.9501   C.ar      1 RES1   0.0000
   368 H154    11.5020   8.5522  -5.8347   H         1 RES1   0.0000
   369 C150    11.7009  10.2321  -4.7194   C.ar      1 RES1   0.0000
   370 H155    11.6214  10.8312  -5.4517   H         1 RES1   0.0000
   371 C151    11.8778  10.7335  -3.4623   C.ar      1 RES1   0.0000
   372 C152    12.0156   9.8451  -2.4380   C.ar      1 RES1   0.0000
   373 H156    12.1711  10.1731  -1.5597   H         1 RES1   0.0000
   374 C153    11.9364   8.4829  -2.6391   C.ar      1 RES1   0.0000
   375 H157    12.0020   7.8925  -1.8983   H         1 RES1   0.0000
   376 C154    11.9337  12.2107  -3.2189   C.3       1 RES1   0.0000
   377 H158    11.1651  12.6393  -3.6528   H         1 RES1   0.0000
   378 H159    12.7639  12.5629  -3.6041   H         1 RES1   0.0000
   379 H160    11.9132  12.3994  -2.2581   H         1 RES1   0.0000
   380 O55      7.6823   5.4659  -2.3407   O.co2     1 RES1   0.0000
   381 O56      6.0095   6.1924  -1.0941   O.co2     1 RES1   0.0000
   382 C155     7.2145   5.9644  -1.3142   C.2       1 RES1   0.0000
   383 C156     8.1637   6.4000  -0.2201   C.3       1 RES1   0.0000
   384 H161     8.1848   7.3899  -0.1926   H         1 RES1   0.0000
   385 H162     7.8108   6.0858   0.6497   H         1 RES1   0.0000
   386 C157     9.5708   5.8949  -0.3788   C.3       1 RES1   0.0000
   387 H163     9.5668   4.9089  -0.2984   H         1 RES1   0.0000
   388 H164     9.8892   6.1201  -1.2910   H         1 RES1   0.0000
   389 C158    10.5302   6.4600   0.6201   C.2       1 RES1   0.0000
   390 O57     10.1230   7.2067   1.4730   O.2       1 RES1   0.0000
   391 C159    11.8744   5.8906   0.7090   C.ar      1 RES1   0.0000
   392 C160    12.3690   5.1074  -0.3196   C.ar      1 RES1   0.0000
   393 H165    11.8164   4.8989  -1.0624   H         1 RES1   0.0000
   394 C161    13.6594   4.6307  -0.2667   C.ar      1 RES1   0.0000
   395 H166    13.9761   4.0875  -0.9777   H         1 RES1   0.0000
   396 C162    14.4962   4.9144   0.7682   C.ar      1 RES1   0.0000
   397 C163    13.9935   5.6537   1.7946   C.ar      1 RES1   0.0000
   398 H167    14.5442   5.8302   2.5481   H         1 RES1   0.0000
   399 C164    12.7082   6.1559   1.7735   C.ar      1 RES1   0.0000
   400 H168    12.3951   6.6850   2.4973   H         1 RES1   0.0000
   401 C165    15.9244   4.4533   0.7386   C.3       1 RES1   0.0000
   402 H169    16.4361   4.9695   0.0804   H         1 RES1   0.0000
   403 H170    15.9439   3.5049   0.4931   H         1 RES1   0.0000
   404 H171    16.3226   4.5687   1.6253   H         1 RES1   0.0000
   405 O58      4.0118   9.6615  -7.2653   O.3       2 RES2   0.0000
   406 H172     3.2682   9.7899  -6.8759   H         2 RES2   0.0000
   407 C166     3.4727   9.9466  -8.4590   C.3       2 RES2   0.0000
   408 H173     2.4987   9.9929  -8.2875   H         2 RES2   0.0000
   409 H174     3.6112   9.1249  -8.9965   H         2 RES2   0.0000
   410 C167     3.7397  11.0581  -9.4007   C.3       2 RES2   0.0000
   411 H175     4.5005  11.5033  -8.9690   H         2 RES2   0.0000
   412 H176     4.0071  10.7447 -10.2896   H         2 RES2   0.0000
   413 H177     2.9973  11.6909  -9.4875   H         2 RES2   0.0000
   414 O59      9.9205   1.0795  -7.5320   O.3       3 RES3   0.0000
   415 H178     9.8295   0.3944  -8.0272   H         3 RES3   0.0000
   416 C168    11.0169   0.6430  -6.9013   C.3       3 RES3   0.0000
   417 H179    10.8124  -0.2957  -6.6622   H         3 RES3   0.0000
   418 H180    11.0280   1.1407  -6.0463   H         3 RES3   0.0000
   419 C169    12.4344   0.6175  -7.3373   C.3       3 RES3   0.0000
   420 H181    13.0004   1.2435  -6.8357   H         3 RES3   0.0000
   421 H182    12.8269  -0.2784  -7.2950   H         3 RES3   0.0000
   422 H183    12.3779   0.9062  -8.2727   H         3 RES3   0.0000
   423 O60     -4.6973   2.3230   9.5827   O.3       4 RES4   0.0000
   424 H184    -4.2917   2.9353   9.9891   H         4 RES4   0.0000
   425 C170    -5.6440   2.8836   8.8103   C.3       4 RES4   0.0000
   426 H185    -6.1558   2.1216   8.4378   H         4 RES4   0.0000
   427 H186    -5.1514   3.2749   8.0463   H         4 RES4   0.0000
   428 C171    -6.6709   3.8966   9.1637   C.3       4 RES4   0.0000
   429 H187    -7.5658   3.7118   8.8081   H         4 RES4   0.0000
   430 H188    -6.3735   4.7798   8.8611   H         4 RES4   0.0000
   431 H189    -6.6994   3.8797  10.1435   H         4 RES4   0.0000
   432 O61      9.5801  -1.2047  -9.1573   O.3       5 RES5   0.0000
   433 H190     8.8409  -1.0396  -9.5192   H         5 RES5   0.0000
   434 C172     9.5539  -2.2995  -8.3870   C.3       5 RES5   0.0000
   435 H191     8.9473  -2.9237  -8.8568   H         5 RES5   0.0000
   436 H192     9.0701  -2.0198  -7.5701   H         5 RES5   0.0000
   437 C173    10.6609  -3.1543  -7.8897   C.3       5 RES5   0.0000
   438 H193    10.3643  -4.0223  -7.5447   H         5 RES5   0.0000
   439 H194    11.2606  -3.2940  -8.6515   H         5 RES5   0.0000
   440 H195    11.1354  -2.6692  -7.1849   H         5 RES5   0.0000
   441 O62      1.2038  14.2870  13.0006   O.3       6 RES6   0.0000
   442 H196     1.3239  13.4589  13.0874   H         6 RES6   0.0000
   443 C174     0.5751  14.8001  14.0587   C.3       6 RES6   0.0000
   444 H197     0.9056  15.7342  14.0799   H         6 RES6   0.0000
   445 H198     1.0201  14.3519  14.8206   H         6 RES6   0.0000
   446 C175    -0.8259  14.9384  14.5286   C.3       6 RES6   0.0000
   447 H199    -1.4131  14.3727  13.9826   H         6 RES6   0.0000
   448 H200    -1.1000  15.8745  14.4397   H         6 RES6   0.0000
   449 H201    -0.8932  14.6655  15.4661   H         6 RES6   0.0000
   450 C176     1.6362   9.3364  -0.8486   C.3       7 RES7   0.0000
   451 H202     1.4620  10.0539  -1.4920   H         7 RES7   0.0000
   452 H203     2.2061   9.6740  -0.1270   H         7 RES7   0.0000
   453 H204     2.0881   8.5929  -1.3015   H         7 RES7   0.0000
   454 C177     0.6309   8.7696   0.1354   C.3       7 RES7   0.0000
   455 H205     1.0935   8.3077   0.8783   H         7 RES7   0.0000
   456 H206     0.0676   9.4908   0.5100   H         7 RES7   0.0000
   457 O63     -0.1603   7.8511  -0.6095   O.3       7 RES7   0.0000
   458 C178    -1.4126   7.6825   0.0423   C.3       7 RES7   0.0000
   459 H207    -1.9897   8.4715  -0.1206   H         7 RES7   0.0000
   460 H208    -1.2777   7.5914   1.0201   H         7 RES7   0.0000
   461 C179    -2.0641   6.4274  -0.5185   C.3       7 RES7   0.0000
   462 H209    -2.5683   6.0523   0.2328   H         7 RES7   0.0000
   463 H210    -2.6871   6.7011  -1.2254   H         7 RES7   0.0000
   464 H211    -1.4503   5.7506  -0.8719   H         7 RES7   0.0000
   465 C180    -0.8667   9.9029  17.1168   C.3       8 RES8   0.0000
   466 H212    -1.0547  10.8607  17.0364   H         8 RES8   0.0000
   467 H213    -0.1226   9.7658  17.7390   H         8 RES8   0.0000
   468 H214    -1.6616   9.4400  17.4512   H         8 RES8   0.0000
   469 C181    -0.3956   9.4035  15.7582   C.3       8 RES8   0.0000
   470 H215    -0.5456  10.1041  15.0746   H         8 RES8   0.0000
   471 H216     0.5753   9.2083  15.7920   H         8 RES8   0.0000
   472 O64     -1.1074   8.2316  15.4026   O.3       8 RES8   0.0000
   473 C182    -0.6872   7.7019  14.1540   C.3       8 RES8   0.0000
   474 H217    -1.3151   6.9927  13.8598   H         8 RES8   0.0000
   475 H218     0.2126   7.3001  14.2450   H         8 RES8   0.0000
   476 C183    -0.6494   8.8182  13.1212   C.3       8 RES8   0.0000
   477 H219    -0.0298   9.5711  13.2143   H         8 RES8   0.0000
   478 H220    -1.5706   9.1410  13.2122   H         8 RES8   0.0000
   479 H221    -0.5332   8.4050  12.2408   H         8 RES8   0.0000
   480 O65      0.2810   6.8044  -2.9988   O.3       9 RES9   0.0000
   481 H222     0.1493   7.1643  -2.2412   H         9 RES9   0.0000
   482 H223    -0.2894   6.1865  -3.1152   H         9 RES9   0.0000
   483 O66      2.6160  13.6287  10.6451   O.3      10 RES10   0.0000
   484 O67    -12.8080  10.6145   9.0155   O.3      11 RES11   0.0000
   485 O68      1.2303  12.2175  12.7487   O.3      12 RES12   0.0000
@<TRIPOS>BOND
     1     1    12    1
     2     2    15    1
     3     3    12    1
     4     4    15    1
     5     5    12    1
     6     6    13    1
     7     7    16    1
     8     8    13    1
     9     9    14    1
    10    10    17    1
    11    11    14    1
    12    13     1    1
    13    14     1    1
    14    15    11    1
    15    16     2    1
    16    17     2    1
    17    18     3    1
    18    19    18    1
    19    20     5    1
    20    21    20    1
    21    22     6    1
    22    23    22    1
    23    24     8    1
    24    25    24    1
    25    26     9    1
    26    27    26    1
    27    28     3    1
    28    29    28    1
    29    30     3    1
    30    31     4    1
    31    32    30   un
    32    33    32    1
    33    34    33    1
    34    35    33    1
    35    36    33    1
    36    37    36    1
    37    38    36    1
    38    39    36    1
    39    40    39    2
    40    41    39    1
    41    42    41   ar
    42    43    42    1
    43    44    42   ar
    44    45    44    1
    45    46    44   ar
    46    47    46   ar
    47    48    47    1
    48    49    41   ar
    49    50    49    1
    50    51    46    1
    51    52    51    1
    52    53    51    1
    53    54    51    1
    54    55     6    1
    55    56     7    1
    56    57    55   un
    57    58    57    1
    58    59    58    1
    59    60    58    1
    60    61    58    1
    61    62    61    1
    62    63    61    1
    63    64    61    1
    64    65    64    2
    65    66    64    1
    66    67    66   ar
    67    68    67    1
    68    69    67   ar
    69    70    69    1
    70    71    69   ar
    71    72    71   ar
    72    73    72    1
    73    74    66   ar
    74    75    74    1
    75    76    71    1
    76    77    76    1
    77    78    76    1
    78    79    76    1
    79    80     9    1
    80    81    10    1
    81    82    80   un
    82    83    82    1
    83    84    83    1
    84    85    83    1
    85    86    83    1
    86    87    86    1
    87    88    86    1
    88    89    86    1
    89    90    89    2
    90    91    89    1
    91    92    91   ar
    92    93    92    1
    93    94    92   ar
    94    95    94    1
    95    96    94   ar
    96    97    96   ar
    97    98    97    1
    98    99    91   ar
    99   100    99    1
   100   101    96    1
   101   102   101    1
   102   103   101    1
   103   104   101    1
   104   105     3    1
   105   106     5    1
   106   107   105   un
   107   108   107    1
   108   109   108    1
   109   110   108    1
   110   111   108    1
   111   112   111    1
   112   113   111    1
   113   114   111    1
   114   115   114    2
   115   116   114    1
   116   117   116   ar
   117   118   117    1
   118   119   117   ar
   119   120   119    1
   120   121   119   ar
   121   122   121   ar
   122   123   122    1
   123   124   116   ar
   124   125   124    1
   125   126   121    1
   126   127   126    1
   127   128   126    1
   128   129   126    1
   129   130     7    1
   130   131     5    1
   131   132   130   un
   132   133   132    1
   133   134   133    1
   134   135   133    1
   135   136   133    1
   136   137   136    1
   137   138   136    1
   138   139   136    1
   139   140   139    2
   140   141   139    1
   141   142   141   ar
   142   143   142    1
   143   144   142   ar
   144   145   144    1
   145   146   144   ar
   146   147   146   ar
   147   148   147    1
   148   149   141   ar
   149   150   149    1
   150   151   146    1
   151   152   151    1
   152   153   151    1
   153   154   151    1
   154   155     8    1
   155   156     6    1
   156   157   155   un
   157   158   157    1
   158   159   158    1
   159   160   158    1
   160   161   158    1
   161   162   161    1
   162   163   161    1
   163   164   161    1
   164   165   164    2
   165   166   164    1
   166   167   166   ar
   167   168   167    1
   168   169   167   ar
   169   170   169    1
   170   171   169   ar
   171   172   171   ar
   172   173   172    1
   173   174   166   ar
   174   175   174    1
   175   176   171    1
   176   177   176    1
   177   178   176    1
   178   179   176    1
   179   180     8    1
   180   181    10    1
   181   182   180   un
   182   183   182    1
   183   184   183    1
   184   185   183    1
   185   186   183    1
   186   187   186    1
   187   188   186    1
   188   189   186    1
   189   190   189    2
   190   191   189    1
   191   192   191   ar
   192   193   192    1
   193   194   192   ar
   194   195   194    1
   195   196   194   ar
   196   197   196   ar
   197   198   197    1
   198   199   191   ar
   199   200   199    1
   200   201   196    1
   201   202   201    1
   202   203   201    1
   203   204   201    1
   204   205     9    1
   205   206    11    1
   206   207   205   un
   207   208   207    1
   208   209   208    1
   209   210   208    1
   210   211   208    1
   211   212   211    1
   212   213   211    1
   213   214   211    1
   214   215   214    2
   215   216   214    1
   216   217   216   ar
   217   218   217    1
   218   219   217   ar
   219   220   219    1
   220   221   219   ar
   221   222   221   ar
   222   223   222    1
   223   224   216   ar
   224   225   224    1
   225   226   221    1
   226   227   226    1
   227   228   226    1
   228   229   226    1
   229   230    11    1
   230   231     4    1
   231   232   230   un
   232   233   232    1
   233   234   233    1
   234   235   233    1
   235   236   233    1
   236   237   236    1
   237   238   236    1
   238   239   236    1
   239   240   239    2
   240   241   239    1
   241   242   241   ar
   242   243   242    1
   243   244   242   ar
   244   245   244    1
   245   246   244   ar
   246   247   246   ar
   247   248   247    1
   248   249   241   ar
   249   250   249    1
   250   251   246    1
   251   252   251    1
   252   253   251    1
   253   254   251    1
   254   255     1    1
   255   256     3    1
   256   257   255   un
   257   258   257    1
   258   259   258    1
   259   260   258    1
   260   261   258    1
   261   262   261    1
   262   263   261    1
   263   264   261    1
   264   265   264    2
   265   266   264    1
   266   267   266   ar
   267   268   267    1
   268   269   267   ar
   269   270   269    1
   270   271   269   ar
   271   272   271   ar
   272   273   272    1
   273   274   266   ar
   274   275   274    1
   275   276   271    1
   276   277   276    1
   277   278   276    1
   278   279   276    1
   279   280     1    1
   280   281     6    1
   281   282   280   un
   282   283   282    1
   283   284   283    1
   284   285   283    1
   285   286   283    1
   286   287   286    1
   287   288   286    1
   288   289   286    1
   289   290   289    2
   290   291   289    1
   291   292   291   ar
   292   293   292    1
   293   294   292   ar
   294   295   294    1
   295   296   294   ar
   296   297   296   ar
   297   298   297    1
   298   299   291   ar
   299   300   299    1
   300   301   296    1
   301   302   301    1
   302   303   301    1
   303   304   301    1
   304   305     1    1
   305   306     9    1
   306   307   305   un
   307   308   307    1
   308   309   308    1
   309   310   308    1
   310   311   308    1
   311   312   311    1
   312   313   311    1
   313   314   311    1
   314   315   314    2
   315   316   314    1
   316   317   316   ar
   317   318   317    1
   318   319   317   ar
   319   320   319    1
   320   321   319   ar
   321   322   321   ar
   322   323   322    1
   323   324   316   ar
   324   325   324    1
   325   326   321    1
   326   327   326    1
   327   328   326    1
   328   329   326    1
   329   330     2    1
   330   331     4    1
   331   332   330   un
   332   333   332    1
   333   334   333    1
   334   335   333    1
   335   336   333    1
   336   337   336    1
   337   338   336    1
   338   339   336    1
   339   340   339    2
   340   341   339    1
   341   342   341   ar
   342   343   342    1
   343   344   342   ar
   344   345   344    1
   345   346   344   ar
   346   347   346   ar
   347   348   347    1
   348   349   341   ar
   349   350   349    1
   350   351   346    1
   351   352   351    1
   352   353   351    1
   353   354   351    1
   354   355    10    1
   355   356     2    1
   356   357   355   un
   357   358   357    1
   358   359   358    1
   359   360   358    1
   360   361   358    1
   361   362   361    1
   362   363   361    1
   363   364   361    1
   364   365   364    2
   365   366   364    1
   366   367   366   ar
   367   368   367    1
   368   369   367   ar
   369   370   369    1
   370   371   369   ar
   371   372   371   ar
   372   373   372    1
   373   374   366   ar
   374   375   374    1
   375   376   371    1
   376   377   376    1
   377   378   376    1
   378   379   376    1
   379   380     2    1
   380   381     7    1
   381   382   380   un
   382   383   382    1
   383   384   383    1
   384   385   383    1
   385   386   383    1
   386   387   386    1
   387   388   386    1
   388   389   386    1
   389   390   389    2
   390   391   389    1
   391   392   391   ar
   392   393   392    1
   393   394   392   ar
   394   395   394    1
   395   396   394   ar
   396   397   396   ar
   397   398   397    1
   398   399   391   ar
   399   400   399    1
   400   401   396    1
   401   402   401    1
   402   403   401    1
   403   404   401    1
   404     4    18    1
   405     4    28    1
   406     5    16    1
   407     5    18    1
   408     6    20    1
   409     7    20    1
   410     7    22    1
   411     8    17    1
   412     8    22    1
   413     9    24    1
   414    10    24    1
   415    10    26    1
   416    11    26    1
   417    11    28    1
   418    31    32   un
   419    47    49   ar
   420    56    57   un
   421    72    74   ar
   422    81    82   un
   423    97    99   ar
   424   106   107   un
   425   122   124   ar
   426   131   132   un
   427   147   149   ar
   428   156   157   un
   429   172   174   ar
   430   181   182   un
   431   197   199   ar
   432   206   207   un
   433   222   224   ar
   434   231   232   un
   435   247   249   ar
   436   256   257   un
   437   272   274   ar
   438   281   282   un
   439   297   299   ar
   440   306   307   un
   441   322   324   ar
   442   331   332   un
   443   347   349   ar
   444   356   357   un
   445   372   374   ar
   446   381   382   un
   447   397   399   ar
   448   405   406    1
   449   407   405    1
   450   408   407    1
   451   409   407    1
   452   410   407    1
   453   411   410    1
   454   412   410    1
   455   413   410    1
   456   414   415    1
   457   416   414    1
   458   417   416    1
   459   418   416    1
   460   419   416    1
   461   420   419    1
   462   421   419    1
   463   422   419    1
   464   423   424    1
   465   425   423    1
   466   426   425    1
   467   427   425    1
   468   428   425    1
   469   429   428    1
   470   430   428    1
   471   431   428    1
   472   432   433    1
   473   434   432    1
   474   435   434    1
   475   436   434    1
   476   437   434    1
   477   438   437    1
   478   439   437    1
   479   440   437    1
   480   441   442    1
   481   443   441    1
   482   444   443    1
   483   445   443    1
   484   446   443    1
   485   447   446    1
   486   448   446    1
   487   449   446    1
   488   450   451    1
   489   452   450    1
   490   453   450    1
   491   454   450    1
   492   455   454    1
   493   456   454    1
   494   457   454    1
   495   458   457    1
   496   459   458    1
   497   460   458    1
   498   461   458    1
   499   462   461    1
   500   463   461    1
   501   464   461    1
   502   465   466    1
   503   467   465    1
   504   468   465    1
   505   469   465    1
   506   470   469    1
   507   471   469    1
   508   472   469    1
   509   473   472    1
   510   474   473    1
   511   475   473    1
   512   476   473    1
   513   477   476    1
   514   478   476    1
   515   479   476    1
   516   480   481    1
   517   482   480    1
@<TRIPOS>SUBSTRUCTURE
     1 RES1        1 GROUP             0 ****  ****    0  
     2 RES2      405 GROUP             0 ****  ****    0  
     3 RES3      414 GROUP             0 ****  ****    0  
     4 RES4      423 GROUP             0 ****  ****    0  
     5 RES5      432 GROUP             0 ****  ****    0  
     6 RES6      441 GROUP             0 ****  ****    0  
     7 RES7      450 GROUP             0 ****  ****    0  
     8 RES8      465 GROUP             0 ****  ****    0  
     9 RES9      480 GROUP             0 ****  ****    0  
    10 RES10     483 GROUP             0 ****  ****    0  
    11 RES11     484 GROUP             0 ****  ****    0  
    12 RES12     485 GROUP             0 ****  ****    0  
@<TRIPOS>CRYSIN
   20.7860   22.0240   22.2470   74.1330   79.1990   80.0960     2     1
