@<TRIPOS>MOLECULE
FANQUI
   137   149     1     0     0
SMALL
NO_CHARGES
****
Generated from the CSD

@<TRIPOS>ATOM
     1 Fe1      1.8124   9.3710   7.2261   Fe        1 RES1   0.0000
     2 S1      -1.1579  12.3904   8.6444   S.3       1 RES1   0.0000
     3 S2       0.8747  13.6543   6.4081   S.3       1 RES1   0.0000
     4 S3      -0.3548   5.8382   5.5737   S.3       1 RES1   0.0000
     5 S4       1.9714   6.8782   3.5068   S.3       1 RES1   0.0000
     6 S5       4.1400   7.2827  10.4516   S.3       1 RES1   0.0000
     7 S6       6.0668   9.0755   8.5482   S.3       1 RES1   0.0000
     8 F1      -2.8280  10.5296  10.3064   F         1 RES1   0.0000
     9 F2      -2.9567  10.3772  12.9416   F         1 RES1   0.0000
    10 F3      -0.2737  12.3017  15.3343   F         1 RES1   0.0000
    11 F4      -2.3368  12.6663  15.1250   F         1 RES1   0.0000
    12 F5      -1.5893  10.6979  15.1471   F         1 RES1   0.0000
    13 F6       0.4649  13.6208  13.2834   F         1 RES1   0.0000
    14 F7       0.5935  13.7462  10.6540   F         1 RES1   0.0000
    15 F8       2.9149  14.5480   4.4600   F         1 RES1   0.0000
    16 F9       2.6159  15.0008   1.8707   F         1 RES1   0.0000
    17 F10     -0.9793  15.2559   0.3471   F         1 RES1   0.0000
    18 F11      1.0947  15.1596  -0.1372   F         1 RES1   0.0000
    19 F12     -0.1000  13.4103  -0.2709   F         1 RES1   0.0000
    20 F13     -1.7377  13.1882   2.0614   F         1 RES1   0.0000
    21 F14     -1.3981  12.6860   4.6803   F         1 RES1   0.0000
    22 F15      2.3601   5.6955   7.0632   F         1 RES1   0.0000
    23 F16      2.9995   4.0408   9.0100   F         1 RES1   0.0000
    24 F17      0.4594   1.1373  10.3692   F         1 RES1   0.0000
    25 F18      2.4489   1.3731   9.6053   F         1 RES1   0.0000
    26 F19      1.7212   2.6903  11.1383   F         1 RES1   0.0000
    27 F20     -1.3014   2.0987   8.7978   F         1 RES1   0.0000
    28 F21     -1.9828   3.8364   6.9324   F         1 RES1   0.0000
    29 F22      4.2536   7.1007   1.6487   F         1 RES1   0.0000
    30 F23      4.7109   8.9410  -0.1854   F         1 RES1   0.0000
    31 F24      1.9092  11.3426  -1.3423   F         1 RES1   0.0000
    32 F25      4.0338  11.1081  -1.3353   F         1 RES1   0.0000
    33 F26      3.1050  12.4753   0.0355   F         1 RES1   0.0000
    34 F27      0.9057  11.3230   1.2789   F         1 RES1   0.0000
    35 F28      0.4674   9.4781   3.1351   F         1 RES1   0.0000
    36 F29      3.1468   5.0560  12.0516   F         1 RES1   0.0000
    37 F30      1.4552   5.0761  14.0734   F         1 RES1   0.0000
    38 F31     -0.0769   6.3578  15.6105   F         1 RES1   0.0000
    39 F32      0.4594   8.4081  15.8802   F         1 RES1   0.0000
    40 F33     -1.1079   7.8841  14.5146   F         1 RES1   0.0000
    41 F34      0.8189   9.7263  13.4624   F         1 RES1   0.0000
    42 F35      2.5588   9.6898  11.4458   F         1 RES1   0.0000
    43 F36      8.2951  10.0483   6.8882   F         1 RES1   0.0000
    44 F37      9.2107   9.1027   4.6094   F         1 RES1   0.0000
    45 F38      7.1619   7.0538   2.2120   F         1 RES1   0.0000
    46 F39      9.2030   7.2345   2.8694   F         1 RES1   0.0000
    47 F40      8.0720   5.4829   3.3601   F         1 RES1   0.0000
    48 F41      5.7045   5.9311   4.5367   F         1 RES1   0.0000
    49 F42      4.8461   6.8307   6.8620   F         1 RES1   0.0000
    50 O1      -0.1242   9.6444   9.3402   O.3       1 RES1   0.0000
    51 O2       2.5071  11.4131   5.3046   O.3       1 RES1   0.0000
    52 O3      -0.5177   7.7418   7.8288   O.3       1 RES1   0.0000
    53 O4       3.4018   9.1635   4.8233   O.3       1 RES1   0.0000
    54 O5       1.2772   7.6169   9.4635   O.3       1 RES1   0.0000
    55 O6       4.3965  10.5157   6.5998   O.3       1 RES1   0.0000
    56 N1       0.5792  10.2754   8.3630   N.2       1 RES1   0.0000
    57 N2       1.6718  11.0350   6.3144   N.2       1 RES1   0.0000
    58 N3       0.4144   8.0959   6.8986   N.2       1 RES1   0.0000
    59 N4       2.3840   8.6401   5.5668   N.2       1 RES1   0.0000
    60 N5       2.2257   8.2656   8.7293   N.2       1 RES1   0.0000
    61 N6       3.6645   9.7846   7.4730   N.2       1 RES1   0.0000
    62 C1       0.1978  11.4752   8.0107   C.2       1 RES1   0.0000
    63 C2       0.9222  11.9610   6.8545   C.2       1 RES1   0.0000
    64 C3       0.5715   7.2962   5.8720   C.2       1 RES1   0.0000
    65 C4       1.6674   7.6973   5.0239   C.2       1 RES1   0.0000
    66 C5       3.4557   8.2399   9.1635   C.2       1 RES1   0.0000
    67 C6       4.3196   9.0759   8.3572   C.2       1 RES1   0.0000
    68 C7      -1.1244   7.5630  10.2919   C.3       1 RES1   0.0000
    69 H1      -0.9925   8.0393  11.1267   H         1 RES1   0.0000
    70 H2      -2.0279   7.7501   9.9931   H         1 RES1   0.0000
    71 C8      -1.0145   6.0654  10.5721   C.3       1 RES1   0.0000
    72 H3      -1.2068   5.5798   9.7547   H         1 RES1   0.0000
    73 H4      -0.1011   5.8627  10.8244   H         1 RES1   0.0000
    74 C9      -1.9499   5.5692  11.6673   C.3       1 RES1   0.0000
    75 H5      -1.7861   6.0801  12.4753   H         1 RES1   0.0000
    76 H6      -2.8654   5.7339  11.3941   H         1 RES1   0.0000
    77 C10     -1.7872   4.0914  11.9800   C.3       1 RES1   0.0000
    78 H7      -2.4082   3.8402  12.6672   H         1 RES1   0.0000
    79 H8      -0.8914   3.9246  12.2835   H         1 RES1   0.0000
    80 H9      -1.9597   3.5763  11.1906   H         1 RES1   0.0000
    81 C11      4.7592  11.1995   4.1838   C.3       1 RES1   0.0000
    82 H10      5.3693  10.5072   3.8833   H         1 RES1   0.0000
    83 H11      4.2558  11.5016   3.4124   H         1 RES1   0.0000
    84 C12      5.5803  12.3767   4.7274   C.3       1 RES1   0.0000
    85 H12      4.9725  13.0343   5.0983   H         1 RES1   0.0000
    86 H13      6.1419  12.0547   5.4471   H         1 RES1   0.0000
    87 C13      6.4607  13.0598   3.6967   C.3       1 RES1   0.0000
    88 H14      6.9784  12.3841   3.2322   H         1 RES1   0.0000
    89 H15      7.0850  13.6423   4.1565   H         1 RES1   0.0000
    90 C14      5.6990  13.8834   2.6648   C.3       1 RES1   0.0000
    91 H16      6.3167  14.2461   2.0288   H         1 RES1   0.0000
    92 H17      5.2363  14.5987   3.1043   H         1 RES1   0.0000
    93 H18      5.0648  13.3214   2.2149   H         1 RES1   0.0000
    94 C15     -1.0958  12.1242  10.3942   C.ar      1 RES1   0.0000
    95 C16     -1.9905  11.2772  11.0179   C.ar      1 RES1   0.0000
    96 C17     -2.0576  11.1999  12.3963   C.ar      1 RES1   0.0000
    97 C18     -1.2277  11.9656  13.2049   C.ar      1 RES1   0.0000
    98 C19     -0.3330  12.8158  12.5777   C.ar      1 RES1   0.0000
    99 C20     -0.2649  12.8872  11.2022   C.ar      1 RES1   0.0000
   100 C21     -1.3552  11.9143  14.7158   C.3       1 RES1   0.0000
   101 C22      0.7540  13.6339   4.6489   C.ar      1 RES1   0.0000
   102 C23      1.7575  14.2045   3.8862   C.ar      1 RES1   0.0000
   103 C24      1.5915  14.4589   2.5323   C.ar      1 RES1   0.0000
   104 C25      0.3957  14.1684   1.8992   C.ar      1 RES1   0.0000
   105 C26     -0.5869  13.5351   2.6561   C.ar      1 RES1   0.0000
   106 C27     -0.4144  13.2691   3.9914   C.ar      1 RES1   0.0000
   107 C28      0.1066  14.5064   0.4540   C.3       1 RES1   0.0000
   108 C29      0.1517   4.8373   6.9399   C.ar      1 RES1   0.0000
   109 C30      1.4245   4.8409   7.4945   C.ar      1 RES1   0.0000
   110 C31      1.7663   3.9679   8.5025   C.ar      1 RES1   0.0000
   111 C32      0.8837   3.0014   8.9612   C.ar      1 RES1   0.0000
   112 C33     -0.3814   2.9833   8.4025   C.ar      1 RES1   0.0000
   113 C34     -0.7441   3.8955   7.4271   C.ar      1 RES1   0.0000
   114 C35      1.3673   2.0419  10.0245   C.3       1 RES1   0.0000
   115 C36      2.3400   8.2223   2.4329   C.ar      1 RES1   0.0000
   116 C37      3.4194   8.1354   1.5713   C.ar      1 RES1   0.0000
   117 C38      3.6502   9.1035   0.6104   C.ar      1 RES1   0.0000
   118 C39      2.8204  10.1990   0.4813   C.ar      1 RES1   0.0000
   119 C40      1.7553  10.2877   1.3655   C.ar      1 RES1   0.0000
   120 C41      1.5146   9.3351   2.3207   C.ar      1 RES1   0.0000
   121 C42      2.9830  11.2842  -0.5499   C.3       1 RES1   0.0000
   122 C43      2.9039   7.3648  11.7022   C.ar      1 RES1   0.0000
   123 C44      2.5786   6.2167  12.3928   C.ar      1 RES1   0.0000
   124 C45      1.7004   6.2315  13.4514   C.ar      1 RES1   0.0000
   125 C46      1.0892   7.4144  13.8479   C.ar      1 RES1   0.0000
   126 C47      1.3992   8.5669  13.1299   C.ar      1 RES1   0.0000
   127 C48      2.2961   8.5479  12.0957   C.ar      1 RES1   0.0000
   128 C49      0.0901   7.5094  14.9739   C.3       1 RES1   0.0000
   129 C50      6.5420   8.4788   6.9539   C.ar      1 RES1   0.0000
   130 C51      7.6499   9.0218   6.3284   C.ar      1 RES1   0.0000
   131 C52      8.1215   8.5232   5.1267   C.ar      1 RES1   0.0000
   132 C53      7.5093   7.4592   4.4954   C.ar      1 RES1   0.0000
   133 C54      6.3728   6.9419   5.1116   C.ar      1 RES1   0.0000
   134 C55      5.9188   7.4184   6.3208   C.ar      1 RES1   0.0000
   135 C56      7.9863   6.8146   3.2182   C.3       1 RES1   0.0000
   136 B1      -0.1165   8.1520   9.2234   B         1 RES1   0.0000
   137 B2       3.7579  10.5737   5.2285   B         1 RES1   0.0000
@<TRIPOS>BOND
     1     1    56    1
     2     2    62    1
     3     3    63    1
     4     4    64    1
     5     5    65    1
     6     6    66    1
     7     7    67    1
     8     8    95    1
     9     9    96    1
    10    10   100    1
    11    11   100    1
    12    12   100    1
    13    13    98    1
    14    14    99    1
    15    15   102    1
    16    16   103    1
    17    17   107    1
    18    18   107    1
    19    19   107    1
    20    20   105    1
    21    21   106    1
    22    22   109    1
    23    23   110    1
    24    24   114    1
    25    25   114    1
    26    26   114    1
    27    27   112    1
    28    28   113    1
    29    29   116    1
    30    30   117    1
    31    31   121    1
    32    32   121    1
    33    33   121    1
    34    34   119    1
    35    35   120    1
    36    36   123    1
    37    37   124    1
    38    38   128    1
    39    39   128    1
    40    40   128    1
    41    41   126    1
    42    42   127    1
    43    43   130    1
    44    44   131    1
    45    45   135    1
    46    46   135    1
    47    47   135    1
    48    48   133    1
    49    49   134    1
    50    50    56    1
    51    51    57    1
    52    52    58    1
    53    53    59    1
    54    54    60    1
    55    55    61    1
    56    56    62    2
    57    57     1    1
    58    58     1    1
    59    59     1    1
    60    60     1    1
    61    61     1    1
    62    62    63    1
    63    63    57    2
    64    64    58    2
    65    65    59    2
    66    66    60    2
    67    67    61    2
    68    68    69    1
    69    70    68    1
    70    71    68    1
    71    72    71    1
    72    73    71    1
    73    74    71    1
    74    75    74    1
    75    76    74    1
    76    77    74    1
    77    78    77    1
    78    79    77    1
    79    80    77    1
    80    81    82    1
    81    83    81    1
    82    84    81    1
    83    85    84    1
    84    86    84    1
    85    87    84    1
    86    88    87    1
    87    89    87    1
    88    90    87    1
    89    91    90    1
    90    92    90    1
    91    93    90    1
    92    94     2    1
    93    95    94   ar
    94    96    95   ar
    95    97    96   ar
    96    98    97   ar
    97    99    94   ar
    98   100    97    1
    99   101     3    1
   100   102   101   ar
   101   103   102   ar
   102   104   103   ar
   103   105   104   ar
   104   106   101   ar
   105   107   104    1
   106   108     4    1
   107   109   108   ar
   108   110   109   ar
   109   111   110   ar
   110   112   111   ar
   111   113   108   ar
   112   114   111    1
   113   115     5    1
   114   116   115   ar
   115   117   116   ar
   116   118   117   ar
   117   119   118   ar
   118   120   115   ar
   119   121   118    1
   120   122     6    1
   121   123   122   ar
   122   124   123   ar
   123   125   124   ar
   124   126   125   ar
   125   127   122   ar
   126   128   125    1
   127   129     7    1
   128   130   129   ar
   129   131   130   ar
   130   132   131   ar
   131   133   132   ar
   132   134   129   ar
   133   135   132    1
   134   136    50    1
   135   137    51    1
   136    52   136    1
   137    53   137    1
   138    54   136    1
   139    55   137    1
   140    64    65    1
   141    66    67    1
   142    68   136    1
   143    81   137    1
   144    98    99   ar
   145   105   106   ar
   146   112   113   ar
   147   119   120   ar
   148   126   127   ar
   149   133   134   ar
@<TRIPOS>SUBSTRUCTURE
     1 RES1        1 GROUP             0 ****  ****    0  
@<TRIPOS>CRYSIN
   10.9913   21.1116   58.1330   90.0000   90.0000   90.0000    61     1
