@<TRIPOS>MOLECULE
FAPCIL
   213   240     4     0     0
SMALL
USER_CHARGES
****
Generated from the CSD

@<TRIPOS>ATOM
     1 Fe1     -1.9969   2.1722   7.1197   Fe        1 RES1   1.0000
     2 Fe2     -3.0116   3.6800   9.7555   Fe        1 RES1   0.0000
     3 Fe3     -3.9385   1.7899   4.7630   Fe        1 RES1   0.0000
     4 Fe4     -4.9089   3.3931   7.2531   Fe        1 RES1   0.0000
     5 Fe5     -5.8409   4.8684   9.8142   Fe        1 RES1   0.0000
     6 C1      -4.7298  -0.1764   2.6547   C.ar      1 RES1   0.0000
     7 C2       0.3897   1.2207   5.7994   C.ar      1 RES1   0.0000
     8 C3      -1.4281   4.8984  11.9335   C.ar      1 RES1   0.0000
     9 C4      -3.5510  -0.0436   1.8803   C.ar      1 RES1   0.0000
    10 C5       0.6075   0.1263   6.6730   C.ar      1 RES1   0.0000
    11 C6      -1.0292   3.6625  12.5449   C.ar      1 RES1   0.0000
    12 C7      -3.4818  -0.7567   0.6515   C.ar      1 RES1   0.0000
    13 H1      -2.7243  -0.6736   0.1184   H         1 RES1   0.0000
    14 C8       1.3948  -0.9753   6.2199   C.ar      1 RES1   0.0000
    15 H2       1.5512  -1.6905   6.7899   H         1 RES1   0.0000
    16 C9      -0.2232   3.7069  13.6953   C.ar      1 RES1   0.0000
    17 H3       0.0554   2.9113  14.0877   H         1 RES1   0.0000
    18 C10     -4.5130  -1.5695   0.2369   C.ar      1 RES1   0.0000
    19 H4      -4.4545  -2.0275  -0.5700   H         1 RES1   0.0000
    20 C11      1.9135  -0.9913   4.9762   C.ar      1 RES1   0.0000
    21 H5       2.4291  -1.7131   4.6994   H         1 RES1   0.0000
    22 C12      0.1659   4.9124  14.2535   C.ar      1 RES1   0.0000
    23 H6       0.7026   4.9195  15.0131   H         1 RES1   0.0000
    24 C13     -5.6487  -1.6999   1.0408   C.ar      1 RES1   0.0000
    25 H7      -6.3411  -2.2559   0.7625   H         1 RES1   0.0000
    26 C14      1.6801   0.0740   4.0968   C.ar      1 RES1   0.0000
    27 H8       1.9989   0.0310   3.2247   H         1 RES1   0.0000
    28 C15     -0.2410   6.1128  13.6805   C.ar      1 RES1   0.0000
    29 H9       0.0107   6.9210  14.0640   H         1 RES1   0.0000
    30 C16     -5.7656  -1.0249   2.2342   C.ar      1 RES1   0.0000
    31 H10     -6.5271  -1.1285   2.7583   H         1 RES1   0.0000
    32 C17      0.9687   1.2060   4.5217   C.ar      1 RES1   0.0000
    33 H11      0.8810   1.9430   3.9605   H         1 RES1   0.0000
    34 C18     -1.0110   6.0984  12.5553   C.ar      1 RES1   0.0000
    35 H12     -1.2714   6.9097  12.1807   H         1 RES1   0.0000
    36 C19     -2.4334   0.7971   2.2831   C.2       1 RES1   0.0000
    37 C20     -0.0247   0.0645   7.9611   C.2       1 RES1   0.0000
    38 C21     -1.4197   2.3856  11.9749   C.2       1 RES1   0.0000
    39 C22     -1.2331   0.9563   1.4006   C.3       1 RES1   0.0000
    40 H13     -1.5059   1.3020   0.5478   H         1 RES1   0.0000
    41 H14     -0.8085   0.1030   1.2792   H         1 RES1   0.0000
    42 H15     -0.6136   1.5666   1.8093   H         1 RES1   0.0000
    43 C23      0.5028  -0.8789   9.0330   C.3       1 RES1   0.0000
    44 H16      1.4384  -0.7141   9.1722   H         1 RES1   0.0000
    45 H17      0.3758  -1.7876   8.7517   H         1 RES1   0.0000
    46 H18      0.0270  -0.7285   9.8532   H         1 RES1   0.0000
    47 C24     -0.9145   1.1087  12.5864   C.3       1 RES1   0.0000
    48 H19      0.0450   1.0997  12.5627   H         1 RES1   0.0000
    49 H20     -1.2542   0.3599  12.0904   H         1 RES1   0.0000
    50 H21     -1.2123   1.0514  13.4969   H         1 RES1   0.0000
    51 C25     -2.4297  -0.6108   5.6839   C.3       1 RES1   0.0000
    52 H22     -2.1270  -1.0592   6.4775   H         1 RES1   0.0000
    53 H23     -1.7108  -0.5648   5.0488   H         1 RES1   0.0000
    54 H24     -3.1639  -1.0976   5.3019   H         1 RES1   0.0000
    55 C26     -0.1573   3.8255   8.8287   C.3       1 RES1   0.0000
    56 H25     -0.0981   4.7548   9.0611   H         1 RES1   0.0000
    57 H26      0.4133   3.6470   8.0780   H         1 RES1   0.0000
    58 H27      0.1194   3.2899   9.5764   H         1 RES1   0.0000
    59 C27     -5.0278   2.8618  11.9705   C.3       1 RES1   0.0000
    60 H28     -4.2383   2.8057  12.5124   H         1 RES1   0.0000
    61 H29     -5.3400   1.9776  11.7662   H         1 RES1   0.0000
    62 H30     -5.7102   3.3398  12.4472   H         1 RES1   0.0000
    63 C28     -4.2347   0.9199   8.9086   C.3       1 RES1   0.0000
    64 H31     -3.5923   0.4804   9.4713   H         1 RES1   0.0000
    65 H32     -4.4497   0.3535   8.1639   H         1 RES1   0.0000
    66 H33     -5.0318   1.1014   9.4135   H         1 RES1   0.0000
    67 C29     -4.8376   6.2453  12.3791   C.3       1 RES1   0.0000
    68 H34     -4.1876   5.5427  12.4576   H         1 RES1   0.0000
    69 H35     -5.5812   6.0591  12.9565   H         1 RES1   0.0000
    70 H36     -4.4375   7.0802  12.6308   H         1 RES1   0.0000
    71 C30     -8.5213   5.3466  11.3279   C.3       1 RES1   0.0000
    72 H37     -9.0690   4.9114  11.9853   H         1 RES1   0.0000
    73 H38     -9.0681   5.6282  10.5906   H         1 RES1   0.0000
    74 H39     -8.0967   6.1125  11.7217   H         1 RES1   0.0000
    75 C31     -7.8266   3.5398   7.9359   C.3       1 RES1   0.0000
    76 H40     -8.3006   4.2804   8.3194   H         1 RES1   0.0000
    77 H41     -8.2604   2.7191   8.1802   H         1 RES1   0.0000
    78 H42     -7.8190   3.6250   6.9794   H         1 RES1   0.0000
    79 C32     -6.7094   1.3055   5.9697   C.3       1 RES1   0.0000
    80 H43     -6.6140   0.5120   5.4382   H         1 RES1   0.0000
    81 H44     -7.3637   1.8825   5.5670   H         1 RES1   0.0000
    82 H45     -6.9945   1.0651   6.8536   H         1 RES1   0.0000
    83 O1      -4.9222   0.4789   3.7962   O.3       1 RES1   0.0000
    84 O2      -0.3543   2.2723   6.1207   O.3       1 RES1   0.0000
    85 O3      -2.1586   4.9927  10.8526   O.3       1 RES1   0.0000
    86 O4      -2.4237   1.4179   3.3624   O.2       1 RES1   0.0000
    87 O5      -1.0383   0.7309   8.2883   O.2       1 RES1   0.0000
    88 O6      -2.1832   2.2675  10.9933   O.2       1 RES1   0.0000
    89 O7      -3.1935   3.2989   6.0496   O.3       1 RES1   0.0000
    90 O8      -4.1763   4.7868   8.6229   O.3       1 RES1   0.0000
    91 O9      -2.8581   0.7143   6.0185   O.3       1 RES1   0.0000
    92 O10     -1.5030   3.5064   8.4882   O.3       1 RES1   0.0000
    93 O11     -4.7326   3.5299  10.7905   O.3       1 RES1   0.0000
    94 O12     -3.6826   2.1548   8.4260   O.3       1 RES1   0.0000
    95 O13     -5.2859   6.3215  11.0466   O.3       1 RES1   0.0000
    96 O14     -7.5277   4.4396  10.8630   O.3       1 RES1   0.0000
    97 H46     -7.7083   3.6929  11.1932   H         1 RES1   0.0000
    98 O15     -6.4675   3.5308   8.4289   O.3       1 RES1   0.0000
    99 O16     -5.4641   1.9812   6.0408   O.3       1 RES1   0.0000
   100 Fe1A    -7.4535   7.6151   7.6861   Fe        1 RES1   1.0000
   101 Fe2A    -6.4388   6.1074   5.0503   Fe        1 RES1   0.0000
   102 Fe3A    -5.5119   7.9974  10.0428   Fe        1 RES1   0.0000
   103 Fe4A    -4.5415   6.3942   7.5527   Fe        1 RES1   0.0000
   104 Fe5A    -3.6095   4.9190   4.9916   Fe        1 RES1   0.0000
   105 C1A     -4.7206   9.9637  12.1511   C.ar      1 RES1   0.0000
   106 C2A     -9.8401   8.5666   9.0064   C.ar      1 RES1   0.0000
   107 C3A     -8.0223   4.8890   2.8723   C.ar      1 RES1   0.0000
   108 C4A     -5.8994   9.8310  12.9254   C.ar      1 RES1   0.0000
   109 C5A    -10.0579   9.6610   8.1328   C.ar      1 RES1   0.0000
   110 C6A     -8.4212   6.1248   2.2608   C.ar      1 RES1   0.0000
   111 C7A     -5.9686  10.5440  14.1543   C.ar      1 RES1   0.0000
   112 H1A     -6.7261  10.4609  14.6873   H         1 RES1   0.0000
   113 C8A    -10.8452  10.7626   8.5859   C.ar      1 RES1   0.0000
   114 H2A    -11.0016  11.4779   8.0158   H         1 RES1   0.0000
   115 C9A     -9.2272   6.0805   1.1104   C.ar      1 RES1   0.0000
   116 H3A     -9.5058   6.8761   0.7181   H         1 RES1   0.0000
   117 C10A    -4.9374  11.3568  14.5689   C.ar      1 RES1   0.0000
   118 H4A     -4.9959  11.8148  15.3758   H         1 RES1   0.0000
   119 C11A   -11.3639  10.7786   9.8296   C.ar      1 RES1   0.0000
   120 H5A    -11.8795  11.5004  10.1064   H         1 RES1   0.0000
   121 C12A    -9.6163   4.8749   0.5523   C.ar      1 RES1   0.0000
   122 H6A    -10.1530   4.8679  -0.2073   H         1 RES1   0.0000
   123 C13A    -3.8017  11.4872  13.7649   C.ar      1 RES1   0.0000
   124 H7A     -3.1093  12.0432  14.0433   H         1 RES1   0.0000
   125 C14A   -11.1305   9.7133  10.7090   C.ar      1 RES1   0.0000
   126 H8A    -11.4493   9.7564  11.5811   H         1 RES1   0.0000
   127 C15A    -9.2094   3.6745   1.1252   C.ar      1 RES1   0.0000
   128 H9A     -9.4611   2.8664   0.7418   H         1 RES1   0.0000
   129 C16A    -3.6848  10.8122  12.5716   C.ar      1 RES1   0.0000
   130 H10A    -2.9233  10.9158  12.0475   H         1 RES1   0.0000
   131 C17A   -10.4191   8.5813  10.2841   C.ar      1 RES1   0.0000
   132 H11A   -10.3314   7.8443  10.8452   H         1 RES1   0.0000
   133 C18A    -8.4394   3.6890   2.2505   C.ar      1 RES1   0.0000
   134 H12A    -8.1790   2.8776   2.6251   H         1 RES1   0.0000
   135 C19A    -7.0170   8.9903  12.5227   C.2       1 RES1   0.0000
   136 C20A    -9.4257   9.7228   6.8447   C.2       1 RES1   0.0000
   137 C21A    -8.0307   7.4017   2.8309   C.2       1 RES1   0.0000
   138 C22A    -8.2173   8.8310  13.4052   C.3       1 RES1   0.0000
   139 H13A    -7.9445   8.4854  14.2580   H         1 RES1   0.0000
   140 H14A    -8.6420   9.6843  13.5266   H         1 RES1   0.0000
   141 H15A    -8.8368   8.2207  12.9965   H         1 RES1   0.0000
   142 C23A    -9.9532  10.6662   5.7728   C.3       1 RES1   0.0000
   143 H16A   -10.8888  10.5014   5.6336   H         1 RES1   0.0000
   144 H17A    -9.8262  11.5749   6.0541   H         1 RES1   0.0000
   145 H18A    -9.4775  10.5158   4.9525   H         1 RES1   0.0000
   146 C24A    -8.5359   8.6786   2.2194   C.3       1 RES1   0.0000
   147 H19A    -9.4954   8.6877   2.2431   H         1 RES1   0.0000
   148 H20A    -8.1962   9.4274   2.7154   H         1 RES1   0.0000
   149 H21A    -8.2381   8.7359   1.3088   H         1 RES1   0.0000
   150 C25A    -7.0207  10.3982   9.1218   C.3       1 RES1   0.0000
   151 H22A    -7.3234  10.8465   8.3283   H         1 RES1   0.0000
   152 H23A    -7.7396  10.3521   9.7570   H         1 RES1   0.0000
   153 H24A    -6.2865  10.8850   9.5038   H         1 RES1   0.0000
   154 C26A    -9.2931   5.9618   5.9771   C.3       1 RES1   0.0000
   155 H25A    -9.3523   5.0325   5.7446   H         1 RES1   0.0000
   156 H26A    -9.8637   6.1404   6.7277   H         1 RES1   0.0000
   157 H27A    -9.5698   6.4974   5.2294   H         1 RES1   0.0000
   158 C27A    -4.4226   6.9255   2.8353   C.3       1 RES1   0.0000
   159 H28A    -5.2121   6.9816   2.2934   H         1 RES1   0.0000
   160 H29A    -4.1104   7.8098   3.0396   H         1 RES1   0.0000
   161 H30A    -3.7402   6.4475   2.3586   H         1 RES1   0.0000
   162 C28A    -5.2157   8.8675   5.8971   C.3       1 RES1   0.0000
   163 H31A    -5.8581   9.3070   5.3345   H         1 RES1   0.0000
   164 H32A    -5.0007   9.4339   6.6419   H         1 RES1   0.0000
   165 H33A    -4.4186   8.6859   5.3923   H         1 RES1   0.0000
   166 C29A    -4.6128   3.5420   2.4267   C.3       1 RES1   0.0000
   167 H34A    -5.2629   4.2447   2.3482   H         1 RES1   0.0000
   168 H35A    -3.8692   3.7282   1.8492   H         1 RES1   0.0000
   169 H36A    -5.0129   2.7072   2.1750   H         1 RES1   0.0000
   170 C30A    -0.9291   4.4408   3.4779   C.3       1 RES1   0.0000
   171 H37A    -0.3814   4.8759   2.8205   H         1 RES1   0.0000
   172 H38A    -0.3823   4.1591   4.2152   H         1 RES1   0.0000
   173 H39A    -1.3537   3.6748   3.0840   H         1 RES1   0.0000
   174 C31A    -1.6238   6.2476   6.8699   C.3       1 RES1   0.0000
   175 H40A    -1.1498   5.5070   6.4864   H         1 RES1   0.0000
   176 H41A    -1.1900   7.0683   6.6256   H         1 RES1   0.0000
   177 H42A    -1.6314   6.1624   7.8263   H         1 RES1   0.0000
   178 C32A    -2.7410   8.4819   8.8361   C.3       1 RES1   0.0000
   179 H43A    -2.8364   9.2753   9.3676   H         1 RES1   0.0000
   180 H44A    -2.0867   7.9049   9.2388   H         1 RES1   0.0000
   181 H45A    -2.4559   8.7222   7.9522   H         1 RES1   0.0000
   182 O1A     -4.5282   9.3084  11.0096   O.3       1 RES1   0.0000
   183 O2A     -9.0961   7.5150   8.6851   O.3       1 RES1   0.0000
   184 O3A     -7.2918   4.7947   3.9531   O.3       1 RES1   0.0000
   185 O4A     -7.0267   8.3694  11.4434   O.2       1 RES1   0.0000
   186 O5A     -8.4121   9.0565   6.5175   O.2       1 RES1   0.0000
   187 O6A     -7.2672   7.5198   3.8125   O.2       1 RES1   0.0000
   188 O7A     -6.2569   6.4885   8.7561   O.3       1 RES1   0.0000
   189 O8A     -5.2741   5.0005   6.1829   O.3       1 RES1   0.0000
   190 O9A     -6.5923   9.0730   8.7872   O.3       1 RES1   0.0000
   191 O10A    -7.9474   6.2809   6.3176   O.3       1 RES1   0.0000
   192 O11A    -4.7178   6.2574   4.0153   O.3       1 RES1   0.0000
   193 O12A    -5.7678   7.6325   6.3798   O.3       1 RES1   0.0000
   194 O13A    -4.1645   3.4659   3.7592   O.3       1 RES1   0.0000
   195 O14A    -1.9227   5.3477   3.9428   O.3       1 RES1   0.0000
   196 H46A    -1.7421   6.0945   3.6126   H         1 RES1   0.0000
   197 O15A    -2.9829   6.2565   6.3768   O.3       1 RES1   0.0000
   198 O16A    -3.9863   7.8061   8.7650   O.3       1 RES1   0.0000
   199 N1       2.7224   1.1196  11.0910   N.pl3     2 RES2   0.0000
   200 O17      3.1380   1.1361   9.9065   O.3       2 RES2  -1.0000
   201 O18      2.4827   2.1927  11.5929   O.2       2 RES2   0.0000
   202 O19      2.6140   0.0626  11.7188   O.2       2 RES2   0.0000
   203 C33     -4.5074  -0.9432  12.1896   C.3       3 RES3   0.0000
   204 H47     -4.2330  -0.0237  12.1629   H         3 RES3   0.0000
   205 H48     -5.1457  -1.1060  11.4908   H         3 RES3   0.0000
   206 H49     -3.7413  -1.5075  12.0608   H         3 RES3   0.0000
   207 O20     -5.0849  -1.2186  13.4170   O.3       3 RES3   0.0000
   208 H50     -5.8118  -0.8492  13.4733   H         3 RES3   0.0000
   209 O21     -7.3569   0.2712  14.0166   O.3       4 RES4   0.0000
   210 C34     -7.4211   1.4851  14.6636   C.3       4 RES4   0.0000
   211 H51     -7.5697   1.3413  15.5994   H         4 RES4   0.0000
   212 H52     -8.1360   2.0072  14.2979   H         4 RES4   0.0000
   213 H53     -6.5876   1.9529  14.5422   H         4 RES4   0.0000
@<TRIPOS>BOND
     1     1    84    1
     2     2    85    1
     3     3    83    1
     4     4    89    1
     5     5    90    1
     6     6     9   ar
     7     7    10   ar
     8     8    11   ar
     9     9    12   ar
    10    10    14   ar
    11    11    16   ar
    12    12    13    1
    13    14    15    1
    14    16    17    1
    15    18    12   ar
    16    19    18    1
    17    20    14   ar
    18    21    20    1
    19    22    16   ar
    20    23    22    1
    21    24    18   ar
    22    25    24    1
    23    26    20   ar
    24    27    26    1
    25    28    22   ar
    26    29    28    1
    27    30     6   ar
    28    31    30    1
    29    32     7   ar
    30    33    32    1
    31    34     8   ar
    32    35    34    1
    33    36     9    1
    34    37    10    1
    35    38    11    1
    36    39    36    1
    37    40    39    1
    38    41    39    1
    39    42    39    1
    40    43    37    1
    41    44    43    1
    42    45    43    1
    43    46    43    1
    44    47    38    1
    45    48    47    1
    46    49    47    1
    47    50    47    1
    48    51    52    1
    49    53    51    1
    50    54    51    1
    51    55    56    1
    52    57    55    1
    53    58    55    1
    54    59    60    1
    55    61    59    1
    56    62    59    1
    57    63    64    1
    58    65    63    1
    59    66    63    1
    60    67    68    1
    61    69    67    1
    62    70    67    1
    63    71    72    1
    64    73    71    1
    65    74    71    1
    66    75    76    1
    67    77    75    1
    68    78    75    1
    69    79    80    1
    70    81    79    1
    71    82    79    1
    72    83     6    1
    73    84     7    1
    74    85     8    1
    75    86     3    1
    76    87     1    1
    77    88     2    1
    78    89     1    1
    79    90     2    1
    80    91     1    1
    81    92     1    1
    82    93     2    1
    83    94     1    1
    84    95     5    1
    85    96     5    1
    86    97    96    1
    87    98     4    1
    88    99     3    1
    89   100   183    1
    90   101   184    1
    91   102    95    1
    92   103    90    1
    93   104    89    1
    94   105   108   ar
    95   106   109   ar
    96   107   110   ar
    97   108   111   ar
    98   109   113   ar
    99   110   115   ar
   100   111   112    1
   101   113   114    1
   102   115   116    1
   103   117   111   ar
   104   118   117    1
   105   119   113   ar
   106   120   119    1
   107   121   115   ar
   108   122   121    1
   109   123   117   ar
   110   124   123    1
   111   125   119   ar
   112   126   125    1
   113   127   121   ar
   114   128   127    1
   115   129   105   ar
   116   130   129    1
   117   131   106   ar
   118   132   131    1
   119   133   107   ar
   120   134   133    1
   121   135   108    1
   122   136   109    1
   123   137   110    1
   124   138   135    1
   125   139   138    1
   126   140   138    1
   127   141   138    1
   128   142   136    1
   129   143   142    1
   130   144   142    1
   131   145   142    1
   132   146   137    1
   133   147   146    1
   134   148   146    1
   135   149   146    1
   136   150   151    1
   137   152   150    1
   138   153   150    1
   139   154   155    1
   140   156   154    1
   141   157   154    1
   142   158   159    1
   143   160   158    1
   144   161   158    1
   145   162   163    1
   146   164   162    1
   147   165   162    1
   148   166   167    1
   149   168   166    1
   150   169   166    1
   151   170   171    1
   152   172   170    1
   153   173   170    1
   154   174   175    1
   155   176   174    1
   156   177   174    1
   157   178   179    1
   158   180   178    1
   159   181   178    1
   160   182   102    1
   161   183   106    1
   162   184   107    1
   163   185   102    1
   164   186   100    1
   165   187   101    1
   166   188     5    1
   167   189     4    1
   168   190   100    1
   169   191   100    1
   170   192   101    1
   171   193   100    1
   172   194     3    1
   173   195   104    1
   174   196   195    1
   175   197   103    1
   176   198   102    1
   177     2    92    1
   178     2    94    1
   179     3    89    1
   180     3    91    1
   181     4    90    1
   182     4    94    1
   183     4    99    1
   184     5    93    1
   185     5    98    1
   186    24    30   ar
   187    26    32   ar
   188    28    34   ar
   189    36    86    2
   190    37    87    2
   191    38    88    2
   192    51    91    1
   193    55    92    1
   194    59    93    1
   195    63    94    1
   196    67    95    1
   197    71    96    1
   198    75    98    1
   199    79    99    1
   200   100   188    1
   201   101   189    1
   202   101   191    1
   203   101   193    1
   204   102   188    1
   205   102   190    1
   206   103   188    1
   207   103   189    1
   208   103   193    1
   209   103   198    1
   210   104   189    1
   211   104   192    1
   212   104   194    1
   213   104   197    1
   214   105   182    1
   215   123   129   ar
   216   125   131   ar
   217   127   133   ar
   218   135   185    2
   219   136   186    2
   220   137   187    2
   221   150   190    1
   222   154   191    1
   223   158   192    1
   224   162   193    1
   225   166   194    1
   226   170   195    1
   227   174   197    1
   228   178   198    1
   229   199   200    1
   230   201   199    2
   231   202   199    2
   232   203   204    1
   233   205   203    1
   234   206   203    1
   235   207   203    1
   236   208   207    1
   237   209   210    1
   238   210   211    1
   239   212   210    1
   240   213   210    1
@<TRIPOS>SUBSTRUCTURE
     1 RES1        1 GROUP             0 ****  ****    0  
     2 RES2      199 GROUP             0 ****  ****    0  
     3 RES3      203 GROUP             0 ****  ****    0  
     4 RES4      209 GROUP             0 ****  ****    0  
@<TRIPOS>CRYSIN
   11.0455   13.9295   16.0391   96.0340  108.5890  108.1430     2     1
