@<TRIPOS>MOLECULE
FAPSAT
   133   143     3     0     0
SMALL
NO_CHARGES
****
Generated from the CSD

@<TRIPOS>ATOM
     1 Fe1      6.7227  13.5214  11.5683   Fe        1 RES1   0.0000
     2 P1       8.1604  13.3326   9.9024   P.3       1 RES1   0.0000
     3 N1       7.7412  11.7288   9.5481   N.3       1 RES1   0.0000
     4 P2       6.6851  11.4508  10.8596   P.3       1 RES1   0.0000
     5 C1       5.2599  10.6297  10.0122   C.ar      1 RES1   0.0000
     6 C2       4.7680   9.3619  10.3118   C.ar      1 RES1   0.0000
     7 C3       3.6785   8.8424   9.6260   C.ar      1 RES1   0.0000
     8 C4       3.0574   9.5708   8.6363   C.ar      1 RES1   0.0000
     9 C5       3.5283  10.8355   8.3316   C.ar      1 RES1   0.0000
    10 C6       4.6166  11.3595   9.0088   C.ar      1 RES1   0.0000
    11 H1       4.9187  12.2124   8.8008   H         1 RES1   0.0000
    12 H2       3.1090  11.3366   7.6651   H         1 RES1   0.0000
    13 H3       2.3204   9.2211   8.1779   H         1 RES1   0.0000
    14 H4       3.3718   7.9769   9.8345   H         1 RES1   0.0000
    15 H5       5.1778   8.8551  10.9603   H         1 RES1   0.0000
    16 C7       7.4141  10.0091  11.7382   C.ar      1 RES1   0.0000
    17 C8       8.6041   9.4186  11.3225   C.ar      1 RES1   0.0000
    18 C9       9.1680   8.3638  12.0337   C.ar      1 RES1   0.0000
    19 C10      8.5430   7.8555  13.1489   C.ar      1 RES1   0.0000
    20 C11      7.3668   8.4323  13.5826   C.ar      1 RES1   0.0000
    21 C12      6.8121   9.5041  12.8948   C.ar      1 RES1   0.0000
    22 H6       6.0267   9.8913  13.2135   H         1 RES1   0.0000
    23 H7       6.9416   8.1091  14.3557   H         1 RES1   0.0000
    24 H8       8.9231   7.1266  13.6178   H         1 RES1   0.0000
    25 H9       9.9741   7.9850  11.7475   H         1 RES1   0.0000
    26 H10      9.0355   9.7255  10.5478   H         1 RES1   0.0000
    27 H11      8.0889  11.1832   8.9947   H         1 RES1   0.0000
    28 C13      7.9160  14.2661   8.3523   C.ar      1 RES1   0.0000
    29 C14      8.2600  15.6225   8.3109   C.ar      1 RES1   0.0000
    30 C15      8.0501  16.3741   7.1634   C.ar      1 RES1   0.0000
    31 C16      7.4690  15.7856   6.0468   C.ar      1 RES1   0.0000
    32 C17      7.1046  14.4535   6.0843   C.ar      1 RES1   0.0000
    33 C18      7.3277  13.6934   7.2303   C.ar      1 RES1   0.0000
    34 H12      7.0683  12.7849   7.2395   H         1 RES1   0.0000
    35 H13      6.7038  14.0466   5.3561   H         1 RES1   0.0000
    36 H14      7.3336  16.2874   5.2591   H         1 RES1   0.0000
    37 H15      8.2683  17.2799   7.1639   H         1 RES1   0.0000
    38 H16      8.6447  16.0310   9.0588   H         1 RES1   0.0000
    39 C19      9.9954  13.2778  10.0316   C.ar      1 RES1   0.0000
    40 C20     10.5230  12.3956  10.9657   C.ar      1 RES1   0.0000
    41 C21     11.8919  12.2117  11.0829   C.ar      1 RES1   0.0000
    42 C22     12.7574  12.9498  10.2889   C.ar      1 RES1   0.0000
    43 C23     12.2526  13.8497   9.3862   C.ar      1 RES1   0.0000
    44 C24     10.8823  14.0103   9.2394   C.ar      1 RES1   0.0000
    45 H17     10.5568  14.6171   8.6052   H         1 RES1   0.0000
    46 H18     12.8364  14.3380   8.8501   H         1 RES1   0.0000
    47 H19     13.6767  12.8235  10.3571   H         1 RES1   0.0000
    48 H20     12.2124  11.5884  11.6999   H         1 RES1   0.0000
    49 H21      9.9284  11.9343  11.5174   H         1 RES1   0.0000
    50 P3       7.9488  13.9246  13.3188   P.3       1 RES1   0.0000
    51 N2       6.6474  13.8822  14.4307   N.3       1 RES1   0.0000
    52 P4       5.4148  13.5362  13.3348   P.3       1 RES1   0.0000
    53 C25      4.1403  14.8380  13.6015   C.ar      1 RES1   0.0000
    54 C26      2.8664  14.6828  13.0677   C.ar      1 RES1   0.0000
    55 C27      1.9378  15.7160  13.1231   C.ar      1 RES1   0.0000
    56 C28      2.2683  16.9120  13.7409   C.ar      1 RES1   0.0000
    57 C29      3.5245  17.0714  14.2910   C.ar      1 RES1   0.0000
    58 C30      4.4630  16.0476  14.2106   C.ar      1 RES1   0.0000
    59 H22      5.3155  16.1604  14.5546   H         1 RES1   0.0000
    60 H23      3.7551  17.8489  14.7206   H         1 RES1   0.0000
    61 H24      1.6410  17.6170  13.7706   H         1 RES1   0.0000
    62 H25      1.1104  15.6154  12.7435   H         1 RES1   0.0000
    63 H26      2.6366  13.8634  12.6629   H         1 RES1   0.0000
    64 C31      4.5293  12.0735  13.9917   C.ar      1 RES1   0.0000
    65 C32      3.7470  11.3021  13.1399   C.ar      1 RES1   0.0000
    66 C33      3.0887  10.1713  13.6048   C.ar      1 RES1   0.0000
    67 C34      3.2099   9.8042  14.9345   C.ar      1 RES1   0.0000
    68 C35      3.9808  10.5610  15.7872   C.ar      1 RES1   0.0000
    69 C36      4.6437  11.6884  15.3232   C.ar      1 RES1   0.0000
    70 H27      5.1572  12.1933  15.9088   H         1 RES1   0.0000
    71 H28      4.0579  10.3253  16.6862   H         1 RES1   0.0000
    72 H29      2.7726   9.0488  15.2432   H         1 RES1   0.0000
    73 H30      2.5794   9.6494  13.0114   H         1 RES1   0.0000
    74 H31      3.6861  11.5397  12.2439   H         1 RES1   0.0000
    75 H32      6.6267  14.0569  15.2448   H         1 RES1   0.0000
    76 C37      8.7617  15.5448  13.6341   C.ar      1 RES1   0.0000
    77 C38      9.0405  16.4103  12.5942   C.ar      1 RES1   0.0000
    78 C39      9.6077  17.6543  12.8284   C.ar      1 RES1   0.0000
    79 C40      9.8998  18.0494  14.1107   C.ar      1 RES1   0.0000
    80 C41      9.6652  17.1861  15.1608   C.ar      1 RES1   0.0000
    81 C42      9.1038  15.9431  14.9280   C.ar      1 RES1   0.0000
    82 H33      8.9466  15.3775  15.6475   H         1 RES1   0.0000
    83 H34      9.8978  17.4335  16.0255   H         1 RES1   0.0000
    84 H35     10.2695  18.8890  14.2768   H         1 RES1   0.0000
    85 H36      9.8110  18.2180  12.1025   H         1 RES1   0.0000
    86 H37      8.8174  16.1611  11.7179   H         1 RES1   0.0000
    87 C43      9.1805  12.8234  14.1304   C.ar      1 RES1   0.0000
    88 C44      8.7407  11.6210  14.6688   C.ar      1 RES1   0.0000
    89 C45      9.6488  10.7076  15.1908   C.ar      1 RES1   0.0000
    90 C46     11.0034  10.9789  15.1829   C.ar      1 RES1   0.0000
    91 C47     11.4523  12.1719  14.6612   C.ar      1 RES1   0.0000
    92 C48     10.5475  13.0896  14.1315   C.ar      1 RES1   0.0000
    93 H38     10.8455  13.9047  13.7854   H         1 RES1   0.0000
    94 H39     12.3482  12.3597  14.6630   H         1 RES1   0.0000
    95 H40     11.6063  10.3606  15.5324   H         1 RES1   0.0000
    96 H41      9.3467   9.8984  15.5308   H         1 RES1   0.0000
    97 H42      7.8299  11.4297  14.6811   H         1 RES1   0.0000
    98 C49      5.3436  14.4992  10.3752   C.2       1 RES1   0.0000
    99 C50      6.1550  15.4305  11.0831   C.2       1 RES1   0.0000
   100 H43      5.7569  15.9633  11.7985   H         1 RES1   0.0000
   101 H44      6.7973  15.9499  10.5757   H         1 RES1   0.0000
   102 H45      4.4073  14.3982  10.6152   H         1 RES1   0.0000
   103 H46      5.4572  14.4264   9.4072   H         1 RES1   0.0000
   104 C51     13.3318  14.3864   5.8825   C.ar      2 RES2   0.0000
   105 C52     14.5280  14.6476   6.5098   C.ar      2 RES2   0.0000
   106 C53     14.7760  15.9011   7.0341   C.ar      2 RES2   0.0000
   107 C54     13.8225  16.8673   6.8976   C.ar      2 RES2   0.0000
   108 C55     12.6160  16.6097   6.2682   C.ar      2 RES2   0.0000
   109 C56     12.3458  15.3465   5.7538   C.ar      2 RES2   0.0000
   110 C57     11.0444  15.0489   5.1013   C.3       2 RES2   0.0000
   111 H47     10.7631  15.8099   4.5919   H         2 RES2   0.0000
   112 H48     10.3645  14.8520   5.7554   H         2 RES2   0.0000
   113 H49     11.1189  14.2881   4.5031   H         2 RES2   0.0000
   114 H50     11.9486  17.2767   6.1679   H         2 RES2   0.0000
   115 H51     14.0004  17.7287   7.2362   H         2 RES2   0.0000
   116 H52     15.6021  16.0955   7.4729   H         2 RES2   0.0000
   117 H53     15.1811  13.9487   6.5772   H         2 RES2   0.0000
   118 H54     13.1450  13.5555   5.5188   H         2 RES2   0.0000
   119 C58      5.8186  18.7884  16.6319   C.ar      3 RES3   0.0000
   120 C59      6.3714  18.9760  15.3927   C.ar      3 RES3   0.0000
   121 C60      5.9546  19.9294  14.6318   C.ar      3 RES3   0.0000
   122 C61      4.9812  20.8329  15.1166   C.ar      3 RES3   0.0000
   123 C62      4.4183  20.7342  16.3394   C.ar      3 RES3   0.0000
   124 C63      4.8635  19.6711  17.1282   C.ar      3 RES3   0.0000
   125 C64      4.2435  19.5326  18.4841   C.3       3 RES3   0.0000
   126 H55      3.7834  21.3345  16.6385   H         3 RES3   0.0000
   127 H56      4.7114  21.5379  14.5464   H         3 RES3   0.0000
   128 H57      6.3190  19.8628  13.7509   H         3 RES3   0.0000
   129 H58      7.0682  18.3984  15.1002   H         3 RES3   0.0000
   130 H59      6.0706  18.0972  17.1792   H         3 RES3   0.0000
   131 H60      3.6207  20.2366  18.6205   H         3 RES3   0.0000
   132 H61      4.9226  19.5794  19.1481   H         3 RES3   0.0000
   133 H62      3.7967  18.6981  18.5466   H         3 RES3   0.0000
@<TRIPOS>BOND
     1     1     2    1
     2     2     3    1
     3     3     4    1
     4     4     1    1
     5     5     4    1
     6     6     5   ar
     7     7     6   ar
     8     8     7   ar
     9     9     8   ar
    10    10     5   ar
    11    11    10    1
    12    12     9    1
    13    13     8    1
    14    14     7    1
    15    15     6    1
    16    16     4    1
    17    17    16   ar
    18    18    17   ar
    19    19    18   ar
    20    20    19   ar
    21    21    16   ar
    22    22    21    1
    23    23    20    1
    24    24    19    1
    25    25    18    1
    26    26    17    1
    27    27     3    1
    28    28     2    1
    29    29    28   ar
    30    30    29   ar
    31    31    30   ar
    32    32    31   ar
    33    33    28   ar
    34    34    33    1
    35    35    32    1
    36    36    31    1
    37    37    30    1
    38    38    29    1
    39    39     2    1
    40    40    39   ar
    41    41    40   ar
    42    42    41   ar
    43    43    42   ar
    44    44    39   ar
    45    45    44    1
    46    46    43    1
    47    47    42    1
    48    48    41    1
    49    49    40    1
    50    50     1    1
    51    51    50    1
    52    52     1    1
    53    53    52    1
    54    54    53   ar
    55    55    54   ar
    56    56    55   ar
    57    57    56   ar
    58    58    53   ar
    59    59    58    1
    60    60    57    1
    61    61    56    1
    62    62    55    1
    63    63    54    1
    64    64    52    1
    65    65    64   ar
    66    66    65   ar
    67    67    66   ar
    68    68    67   ar
    69    69    64   ar
    70    70    69    1
    71    71    68    1
    72    72    67    1
    73    73    66    1
    74    74    65    1
    75    75    51    1
    76    76    50    1
    77    77    76   ar
    78    78    77   ar
    79    79    78   ar
    80    80    79   ar
    81    81    76   ar
    82    82    81    1
    83    83    80    1
    84    84    79    1
    85    85    78    1
    86    86    77    1
    87    87    50    1
    88    88    87   ar
    89    89    88   ar
    90    90    89   ar
    91    91    90   ar
    92    92    87   ar
    93    93    92    1
    94    94    91    1
    95    95    90    1
    96    96    89    1
    97    97    88    1
    98    98     1   un
    99    99     1   un
   100   100    99    1
   101   101    99    1
   102   102    98    1
   103   103    98    1
   104     9    10   ar
   105    20    21   ar
   106    32    33   ar
   107    43    44   ar
   108    51    52    1
   109    57    58   ar
   110    68    69   ar
   111    80    81   ar
   112    91    92   ar
   113    98    99    2
   114   104   105   ar
   115   105   106   ar
   116   106   107   ar
   117   107   108   ar
   118   108   109   ar
   119   109   104   ar
   120   110   109    1
   121   111   110    1
   122   112   110    1
   123   113   110    1
   124   114   108    1
   125   115   107    1
   126   116   106    1
   127   117   105    1
   128   118   104    1
   129   119   120   ar
   130   120   121   ar
   131   121   122   ar
   132   122   123   ar
   133   123   124   ar
   134   124   119   ar
   135   125   124    1
   136   126   123    1
   137   127   122    1
   138   128   121    1
   139   129   120    1
   140   130   119    1
   141   131   125    1
   142   132   125    1
   143   133   125    1
@<TRIPOS>SUBSTRUCTURE
     1 RES1        1 GROUP             0 ****  ****    0  
     2 RES2      104 GROUP             0 ****  ****    0  
     3 RES3      119 GROUP             0 ****  ****    0  
@<TRIPOS>CRYSIN
   11.2192   14.5626   17.5759   70.9580   81.7700   89.1910     2     1
