@<TRIPOS>MOLECULE
FARYUU
   115   117     7     0     0
SMALL
USER_CHARGES
****
Generated from the CSD

@<TRIPOS>ATOM
     1 Fe1     -1.9013   5.8420   7.3016   Fe        1 RES1   0.0000
     2 N1      -3.7842   5.9092   6.4843   N.ar      1 RES1   0.0000
     3 C1      -1.0164   6.0227   5.5915   C.1       1 RES1  -1.0000
     4 C2      -2.6226   5.6997   9.0918   C.1       1 RES1  -1.0000
     5 C3      -1.9588   3.8999   7.0990   C.1       1 RES1   0.0000
     6 N2      -1.9124   8.9159   7.4979   N.1       1 RES1   0.0000
     7 C4      -1.9086   7.7757   7.4392   C.1       1 RES1   0.0000
     8 C5      -0.1606   5.7707   8.0488   C.1       1 RES1   0.0000
     9 N3      -2.0458   2.7769   6.9522   N.1       1 RES1   0.0000
    10 N4      -0.4603   6.1440   4.5917   N.1       1 RES1   0.0000
    11 N5      -3.0609   5.6415  10.1486   N.1       1 RES1   0.0000
    12 C6      -4.0050   5.8189   5.1995   C.ar      1 RES1   0.0000
    13 H1      -3.2832   5.7307   4.6210   H         1 RES1   0.0000
    14 N6       0.9194   5.7187   8.4839   N.1       1 RES1   0.0000
    15 C7      -4.8972   5.9953   7.2113   C.ar      1 RES1   0.0000
    16 H2      -4.8096   6.0668   8.1351   H         1 RES1   0.0000
    17 C8      -5.3051   5.8522   4.6728   C.ar      1 RES1   0.0000
    18 H3      -5.4098   5.8046   3.7490   H         1 RES1   0.0000
    19 N7      -6.3592   5.9452   5.4050   N.ar      1 RES1   0.0000
    20 C9      -6.1562   5.9857   6.6880   C.ar      1 RES1   0.0000
    21 H4      -6.8856   6.0119   7.2613   H         1 RES1   0.0000
    22 P1      -3.6792  10.7414  14.7741   P.3       2 RES2   1.0000
    23 C10     -3.0448   9.9800  16.2599   C.ar      2 RES2   0.0000
    24 C11     -3.3660  12.4983  14.8163   C.ar      2 RES2   0.0000
    25 C12     -3.5307   9.3254  12.4004   C.ar      2 RES2   0.0000
    26 H5      -4.4408   9.1562  12.4954   H         2 RES2   0.0000
    27 C13     -2.8812  10.0620  13.3329   C.ar      2 RES2   0.0000
    28 C14     -3.8587   9.6115  17.2805   C.ar      2 RES2   0.0000
    29 H6      -4.7759   9.7426  17.2045   H         2 RES2   0.0000
    30 C15     -2.8464   8.8224  11.3021   C.ar      2 RES2   0.0000
    31 H7      -3.3111   8.3290  10.6667   H         2 RES2   0.0000
    32 C16     -5.4424  10.4387  14.7057   C.ar      2 RES2   0.0000
    33 C17     -3.2324  13.1633  16.0095   C.ar      2 RES2   0.0000
    34 H8      -3.2415  12.6914  16.8090   H         2 RES2   0.0000
    35 C18     -5.9119   9.1395  14.7593   C.ar      2 RES2   0.0000
    36 H9      -5.3077   8.4315  14.7800   H         2 RES2   0.0000
    37 C19     -3.0853  14.5364  16.0233   C.ar      2 RES2   0.0000
    38 H10     -2.9932  14.9870  16.8315   H         2 RES2   0.0000
    39 C20     -6.3385  11.4899  14.6798   C.ar      2 RES2   0.0000
    40 H11     -6.0275  12.3648  14.6367   H         2 RES2   0.0000
    41 C21     -3.2983  13.2158  13.6230   C.ar      2 RES2   0.0000
    42 H12     -3.3396  12.7700  12.8079   H         2 RES2   0.0000
    43 C22     -7.6927  11.2420  14.7178   C.ar      2 RES2   0.0000
    44 H13     -8.3028  11.9452  14.7075   H         2 RES2   0.0000
    45 C23     -1.7174   9.7140  16.3963   C.ar      2 RES2   0.0000
    46 H14     -1.1345   9.9238  15.7021   H         2 RES2   0.0000
    47 C24     -2.0260   8.8105  18.5410   C.ar      2 RES2   0.0000
    48 H15     -1.6822   8.4243  19.3147   H         2 RES2   0.0000
    49 C25     -3.0773  15.2301  14.8525   C.ar      2 RES2   0.0000
    50 H16     -3.0079  16.1574  14.8663   H         2 RES2   0.0000
    51 C26     -1.5791   9.0251  11.1381   C.ar      2 RES2   0.0000
    52 H17     -1.1308   8.6437  10.4197   H         2 RES2   0.0000
    53 C27     -3.1696  14.5769  13.6576   C.ar      2 RES2   0.0000
    54 H18     -3.1450  15.0608  12.8632   H         2 RES2   0.0000
    55 C28     -8.1285   9.9452  14.7731   C.ar      2 RES2   0.0000
    56 H19     -9.0421   9.7807  14.8076   H         2 RES2   0.0000
    57 C29     -3.3454   9.0465  18.4253   C.ar      2 RES2   0.0000
    58 H20     -3.9154   8.8272  19.1247   H         2 RES2   0.0000
    59 C30     -1.2239   9.1371  17.5412   C.ar      2 RES2   0.0000
    60 H21     -0.3113   8.9750  17.6155   H         2 RES2   0.0000
    61 C31     -7.2594   8.8820  14.7800   C.ar      2 RES2   0.0000
    62 H22     -7.5773   8.0072  14.7990   H         2 RES2   0.0000
    63 C32     -1.5874  10.3147  13.1222   C.ar      2 RES2   0.0000
    64 H23     -1.1199  10.8487  13.7232   H         2 RES2   0.0000
    65 C33     -0.9295   9.7855  12.0153   C.ar      2 RES2   0.0000
    66 H24     -0.0262   9.9691  11.8875   H         2 RES2   0.0000
    67 P2      -4.0545   0.7862  14.5526   P.3       3 RES3   1.0000
    68 C34     -3.9493  -0.9447  14.9855   C.ar      3 RES3   0.0000
    69 C35     -3.1819   1.1168  13.0065   C.ar      3 RES3   0.0000
    70 C36     -5.7749   1.2589  14.3759   C.ar      3 RES3   0.0000
    71 C37     -4.5770  -1.8942  14.1687   C.ar      3 RES3   0.0000
    72 H25     -5.0873  -1.6162  13.4434   H         3 RES3   0.0000
    73 C38     -3.3259   1.7752  15.8541   C.ar      3 RES3   0.0000
    74 C39     -3.0629   0.1540  12.0240   C.ar      3 RES3   0.0000
    75 H26     -3.3687  -0.7104  12.1811   H         3 RES3   0.0000
    76 C40     -6.7872   0.4720  14.9112   C.ar      3 RES3   0.0000
    77 H27     -6.5897  -0.3480  15.3067   H         3 RES3   0.0000
    78 C41     -4.4394  -3.2348  14.4398   C.ar      3 RES3   0.0000
    79 H28     -4.8406  -3.8641  13.8838   H         3 RES3   0.0000
    80 C42     -8.0978   0.9249  14.8473   C.ar      3 RES3   0.0000
    81 H29     -8.7888   0.4076  15.1927   H         3 RES3   0.0000
    82 C43     -3.2340  -1.3807  16.0907   C.ar      3 RES3   0.0000
    83 H30     -2.8262  -0.7652  16.6553   H         3 RES3   0.0000
    84 C44     -2.1884   3.1848  17.9280   C.ar      3 RES3   0.0000
    85 H31     -1.8069   3.6663  18.6274   H         3 RES3   0.0000
    86 C45     -4.1271   2.4873  16.7330   C.ar      3 RES3   0.0000
    87 H32     -5.0504   2.4887  16.6260   H         3 RES3   0.0000
    88 C46     -2.7036   2.3933  12.7648   C.ar      3 RES3   0.0000
    89 H33     -2.7808   3.0536  13.4158   H         3 RES3   0.0000
    90 C47     -3.7090  -3.6472  15.5260   C.ar      3 RES3   0.0000
    91 H34     -3.6116  -4.5554  15.6987   H         3 RES3   0.0000
    92 C48     -2.4947   0.4672  10.8169   C.ar      3 RES3   0.0000
    93 H35     -2.4363  -0.1788  10.1503   H         3 RES3   0.0000
    94 C49     -3.5474   3.1943  17.7622   C.ar      3 RES3   0.0000
    95 H36     -4.0818   3.6782  18.3476   H         3 RES3   0.0000
    96 C50     -1.3808   2.4720  17.0750   C.ar      3 RES3   0.0000
    97 H37     -0.4616   2.4577  17.2079   H         3 RES3   0.0000
    98 C51     -6.0862   2.4601  13.7888   C.ar      3 RES3   0.0000
    99 H38     -5.4111   2.9798  13.4141   H         3 RES3   0.0000
   100 C52     -3.1274  -2.7366  16.3514   C.ar      3 RES3   0.0000
   101 H39     -2.6525  -3.0274  17.0974   H         3 RES3   0.0000
   102 C53     -1.9432   1.7783  16.0199   C.ar      3 RES3   0.0000
   103 H40     -1.4003   1.3135  15.4241   H         3 RES3   0.0000
   104 C54     -8.3662   2.1407  14.2706   C.ar      3 RES3   0.0000
   105 H41     -9.2438   2.4482  14.2360   H         3 RES3   0.0000
   106 C55     -2.0134   1.7259  10.5907   C.ar      3 RES3   0.0000
   107 H42     -1.6172   1.9309   9.7739   H         3 RES3   0.0000
   108 C56     -2.1119   2.6794  11.5543   C.ar      3 RES3   0.0000
   109 H43     -1.7775   3.5328  11.3937   H         3 RES3   0.0000
   110 C57     -7.3714   2.8987  13.7491   C.ar      3 RES3   0.0000
   111 H44     -7.5695   3.7211  13.3640   H         3 RES3   0.0000
   112 O1      -7.9275   5.9500  11.0569   O.3       4 RES4   0.0000
   113 O2       3.8570   5.5352   8.4373   O.3       5 RES5   0.0000
   114 O3      -5.1933   5.8641  12.0568   O.3       6 RES6   0.0000
   115 O4      -2.0680  11.6449   7.3304   O.3       7 RES7   0.0000
@<TRIPOS>BOND
     1     1     2    1
     2     2    12   ar
     3     3     1    1
     4     4     1    1
     5     5     1    1
     6     6     7    3
     7     7     1    1
     8     8     1    1
     9     9     5    3
    10    10     3    3
    11    11     4    3
    12    12    13    1
    13    14     8    3
    14    15     2   ar
    15    16    15    1
    16    17    12   ar
    17    18    17    1
    18    19    17   ar
    19    20    15   ar
    20    21    20    1
    21    19    20   ar
    22    22    23    1
    23    23    28   ar
    24    24    22    1
    25    25    26    1
    26    27    22    1
    27    28    29    1
    28    30    25   ar
    29    31    30    1
    30    32    22    1
    31    33    24   ar
    32    34    33    1
    33    35    32   ar
    34    36    35    1
    35    37    33   ar
    36    38    37    1
    37    39    32   ar
    38    40    39    1
    39    41    24   ar
    40    42    41    1
    41    43    39   ar
    42    44    43    1
    43    45    23   ar
    44    46    45    1
    45    47    48    1
    46    49    37   ar
    47    50    49    1
    48    51    30   ar
    49    52    51    1
    50    53    41   ar
    51    54    53    1
    52    55    43   ar
    53    56    55    1
    54    57    28   ar
    55    58    57    1
    56    59    45   ar
    57    60    59    1
    58    61    35   ar
    59    62    61    1
    60    63    27   ar
    61    64    63    1
    62    65    51   ar
    63    66    65    1
    64    25    27   ar
    65    47    57   ar
    66    47    59   ar
    67    49    53   ar
    68    55    61   ar
    69    63    65   ar
    70    67    68    1
    71    68    71   ar
    72    69    67    1
    73    70    67    1
    74    71    72    1
    75    73    67    1
    76    74    69   ar
    77    75    74    1
    78    76    70   ar
    79    77    76    1
    80    78    71   ar
    81    79    78    1
    82    80    76   ar
    83    81    80    1
    84    82    68   ar
    85    83    82    1
    86    84    85    1
    87    86    73   ar
    88    87    86    1
    89    88    69   ar
    90    89    88    1
    91    90    78   ar
    92    91    90    1
    93    92    74   ar
    94    93    92    1
    95    94    84   ar
    96    95    94    1
    97    96    84   ar
    98    97    96    1
    99    98    70   ar
   100    99    98    1
   101   100    82   ar
   102   101   100    1
   103   102    73   ar
   104   103   102    1
   105   104    80   ar
   106   105   104    1
   107   106    92   ar
   108   107   106    1
   109   108    88   ar
   110   109   108    1
   111   110    98   ar
   112   111   110    1
   113    86    94   ar
   114    90   100   ar
   115    96   102   ar
   116   104   110   ar
   117   106   108   ar
@<TRIPOS>SUBSTRUCTURE
     1 RES1        1 GROUP             0 ****  ****    0  
     2 RES2       22 GROUP             0 ****  ****    0  
     3 RES3       67 GROUP             0 ****  ****    0  
     4 RES4      112 GROUP             0 ****  ****    0  
     5 RES5      113 GROUP             0 ****  ****    0  
     6 RES6      114 GROUP             0 ****  ****    0  
     7 RES7      115 GROUP             0 ****  ****    0  
@<TRIPOS>CRYSIN
   13.1607   23.8380   18.0926   90.0000  107.3610   90.0000   231     1
