@<TRIPOS>MOLECULE
FARZAB
   124   128     6     0     0
SMALL
USER_CHARGES
****
Generated from the CSD

@<TRIPOS>ATOM
     1 Fe1      8.9731   3.4526   7.7852   Fe        1 RES1   0.0000
     2 N1       9.5163   2.9509   9.6886   N.ar      1 RES1   0.0000
     3 C1      10.2270   2.1562   7.0603   C.1       1 RES1  -1.0000
     4 C2       9.7091   3.9037  10.6143   C.ar      1 RES1   0.0000
     5 H1       9.5497   4.7894  10.3770   H         1 RES1   0.0000
     6 C3       7.7131   4.7463   8.5033   C.1       1 RES1  -1.0000
     7 C4      10.3765   4.7967   7.6703   C.1       1 RES1   0.0000
     8 N2      11.2299   5.5543   7.5497   N.1       1 RES1   0.0000
     9 N3      10.9798   1.3919   6.6570   N.1       1 RES1   0.0000
    10 N4       7.0014   5.5073   8.9664   N.1       1 RES1   0.0000
    11 C5       8.4670   4.0357   6.0391   C.1       1 RES1   0.0000
    12 C6      10.3839   2.3333  12.2826   C.ar      1 RES1   0.0000
    13 C7       7.6204   2.0533   7.7213   C.1       1 RES1   0.0000
    14 C8      10.1619   1.3541  11.3337   C.ar      1 RES1   0.0000
    15 H2      10.3058   0.4620  11.5491   H         1 RES1   0.0000
    16 C9      10.8814   2.0132  13.6451   C.ar      1 RES1   0.0000
    17 C10     10.1307   3.6395  11.8933   C.ar      1 RES1   0.0000
    18 H3      10.2447   4.3362  12.4993   H         1 RES1   0.0000
    19 C11      9.7310   1.6900  10.0757   C.ar      1 RES1   0.0000
    20 H4       9.5823   1.0076   9.4626   H         1 RES1   0.0000
    21 C12     10.6801   2.8679  14.7143   C.ar      1 RES1   0.0000
    22 H5      10.2257   3.6696  14.5930   H         1 RES1   0.0000
    23 C13     11.5656   0.8433  13.9121   C.ar      1 RES1   0.0000
    24 H6      11.7232   0.2288  13.2330   H         1 RES1   0.0000
    25 N5      11.8275   1.4102  16.2166   N.ar      1 RES1   0.0000
    26 N6       6.8614   1.1942   7.6875   N.1       1 RES1   0.0000
    27 N7       8.1810   4.4394   5.0094   N.1       1 RES1   0.0000
    28 C14     12.0103   0.5922  15.1880   C.ar      1 RES1   0.0000
    29 H7      12.4681  -0.2024  15.3410   H         1 RES1   0.0000
    30 C15     11.1582   2.5260  15.9569   C.ar      1 RES1   0.0000
    31 H8      11.0017   3.1130  16.6598   H         1 RES1   0.0000
    32 P1       2.7333   1.4729   2.8601   P.3       2 RES2   1.0000
    33 C16      4.0236   2.5751   2.3034   C.ar      2 RES2   0.0000
    34 C17      1.2179   2.0805   2.1261   C.ar      2 RES2   0.0000
    35 C18      0.3238   1.2861   1.4466   C.ar      2 RES2   0.0000
    36 H9       0.4880   0.3762   1.3439   H         2 RES2   0.0000
    37 C19      2.5660   1.4348   4.6465   C.ar      2 RES2   0.0000
    38 C20      4.8682   3.2540   3.1591   C.ar      2 RES2   0.0000
    39 H10      4.7910   3.1372   4.0782   H         2 RES2   0.0000
    40 C21      3.0866  -0.2050   2.3377   C.ar      2 RES2   0.0000
    41 C22      0.9618   3.4329   2.2660   C.ar      2 RES2   0.0000
    42 H11      1.5577   3.9754   2.7307   H         2 RES2   0.0000
    43 C23      4.1413   2.7931   0.9285   C.ar      2 RES2   0.0000
    44 H12      3.5645   2.3584   0.3418   H         2 RES2   0.0000
    45 C24      1.3747   1.7954   5.2474   C.ar      2 RES2   0.0000
    46 H13      0.6722   2.1318   4.7385   H         2 RES2   0.0000
    47 C25     -0.8241   1.8537   0.9155   C.ar      2 RES2   0.0000
    48 H14     -1.4353   1.3200   0.4617   H         2 RES2   0.0000
    49 C26      5.9476   4.2948   1.3009   C.ar      2 RES2   0.0000
    50 H15      6.6022   4.8642   0.9663   H         2 RES2   0.0000
    51 C27      2.2120  -1.2122   2.6901   C.ar      2 RES2   0.0000
    52 H16      1.4494  -1.0076   3.1834   H         2 RES2   0.0000
    53 C28      3.6151   0.9502   5.4117   C.ar      2 RES2   0.0000
    54 H17      4.4188   0.7128   5.0069   H         2 RES2   0.0000
    55 C29      4.2249  -0.5148   1.6286   C.ar      2 RES2   0.0000
    56 H18      4.8307   0.1496   1.3886   H         2 RES2   0.0000
    57 C30      5.8326   4.1096   2.6484   C.ar      2 RES2   0.0000
    58 H19      6.4027   4.5606   3.2282   H         2 RES2   0.0000
    59 C31     -1.0651   3.1849   1.0511   C.ar      2 RES2   0.0000
    60 H20     -1.8349   3.5596   0.6889   H         2 RES2   0.0000
    61 C32      2.4522  -2.5065   2.3209   C.ar      2 RES2   0.0000
    62 H21      1.8487  -3.1724   2.5571   H         2 RES2   0.0000
    63 C33      3.5578  -2.8237   1.6195   C.ar      2 RES2   0.0000
    64 H22      3.7111  -3.7070   1.3689   H         2 RES2   0.0000
    65 C34      2.2697   1.1596   7.3654   C.ar      2 RES2   0.0000
    66 H23      2.1624   1.0538   8.2816   H         2 RES2   0.0000
    67 C35      5.0980   3.6419   0.4372   C.ar      2 RES2   0.0000
    68 H24      5.1732   3.7774  -0.4796   H         2 RES2   0.0000
    69 C36     -0.1739   3.9706   1.7197   C.ar      2 RES2   0.0000
    70 H25     -0.3377   4.8818   1.8038   H         2 RES2   0.0000
    71 C37      3.4626   0.8217   6.7802   C.ar      2 RES2   0.0000
    72 H26      4.1665   0.5082   7.3010   H         2 RES2   0.0000
    73 C38      4.4526  -1.8502   1.2759   C.ar      2 RES2   0.0000
    74 H27      5.2212  -2.0768   0.8035   H         2 RES2   0.0000
    75 C39      1.2438   1.6491   6.6192   C.ar      2 RES2   0.0000
    76 H28      0.4479   1.8876   7.0326   H         2 RES2   0.0000
    77 P2       4.1628   8.1261   3.8659   P.3       3 RES3   1.0000
    78 C40      4.0430   9.6107   4.8621   C.ar      3 RES3   0.0000
    79 C41      5.7801   8.1158   3.1020   C.ar      3 RES3   0.0000
    80 C42      3.8730   6.7076   4.9208   C.ar      3 RES3   0.0000
    81 C43      1.2909   7.9765   0.3506   C.ar      3 RES3   0.0000
    82 H29      0.7369   7.9420  -0.3955   H         3 RES3   0.0000
    83 C44      2.2611   9.2176   2.1434   C.ar      3 RES3   0.0000
    84 H30      2.3559  10.0144   2.6126   H         3 RES3   0.0000
    85 C45      2.9484   8.0850   2.5500   C.ar      3 RES3   0.0000
    86 C46      4.8976   6.0273   5.5482   C.ar      3 RES3   0.0000
    87 H31      5.7813   6.2612   5.3791   H         3 RES3   0.0000
    88 C47      1.4323   9.1564   1.0381   C.ar      3 RES3   0.0000
    89 H32      0.9719   9.9154   0.7605   H         3 RES3   0.0000
    90 C48      4.3199  10.8427   4.2836   C.ar      3 RES3   0.0000
    91 H33      4.5805  10.8900   3.3928   H         3 RES3   0.0000
    92 C49      3.6987   9.5480   6.1910   C.ar      3 RES3   0.0000
    93 H34      3.5144   8.7274   6.5888   H         3 RES3   0.0000
    94 C50      2.7935   6.9003   1.8494   C.ar      3 RES3   0.0000
    95 H35      3.2545   6.1380   2.1187   H         3 RES3   0.0000
    96 C51      1.9570   6.8490   0.7525   C.ar      3 RES3   0.0000
    97 H36      1.8455   6.0522   0.2881   H         3 RES3   0.0000
    98 C52      8.1517   8.2148   3.2622   C.ar      3 RES3   0.0000
    99 H37      8.9205   8.2302   3.7865   H         3 RES3   0.0000
   100 C53      8.2597   8.2005   1.9093   C.ar      3 RES3   0.0000
   101 H38      9.0978   8.2214   1.5067   H         3 RES3   0.0000
   102 C54      6.9153   8.2038   3.8645   C.ar      3 RES3   0.0000
   103 H39      6.8491   8.2566   4.7904   H         3 RES3   0.0000
   104 C55      2.5641   6.3329   5.1667   C.ar      3 RES3   0.0000
   105 H40      1.8663   6.7804   4.7456   H         3 RES3   0.0000
   106 C56      5.9057   8.1079   1.7290   C.ar      3 RES3   0.0000
   107 H41      5.1467   8.0696   1.1936   H         3 RES3   0.0000
   108 C57      3.3235   4.6473   6.6639   C.ar      3 RES3   0.0000
   109 H42      3.1385   3.9578   7.2616   H         3 RES3   0.0000
   110 C58      2.2898   5.2945   6.0394   C.ar      3 RES3   0.0000
   111 H43      1.4114   5.0380   6.1987   H         3 RES3   0.0000
   112 C59      4.2094  11.9913   5.0266   C.ar      3 RES3   0.0000
   113 H44      4.3665  12.8172   4.6311   H         3 RES3   0.0000
   114 C60      7.1478   8.1576   1.1542   C.ar      3 RES3   0.0000
   115 H45      7.2228   8.1598   0.2273   H         3 RES3   0.0000
   116 C61      4.6141   5.0004   6.4241   C.ar      3 RES3   0.0000
   117 H46      5.3064   4.5496   6.8500   H         3 RES3   0.0000
   118 C62      3.8690  11.9205   6.3454   C.ar      3 RES3   0.0000
   119 H47      3.8005  12.7006   6.8465   H         3 RES3   0.0000
   120 C63      3.6289  10.7140   6.9341   C.ar      3 RES3   0.0000
   121 H48      3.4178  10.6744   7.8396   H         3 RES3   0.0000
   122 O1      11.6499   2.6446   4.0062   O.3       4 RES4   0.0000
   123 O2      -0.9517   4.7087   5.2771   O.3       5 RES5   0.0000
   124 O3       9.6800   4.0744   2.5392   O.3       6 RES6   0.0000
@<TRIPOS>BOND
     1     1     2    1
     2     2     4   ar
     3     3     1    1
     4     4     5    1
     5     6     1    1
     6     7     1    1
     7     8     7    3
     8     9     3    3
     9    10     6    3
    10    11     1    1
    11    12    14   ar
    12    13     1    1
    13    14    15    1
    14    16    12    1
    15    17     4   ar
    16    18    17    1
    17    19     2   ar
    18    20    19    1
    19    21    16   ar
    20    22    21    1
    21    23    16   ar
    22    24    23    1
    23    25    28   ar
    24    26    13    3
    25    27    11    3
    26    28    23   ar
    27    29    28    1
    28    30    21   ar
    29    31    30    1
    30    12    17   ar
    31    14    19   ar
    32    25    30   ar
    33    32    33    1
    34    33    38   ar
    35    34    32    1
    36    35    34   ar
    37    36    35    1
    38    37    32    1
    39    38    39    1
    40    40    32    1
    41    41    34   ar
    42    42    41    1
    43    43    33   ar
    44    44    43    1
    45    45    37   ar
    46    46    45    1
    47    47    35   ar
    48    48    47    1
    49    49    50    1
    50    51    40   ar
    51    52    51    1
    52    53    37   ar
    53    54    53    1
    54    55    40   ar
    55    56    55    1
    56    57    38   ar
    57    58    57    1
    58    59    47   ar
    59    60    59    1
    60    61    51   ar
    61    62    61    1
    62    63    61   ar
    63    64    63    1
    64    65    66    1
    65    67    43   ar
    66    68    67    1
    67    69    41   ar
    68    70    69    1
    69    71    53   ar
    70    72    71    1
    71    73    55   ar
    72    74    73    1
    73    75    45   ar
    74    76    75    1
    75    49    57   ar
    76    49    67   ar
    77    59    69   ar
    78    63    73   ar
    79    65    71   ar
    80    65    75   ar
    81    77    78    1
    82    78    90   ar
    83    79    77    1
    84    80    77    1
    85    81    82    1
    86    83    84    1
    87    85    77    1
    88    86    80   ar
    89    87    86    1
    90    88    81   ar
    91    89    88    1
    92    90    91    1
    93    92    78   ar
    94    93    92    1
    95    94    85   ar
    96    95    94    1
    97    96    81   ar
    98    97    96    1
    99    98    99    1
   100   100    98   ar
   101   101   100    1
   102   102    79   ar
   103   103   102    1
   104   104    80   ar
   105   105   104    1
   106   106    79   ar
   107   107   106    1
   108   108   109    1
   109   110   104   ar
   110   111   110    1
   111   112    90   ar
   112   113   112    1
   113   114   100   ar
   114   115   114    1
   115   116    86   ar
   116   117   116    1
   117   118   112   ar
   118   119   118    1
   119   120    92   ar
   120   121   120    1
   121    83    85   ar
   122    83    88   ar
   123    94    96   ar
   124    98   102   ar
   125   106   114   ar
   126   108   110   ar
   127   108   116   ar
   128   118   120   ar
@<TRIPOS>SUBSTRUCTURE
     1 RES1        1 GROUP             0 ****  ****    0  
     2 RES2       32 GROUP             0 ****  ****    0  
     3 RES3       77 GROUP             0 ****  ****    0  
     4 RES4      122 GROUP             0 ****  ****    0  
     5 RES5      123 GROUP             0 ****  ****    0  
     6 RES6      124 GROUP             0 ****  ****    0  
@<TRIPOS>CRYSIN
   14.0040   22.0000   18.4390   90.0000  103.9580   90.0000    14     1
