@<TRIPOS>MOLECULE
FEFCEB
   107   116     3     0     0
SMALL
USER_CHARGES
****
Generated from the CSD

@<TRIPOS>ATOM
     1 Fe1     13.2724   8.2131  13.5656   Fe        1 RES1   2.0000
     2 N1      14.9601   8.5842  12.3735   N.ar      1 RES1   0.0000
     3 C1      16.1455   7.9909  12.6085   C.ar      1 RES1   0.0000
     4 N2      17.2866   8.2935  12.0277   N.ar      1 RES1   0.0000
     5 C2      17.1607   9.2241  11.0659   C.ar      1 RES1   0.0000
     6 N3      16.0398   9.8879  10.7355   N.ar      1 RES1   0.0000
     7 C3      14.9861   9.5158  11.4302   C.ar      1 RES1   0.0000
     8 N4      16.0653   6.9967  13.5723   N.pl3     1 RES1   0.0000
     9 N5      14.8037   6.7378  14.0962   N.2       1 RES1   0.0000
    10 C4      14.9737   5.7545  14.9593   C.2       1 RES1   0.0000
    11 C5      16.3380   5.3815  15.0264   C.2       1 RES1   0.0000
    12 H1      16.7119   4.7088  15.5842   H         1 RES1   0.0000
    13 C6      17.0159   6.1633  14.1468   C.2       1 RES1   0.0000
    14 C7      13.8253   5.1622  15.6994   C.3       1 RES1   0.0000
    15 H2      13.0191   5.6950  15.5336   H         1 RES1   0.0000
    16 H3      14.0223   5.1592  16.6586   H         1 RES1   0.0000
    17 H4      13.6789   4.2435  15.3925   H         1 RES1   0.0000
    18 C8      18.4557   6.1772  13.8118   C.3       1 RES1   0.0000
    19 H5      18.9324   5.5412  14.3868   H         1 RES1   0.0000
    20 H6      18.8164   7.0771  13.9527   H         1 RES1   0.0000
    21 H7      18.5742   5.9202  12.8729   H         1 RES1   0.0000
    22 N6      13.7602  10.1131  11.1880   N.pl3     1 RES1   0.0000
    23 N7      12.6819   9.6180  11.9012   N.2       1 RES1   0.0000
    24 C9      11.6307  10.2669  11.4199   C.2       1 RES1   0.0000
    25 C10     12.0183  11.1926  10.4266   C.2       1 RES1   0.0000
    26 H8      11.4445  11.7809   9.9481   H         1 RES1   0.0000
    27 C11     13.3712  11.0834  10.2822   C.2       1 RES1   0.0000
    28 C12     10.2381   9.9712  11.8614   C.3       1 RES1   0.0000
    29 H9      10.0388   9.0257  11.7008   H         1 RES1   0.0000
    30 H10      9.6088  10.5278  11.3553   H         1 RES1   0.0000
    31 H11     10.1488  10.1667  12.8186   H         1 RES1   0.0000
    32 C13     14.2665  11.8404   9.3737   C.3       1 RES1   0.0000
    33 H12     13.7358  12.2552   8.6621   H         1 RES1   0.0000
    34 H13     14.9236  11.2293   8.9768   H         1 RES1   0.0000
    35 H14     14.7336  12.5369   9.8812   H         1 RES1   0.0000
    36 N8      18.2780   9.5525  10.3356   N.pl3     1 RES1   0.0000
    37 N9      18.1332  10.5288   9.3547   N.2       1 RES1   0.0000
    38 C14     19.3097  10.5814   8.7797   C.2       1 RES1   0.0000
    39 C15     20.2270   9.6686   9.3513   C.2       1 RES1   0.0000
    40 H15     21.1312   9.5376   9.0944   H         1 RES1   0.0000
    41 C16     19.5616   9.0177  10.3390   C.2       1 RES1   0.0000
    42 C17     19.5531  11.5091   7.6311   C.3       1 RES1   0.0000
    43 H16     19.6585  10.9882   6.8081   H         1 RES1   0.0000
    44 H17     20.3678  12.0260   7.7975   H         1 RES1   0.0000
    45 H18     18.7932  12.1192   7.5371   H         1 RES1   0.0000
    46 C18     20.0577   7.9343  11.2287   C.3       1 RES1   0.0000
    47 H19     20.9680   7.6873  10.9665   H         1 RES1   0.0000
    48 H20     19.4708   7.1525  11.1492   H         1 RES1   0.0000
    49 H21     20.0594   8.2488  12.1566   H         1 RES1   0.0000
    50 N1A     11.5847   8.5842  14.7578   N.ar      1 RES1   0.0000
    51 C1A     10.3993   7.9909  14.5228   C.ar      1 RES1   0.0000
    52 N2A      9.2581   8.2935  15.1036   N.ar      1 RES1   0.0000
    53 C2A      9.3840   9.2241  16.0653   C.ar      1 RES1   0.0000
    54 N3A     10.5050   9.8879  16.3958   N.ar      1 RES1   0.0000
    55 C3A     11.5587   9.5158  15.7011   C.ar      1 RES1   0.0000
    56 N4A     10.4794   6.9967  13.5590   N.pl3     1 RES1   0.0000
    57 N5A     11.7411   6.7378  13.0351   N.2       1 RES1   0.0000
    58 C4A     11.5710   5.7545  12.1720   C.2       1 RES1   0.0000
    59 C5A     10.2067   5.3815  12.1049   C.2       1 RES1   0.0000
    60 H1A      9.8328   4.7088  11.5471   H         1 RES1   0.0000
    61 C6A      9.5289   6.1633  12.9845   C.2       1 RES1   0.0000
    62 C7A     12.7195   5.1622  11.4319   C.3       1 RES1   0.0000
    63 H2A     13.5257   5.6950  11.5977   H         1 RES1   0.0000
    64 H3A     12.5224   5.1592  10.4727   H         1 RES1   0.0000
    65 H4A     12.8659   4.2435  11.7388   H         1 RES1   0.0000
    66 C8A      8.0891   6.1772  13.3195   C.3       1 RES1   0.0000
    67 H5A      7.6124   5.5412  12.7445   H         1 RES1   0.0000
    68 H6A      7.7284   7.0771  13.1786   H         1 RES1   0.0000
    69 H7A      7.9706   5.9202  14.2584   H         1 RES1   0.0000
    70 N6A     12.7846  10.1131  15.9432   N.pl3     1 RES1   0.0000
    71 N7A     13.8628   9.6180  15.2301   N.2       1 RES1   0.0000
    72 C9A     14.9141  10.2669  15.7114   C.2       1 RES1   0.0000
    73 C10A    14.5265  11.1926  16.7047   C.2       1 RES1   0.0000
    74 H8A     15.1002  11.7809  17.1831   H         1 RES1   0.0000
    75 C11A    13.1736  11.0834  16.8491   C.2       1 RES1   0.0000
    76 C12A    16.3067   9.9712  15.2698   C.3       1 RES1   0.0000
    77 H9A     16.5060   9.0257  15.4305   H         1 RES1   0.0000
    78 H10A    16.9360  10.5278  15.7759   H         1 RES1   0.0000
    79 H11A    16.3960  10.1667  14.3127   H         1 RES1   0.0000
    80 C13A    12.2783  11.8404  17.7576   C.3       1 RES1   0.0000
    81 H12A    12.8090  12.2552  18.4692   H         1 RES1   0.0000
    82 H13A    11.6212  11.2293  18.1544   H         1 RES1   0.0000
    83 H14A    11.8111  12.5369  17.2501   H         1 RES1   0.0000
    84 N8A      8.2668   9.5525  16.7957   N.pl3     1 RES1   0.0000
    85 N9A      8.4115  10.5288  17.7766   N.2       1 RES1   0.0000
    86 C14A     7.2351  10.5814  18.3516   C.2       1 RES1   0.0000
    87 C15A     6.3178   9.6686  17.7800   C.2       1 RES1   0.0000
    88 H15A     5.4136   9.5376  18.0369   H         1 RES1   0.0000
    89 C16A     6.9831   9.0177  16.7923   C.2       1 RES1   0.0000
    90 C17A     6.9916  11.5091  19.5002   C.3       1 RES1   0.0000
    91 H16A     6.8863  10.9882  20.3231   H         1 RES1   0.0000
    92 H17A     6.1769  12.0260  19.3338   H         1 RES1   0.0000
    93 H18A     7.7516  12.1192  19.5942   H         1 RES1   0.0000
    94 C18A     6.4871   7.9343  15.9026   C.3       1 RES1   0.0000
    95 H19A     5.5767   7.6873  16.1648   H         1 RES1   0.0000
    96 H20A     7.0739   7.1525  15.9821   H         1 RES1   0.0000
    97 H21A     6.4854   8.2488  14.9747   H         1 RES1   0.0000
    98 B1      16.5755   5.8379   9.7058   B         2 RES2  -1.0000
    99 F1      15.5221   6.5919  10.2196   F         2 RES2   0.0000
   100 F2      17.5322   5.6186  10.7015   F         2 RES2   0.0000
   101 F3      16.1263   4.6264   9.2398   F         2 RES2   0.0000
   102 F4      17.1609   6.5572   8.6661   F         2 RES2   0.0000
   103 C19     16.8447   2.8991  12.0119   C.3       3 RES3   0.0000
   104 H22     16.7640   2.4923  11.1130   H         3 RES3   0.0000
   105 H23     16.9984   3.8704  11.8944   H         3 RES3   0.0000
   106 Cl1     15.3352   2.6423  12.9159   Cl        3 RES3   0.0000
   107 Cl2     18.2249   2.1827  12.8590   Cl        3 RES3   0.0000
@<TRIPOS>BOND
     1     1     2    1
     2     2     3   ar
     3     3     4   ar
     4     4     5   ar
     5     5     6   ar
     6     6     7   ar
     7     7     2   ar
     8     8     3    1
     9     9     1    1
    10    10     9    2
    11    11    10    1
    12    12    11    1
    13    13     8    1
    14    14    10    1
    15    15    14    1
    16    16    14    1
    17    17    14    1
    18    18    13    1
    19    19    18    1
    20    20    18    1
    21    21    18    1
    22    22     7    1
    23    23     1    1
    24    24    23    2
    25    25    24    1
    26    26    25    1
    27    27    22    1
    28    28    24    1
    29    29    28    1
    30    30    28    1
    31    31    28    1
    32    32    27    1
    33    33    32    1
    34    34    32    1
    35    35    32    1
    36    36     5    1
    37    37    36    1
    38    38    37    2
    39    39    38    1
    40    40    39    1
    41    41    36    1
    42    42    38    1
    43    43    42    1
    44    44    42    1
    45    45    42    1
    46    46    41    1
    47    47    46    1
    48    48    46    1
    49    49    46    1
    50    50     1    1
    51    51    50   ar
    52    52    51   ar
    53    53    52   ar
    54    54    53   ar
    55    55    50   ar
    56    56    51    1
    57    57     1    1
    58    58    57    2
    59    59    58    1
    60    60    59    1
    61    61    56    1
    62    62    58    1
    63    63    62    1
    64    64    62    1
    65    65    62    1
    66    66    61    1
    67    67    66    1
    68    68    66    1
    69    69    66    1
    70    70    55    1
    71    71     1    1
    72    72    71    2
    73    73    72    1
    74    74    73    1
    75    75    70    1
    76    76    72    1
    77    77    76    1
    78    78    76    1
    79    79    76    1
    80    80    75    1
    81    81    80    1
    82    82    80    1
    83    83    80    1
    84    84    53    1
    85    85    84    1
    86    86    85    2
    87    87    86    1
    88    88    87    1
    89    89    84    1
    90    90    86    1
    91    91    90    1
    92    92    90    1
    93    93    90    1
    94    94    89    1
    95    95    94    1
    96    96    94    1
    97    97    94    1
    98     8     9    1
    99    11    13    2
   100    22    23    1
   101    25    27    2
   102    39    41    2
   103    54    55   ar
   104    56    57    1
   105    59    61    2
   106    70    71    1
   107    73    75    2
   108    87    89    2
   109    98    99    1
   110   100    98    1
   111   101    98    1
   112   102    98    1
   113   103   104    1
   114   105   103    1
   115   106   103    1
   116   107   103    1
@<TRIPOS>SUBSTRUCTURE
     1 RES1        1 GROUP             0 ****  ****    0  
     2 RES2       98 GROUP             0 ****  ****    0  
     3 RES3      103 GROUP             0 ****  ****    0  
@<TRIPOS>CRYSIN
   27.3249    9.9216   18.0950   90.0000   91.6470   90.0000    15     1
