@<TRIPOS>MOLECULE
FEHPPE10
    55    58     1     0     0
SMALL
NO_CHARGES
****
Generated from the CSD

@<TRIPOS>ATOM
     1 C1       7.2037   2.9406 -11.1826   C.ar      1 RES1   0.0000
     2 C2      11.8662   3.0166 -10.1367   C.3       1 RES1   0.0000
     3 C3       4.3850   2.3087  -6.9060   C.ar      1 RES1   0.0000
     4 C4       4.6948   1.1341  -7.5198   C.ar      1 RES1   0.0000
     5 C5       3.7547   0.1722  -7.7988   C.ar      1 RES1   0.0000
     6 C6       2.4623   0.4158  -7.4827   C.ar      1 RES1   0.0000
     7 C7       2.0996   1.5732  -6.8929   C.ar      1 RES1   0.0000
     8 C8       3.0415   2.5218  -6.6163   C.ar      1 RES1   0.0000
     9 C9       5.1919   5.8053  -5.3135   C.3       1 RES1   0.0000
    10 C10      4.1158   6.8418  -5.2648   C.3       1 RES1   0.0000
    11 C11      5.3904   2.5102  -3.9659   C.3       1 RES1   0.0000
    12 C12      7.8367   3.3462 -12.3354   C.ar      1 RES1   0.0000
    13 C13      6.0072   1.6954  -3.0007   C.2       1 RES1   0.0000
    14 C14      8.0822   6.2659 -10.1748   C.ar      1 RES1   0.0000
    15 C15      9.4162   6.4495  -9.8820   C.ar      1 RES1   0.0000
    16 C16     10.2933   6.8970 -10.8446   C.ar      1 RES1   0.0000
    17 C17      9.8893   7.1436 -12.0916   C.ar      1 RES1   0.0000
    18 C18      8.5859   6.9721 -12.3821   C.ar      1 RES1   0.0000
    19 C19      7.6930   6.5274 -11.4488   C.ar      1 RES1   0.0000
    20 C20      6.7330   8.3104  -8.4017   C.3       1 RES1   0.0000
    21 C21      6.4103   9.2527  -7.3427   C.3       1 RES1   0.0000
    22 C22      4.3158   5.5257  -9.2613   C.3       1 RES1   0.0000
    23 C23      7.1483   3.5113 -13.5276   C.ar      1 RES1   0.0000
    24 C24      3.3293   5.8084 -10.3016   C.3       1 RES1   0.0000
    25 C25      8.6481   5.1672  -5.0359   C.ar      1 RES1   0.0000
    26 C26      8.5136   6.5515  -5.1072   C.ar      1 RES1   0.0000
    27 C27      8.3052   7.3280  -3.9837   C.ar      1 RES1   0.0000
    28 C28      8.2219   6.7309  -2.7644   C.ar      1 RES1   0.0000
    29 C29      8.3260   5.3891  -2.6485   C.ar      1 RES1   0.0000
    30 C30      8.5761   4.6181  -3.7588   C.ar      1 RES1   0.0000
    31 C31     11.3987   5.1551  -6.4421   C.3       1 RES1   0.0000
    32 C32     12.3089   6.0111  -7.2128   C.3       1 RES1   0.0000
    33 C33      9.5079   1.6179  -5.9724   C.2       1 RES1   0.0000
    34 C34      5.8142   3.2656 -13.5924   C.ar      1 RES1   0.0000
    35 C35     10.0878   0.8076  -4.9828   C.2       1 RES1   0.0000
    36 C36      5.1558   2.8605 -12.4689   C.ar      1 RES1   0.0000
    37 C37      5.8627   2.7096 -11.2829   C.ar      1 RES1   0.0000
    38 C38      8.1738   0.1629 -10.3636   C.3       1 RES1   0.0000
    39 C39      7.3951  -1.0288 -10.1652   C.3       1 RES1   0.0000
    40 C40     10.6887   2.6275  -9.4390   C.3       1 RES1   0.0000
    41 Fe1      7.2640   3.7669  -7.8839   Fe        1 RES1   0.0000
    42 H1       7.1629   2.3815  -7.5256   H         1 RES1   0.0000
    43 H2       6.0241   3.3340  -8.7326   H         1 RES1   0.0000
    44 O1       7.8436   1.1257  -9.3730   O.3       1 RES1   0.0000
    45 O2       9.5255   2.7889 -10.2108   O.3       1 RES1   0.0000
    46 O3       4.7088   4.6293  -5.9112   O.3       1 RES1   0.0000
    47 O4       6.2579   2.8150  -5.0784   O.3       1 RES1   0.0000
    48 O5       6.9338   6.9800  -7.8884   O.3       1 RES1   0.0000
    49 O6       5.6176   5.8836  -9.7214   O.3       1 RES1   0.0000
    50 O7      10.1733   4.9825  -7.1664   O.3       1 RES1   0.0000
    51 O8       9.6678   2.9655  -5.8082   O.3       1 RES1   0.0000
    52 P1       8.0232   2.7160  -9.5814   P.3       1 RES1   0.0000
    53 P2       5.7137   3.4829  -6.4537   P.3       1 RES1   0.0000
    54 P3       6.9614   5.6659  -8.8404   P.3       1 RES1   0.0000
    55 P4       8.8954   4.1781  -6.5444   P.3       1 RES1   0.0000
@<TRIPOS>BOND
     1     1    12   ar
     2     2    40    1
     3     3     4   ar
     4     4     5   ar
     5     5     6   ar
     6     6     7   ar
     7     7     8   ar
     8     8     3   ar
     9     9    10    1
    10    11    13    1
    11    12    23   ar
    12    14    15   ar
    13    15    16   ar
    14    16    17   ar
    15    17    18   ar
    16    18    19   ar
    17    19    14   ar
    18    20    21    1
    19    22    24    1
    20    23    34   ar
    21    25    26   ar
    22    26    27   ar
    23    27    28   ar
    24    28    29   ar
    25    29    30   ar
    26    30    25   ar
    27    31    32    1
    28    33    35    1
    29    34    36   ar
    30    36    37   ar
    31    37     1   ar
    32    38    39    1
    33    40    45    1
    34    41    42    1
    35    43    41    1
    36    44    38    1
    37    45    52    1
    38    46     9    1
    39    47    11    1
    40    48    20    1
    41    49    22    1
    42    50    31    1
    43    51    33    1
    44    52     1    1
    45    53     3    1
    46    54    14    1
    47    55    25    1
    48    41    52    1
    49    41    53    1
    50    41    54    1
    51    41    55    1
    52    44    52    1
    53    46    53    1
    54    47    53    1
    55    48    54    1
    56    49    54    1
    57    50    55    1
    58    51    55    1
@<TRIPOS>SUBSTRUCTURE
     1 RES1        1 GROUP             0 ****  ****    0  
@<TRIPOS>CRYSIN
   11.7860   17.4910   11.9700   90.2000  114.9700   85.0300     2     1
