@<TRIPOS>MOLECULE
FEJCEC
   116   123     3     0     0
SMALL
USER_CHARGES
****
Generated from the CSD

@<TRIPOS>ATOM
     1 Fe1     16.5851  23.3817   2.4553   Fe        1 RES1   1.0000
     2 Cl1     16.7104  21.1620   7.8534   Cl        1 RES1   0.0000
     3 Cl2     16.6547  25.5918  -2.9637   Cl        1 RES1   0.0000
     4 N1      15.5574  24.9269   3.2455   N.2       1 RES1   0.0000
     5 N2      15.0716  22.1606   2.9178   N.2       1 RES1   0.0000
     6 N3      17.5976  21.8390   1.6653   N.2       1 RES1   0.0000
     7 N4      18.0742  24.6262   1.9709   N.2       1 RES1   0.0000
     8 N5      17.5838  22.9966   4.4689   N.ar      1 RES1   0.0000
     9 N6      15.6408  23.7751   0.3657   N.ar      1 RES1   0.0000
    10 C1      15.9983  26.2399   3.3076   C.2       1 RES1   0.0000
    11 C2      14.2396  24.8935   3.7415   C.2       1 RES1   0.0000
    12 C3      13.7974  22.4997   3.4178   C.2       1 RES1   0.0000
    13 C4      14.9960  20.7948   2.6593   C.2       1 RES1   0.0000
    14 C5      17.2336  20.5108   1.6333   C.2       1 RES1   0.0000
    15 C6      18.8405  21.8687   1.0561   C.2       1 RES1   0.0000
    16 C7      19.2252  24.2898   1.2745   C.2       1 RES1   0.0000
    17 C8      18.1653  25.9772   2.2555   C.2       1 RES1   0.0000
    18 C9      14.9044  27.0439   3.8797   C.2       1 RES1   0.0000
    19 C10     13.8549  26.2304   4.1152   C.2       1 RES1   0.0000
    20 C11     12.9677  21.3734   3.4409   C.2       1 RES1   0.0000
    21 C12     13.6351  20.3459   3.0030   C.2       1 RES1   0.0000
    22 C13     18.2333  19.7163   1.0271   C.2       1 RES1   0.0000
    23 C14     19.2069  20.5420   0.6343   C.2       1 RES1   0.0000
    24 C15     20.0627  25.4838   1.0992   C.2       1 RES1   0.0000
    25 C16     19.3822  26.4920   1.7405   C.2       1 RES1   0.0000
    26 C17     17.2545  26.6938   2.8828   C.2       1 RES1   0.0000
    27 C18     13.4964  23.7538   3.8296   C.2       1 RES1   0.0000
    28 C19     16.0402  20.0482   2.1072   C.2       1 RES1   0.0000
    29 C20     19.5550  23.0281   0.8577   C.2       1 RES1   0.0000
    30 C21     16.9667  22.3005   5.4409   C.ar      1 RES1   0.0000
    31 C22     17.5450  22.0747   6.6563   C.ar      1 RES1   0.0000
    32 C23     18.7463  22.5271   6.9198   C.ar      1 RES1   0.0000
    33 C24     19.4110  23.2190   5.9469   C.ar      1 RES1   0.0000
    34 C25     18.7934  23.4501   4.7244   C.ar      1 RES1   0.0000
    35 C26     16.3124  24.4795  -0.5511   C.ar      1 RES1   0.0000
    36 C27     15.7759  24.6863  -1.8076   C.ar      1 RES1   0.0000
    37 C28     14.5223  24.1085  -2.1353   C.ar      1 RES1   0.0000
    38 C29     13.8549  23.4128  -1.1854   C.ar      1 RES1   0.0000
    39 C30     14.4333  23.2562   0.0601   C.ar      1 RES1   0.0000
    40 C31     14.9096  28.5751   3.9930   C.3       1 RES1   0.0000
    41 C32     15.2969  28.9933   5.2655   C.3       1 RES1   0.0000
    42 C33     12.3946  26.6250   4.5651   C.3       1 RES1   0.0000
    43 C34     12.4051  26.6820   6.0020   C.3       1 RES1   0.0000
    44 C35     11.5283  21.4361   3.8076   C.3       1 RES1   0.0000
    45 C36     10.6621  22.1546   2.7876   C.3       1 RES1   0.0000
    46 C37     13.1954  18.7713   3.1262   C.3       1 RES1   0.0000
    47 C38     12.9311  18.6991   1.9459   C.3       1 RES1   0.0000
    48 C39     18.1470  18.2403   0.8397   C.3       1 RES1   0.0000
    49 C40     17.5346  17.8111  -0.4058   C.3       1 RES1   0.0000
    50 C41     20.4788  20.1702  -0.1794   C.3       1 RES1   0.0000
    51 C42     21.4053  19.4974   0.4259   C.3       1 RES1   0.0000
    52 C43     21.3451  25.5306   0.3407   C.3       1 RES1   0.0000
    53 C44     21.1514  25.8640  -1.1132   C.3       1 RES1   0.0000
    54 C45     19.8586  27.9384   1.8677   C.3       1 RES1   0.0000
    55 C46     19.3037  28.8724   0.8277   C.3       1 RES1   0.0000
    56 H1      17.4639  27.6058   3.0641   H         1 RES1   0.0000
    57 H2      12.6432  23.8538   4.2405   H         1 RES1   0.0000
    58 H3      15.9120  19.1058   2.0641   H         1 RES1   0.0000
    59 H4      20.3715  22.9453   0.3757   H         1 RES1   0.0000
    60 H5      16.0978  21.9493   5.2755   H         1 RES1   0.0000
    61 H6      19.1441  22.3750   7.7745   H         1 RES1   0.0000
    62 H7      20.2930  23.5459   6.1092   H         1 RES1   0.0000
    63 H8      19.2566  23.9412   4.0531   H         1 RES1   0.0000
    64 H9      17.1629  24.8421  -0.3357   H         1 RES1   0.0000
    65 H10     14.1454  24.2111  -3.0020   H         1 RES1   0.0000
    66 H11     12.9965  23.0327  -1.3647   H         1 RES1   0.0000
    67 H12     13.9648  22.7590   0.7285   H         1 RES1   0.0000
    68 H13     15.5168  28.9363   3.3477   H         1 RES1   0.0000
    69 H14     14.0486  28.9134   3.7916   H         1 RES1   0.0000
    70 H15     12.1747  27.4765   4.2194   H         1 RES1   0.0000
    71 H16     11.7848  25.9522   4.2805   H         1 RES1   0.0000
    72 H17     11.2090  20.5466   3.9499   H         1 RES1   0.0000
    73 H18     11.4472  21.8466   4.6623   H         1 RES1   0.0000
    74 H19     14.0172  18.2543   3.2425   H         1 RES1   0.0000
    75 H20     12.4705  18.6801   3.6703   H         1 RES1   0.0000
    76 H21     19.0185  17.8590   0.9138   H         1 RES1   0.0000
    77 H22     17.6864  17.8552   1.5751   H         1 RES1   0.0000
    78 H23     20.2276  19.7369  -0.9820   H         1 RES1   0.0000
    79 H24     20.8531  20.9609  -0.5581   H         1 RES1   0.0000
    80 H25     21.9261  26.1688   0.7385   H         1 RES1   0.0000
    81 H26     21.7926  24.6977   0.4178   H         1 RES1   0.0000
    82 H27     19.6492  28.2634   2.7345   H         1 RES1   0.0000
    83 H28     20.8086  27.9593   1.8407   H         1 RES1   0.0000
    84 H29     14.6819  28.6435   5.8978   H         1 RES1   0.0000
    85 H30     16.1737  28.6816   5.4419   H         1 RES1   0.0000
    86 H31     15.3074  29.9360   5.2926   H         1 RES1   0.0000
    87 H32     12.6484  25.8267   6.3326   H         1 RES1   0.0000
    88 H33     13.0515  27.3093   6.2725   H         1 RES1   0.0000
    89 H34     11.5362  26.8873   6.3006   H         1 RES1   0.0000
    90 H35     10.9656  23.0365   2.7044   H         1 RES1   0.0000
    91 H36     10.6830  21.6680   1.9810   H         1 RES1   0.0000
    92 H37      9.7592  22.1013   3.0832   H         1 RES1   0.0000
    93 H38     12.1905  19.3301   1.8016   H         1 RES1   0.0000
    94 H39     13.5958  19.0488   1.4078   H         1 RES1   0.0000
    95 H40     12.4862  17.8742   1.7926   H         1 RES1   0.0000
    96 H41     16.6500  18.1441  -0.4389   H         1 RES1   0.0000
    97 H42     18.0711  18.0985  -1.1273   H         1 RES1   0.0000
    98 H43     17.5791  16.8668  -0.4569   H         1 RES1   0.0000
    99 H44     21.7193  19.9954   1.1503   H         1 RES1   0.0000
   100 H45     21.0755  18.6345   0.6022   H         1 RES1   0.0000
   101 H46     22.0622  19.2693  -0.2325   H         1 RES1   0.0000
   102 H47     20.7719  26.7314  -1.1844   H         1 RES1   0.0000
   103 H48     22.0020  25.9179  -1.5341   H         1 RES1   0.0000
   104 H49     20.6044  25.2033  -1.5130   H         1 RES1   0.0000
   105 H50     19.5602  28.5675  -0.0361   H         1 RES1   0.0000
   106 H51     18.3616  28.9249   0.9228   H         1 RES1   0.0000
   107 H52     19.6047  29.7536   1.0020   H         1 RES1   0.0000
   108 Cl3     15.9792  15.2117   2.6018   Cl        2 RES2   0.0000
   109 O1      17.1656  15.3596   3.2846   O.2       2 RES2   0.0000
   110 O2      15.0980  14.3533   3.1393   O.2       2 RES2   0.0000
   111 O3      15.3912  16.4251   2.4108   O.2       2 RES2   0.0000
   112 O4      16.4171  14.6563   1.3948   O.3       2 RES2  -1.0000
   113 Cl4      2.9416   8.3661  -0.8136   Cl        3 RES3   0.0000
   114 Cl5      1.1730   6.9562   0.8988   Cl        3 RES3   0.0000
   115 Cl6      4.0432   6.6353   1.1172   Cl        3 RES3   0.0000
   116 C47      2.7035   6.8634   0.0691   C.3       3 RES3   0.0000
@<TRIPOS>BOND
     1     1     4    1
     2     2    31    1
     3     3    36    1
     4     4    10    1
     5     5     1    1
     6     6     1    1
     7     7     1    1
     8     8     1    1
     9     9     1    1
    10    10    18    1
    11    11     4    2
    12    12     5    1
    13    13     5    1
    14    14     6    2
    15    15     6    1
    16    16     7    1
    17    17     7    1
    18    18    19    2
    19    19    11    1
    20    20    12    1
    21    21    13    1
    22    22    14    1
    23    23    15    1
    24    24    16    2
    25    25    17    2
    26    26    10    2
    27    27    11    1
    28    28    13    2
    29    29    15    2
    30    30     8   ar
    31    31    30   ar
    32    32    31   ar
    33    33    32   ar
    34    34     8   ar
    35    35     9   ar
    36    36    35   ar
    37    37    36   ar
    38    38    37   ar
    39    39     9   ar
    40    40    18    1
    41    41    40    1
    42    42    19    1
    43    43    42    1
    44    44    20    1
    45    45    44    1
    46    46    21    1
    47    47    46    1
    48    48    22    1
    49    49    48    1
    50    50    23    1
    51    51    50    1
    52    52    24    1
    53    53    52    1
    54    54    25    1
    55    55    54    1
    56    56    26    1
    57    57    27    1
    58    58    28    1
    59    59    29    1
    60    60    30    1
    61    61    32    1
    62    62    33    1
    63    63    34    1
    64    64    35    1
    65    65    37    1
    66    66    38    1
    67    67    39    1
    68    68    40    1
    69    69    40    1
    70    70    42    1
    71    71    42    1
    72    72    44    1
    73    73    44    1
    74    74    46    1
    75    75    46    1
    76    76    48    1
    77    77    48    1
    78    78    50    1
    79    79    50    1
    80    80    52    1
    81    81    52    1
    82    82    54    1
    83    83    54    1
    84    84    41    1
    85    85    41    1
    86    86    41    1
    87    87    43    1
    88    88    43    1
    89    89    43    1
    90    90    45    1
    91    91    45    1
    92    92    45    1
    93    93    47    1
    94    94    47    1
    95    95    47    1
    96    96    49    1
    97    97    49    1
    98    98    49    1
    99    99    51    1
   100   100    51    1
   101   101    51    1
   102   102    53    1
   103   103    53    1
   104   104    53    1
   105   105    55    1
   106   106    55    1
   107   107    55    1
   108    12    27    2
   109    14    28    1
   110    16    29    1
   111    17    26    1
   112    20    21    2
   113    22    23    2
   114    24    25    1
   115    33    34   ar
   116    38    39   ar
   117   108   109    2
   118   110   108    2
   119   111   108    2
   120   112   108    1
   121   113   116    1
   122   114   116    1
   123   115   116    1
@<TRIPOS>SUBSTRUCTURE
     1 RES1        1 GROUP             0 ****  ****    0  
     2 RES2      108 GROUP             0 ****  ****    0  
     3 RES3      113 GROUP             0 ****  ****    0  
@<TRIPOS>CRYSIN
   26.1710   38.0140   10.0200   90.0000   90.0000   90.0000    61     1
