@<TRIPOS>MOLECULE
FEMFUB
   102   114     4     0     0
SMALL
NO_CHARGES
****
Generated from the CSD

@<TRIPOS>ATOM
     1 Fe1      4.6660   6.3044  14.1587   Fe        1 RES1   0.0000
     2 O1       5.1109   4.3866  14.1870   O.3       1 RES1   0.0000
     3 H1       5.8845   4.1556  14.4170   H         1 RES1   0.0000
     4 H2       4.5106   3.8725  14.4691   H         1 RES1   0.0000
     5 N1       5.7870   6.3829  12.6118   N.2       1 RES1   0.0000
     6 N2       4.2845   5.3752  11.0150   N.2       1 RES1   0.0000
     7 N3       3.1944   5.9814  13.0648   N.2       1 RES1   0.0000
     8 N4       1.3832   5.9549  14.7601   N.2       1 RES1   0.0000
     9 N5       3.5989   6.0685  15.7157   N.2       1 RES1   0.0000
    10 N6       5.3409   6.0788  17.3914   N.2       1 RES1   0.0000
    11 N7       6.0923   6.8316  15.2466   N.2       1 RES1   0.0000
    12 N8       7.8215   7.2823  13.5583   N.2       1 RES1   0.0000
    13 N9       1.8665   7.9522  13.4919   N.2       1 RES1   0.0000
    14 N10      4.2232   8.1133  14.0232   N.2       1 RES1   0.0000
    15 N11      6.4250   9.0672  14.3339   N.2       1 RES1   0.0000
    16 C1       7.1602   6.6699  12.6428   C.2       1 RES1   0.0000
    17 C2       7.7439   6.1798  11.3774   C.ar      1 RES1   0.0000
    18 C3       9.0415   6.1956  10.8965   C.ar      1 RES1   0.0000
    19 H3       9.7572   6.5435  11.4157   H         1 RES1   0.0000
    20 C4       9.2571   5.6795   9.6187   C.ar      1 RES1   0.0000
    21 H4      10.1386   5.6707   9.2642   H         1 RES1   0.0000
    22 C5       8.2053   5.1763   8.8512   C.ar      1 RES1   0.0000
    23 H5       8.3797   4.8382   7.9812   H         1 RES1   0.0000
    24 C6       6.9019   5.1630   9.3444   C.ar      1 RES1   0.0000
    25 H6       6.1833   4.8230   8.8254   H         1 RES1   0.0000
    26 C7       6.6929   5.6638  10.6184   C.ar      1 RES1   0.0000
    27 C8       5.4691   5.7877  11.4364   C.2       1 RES1   0.0000
    28 C9       3.2027   5.6206  11.8020   C.2       1 RES1   0.0000
    29 C10      1.8182   5.5128  11.3157   C.ar      1 RES1   0.0000
    30 C11      1.3091   4.9818  10.1460   C.ar      1 RES1   0.0000
    31 H7       1.8829   4.6870   9.4483   H         1 RES1   0.0000
    32 C12     -0.0734   4.8948  10.0261   C.ar      1 RES1   0.0000
    33 H8      -0.4550   4.5024   9.2494   H         1 RES1   0.0000
    34 C13     -0.9050   5.3757  11.0323   C.ar      1 RES1   0.0000
    35 H9      -1.8468   5.3086  10.9304   H         1 RES1   0.0000
    36 C14     -0.3830   5.9564  12.1902   C.ar      1 RES1   0.0000
    37 H10     -0.9533   6.3145  12.8606   H         1 RES1   0.0000
    38 C15      0.9904   5.9925  12.3260   C.ar      1 RES1   0.0000
    39 C16      1.8659   6.4633  13.4772   C.3       1 RES1   0.0000
    40 C17      2.2211   5.8032  15.7204   C.2       1 RES1   0.0000
    41 C18      1.8649   5.3337  17.0795   C.ar      1 RES1   0.0000
    42 C19      0.6674   4.9208  17.6370   C.ar      1 RES1   0.0000
    43 H11     -0.1357   4.9187  17.1301   H         1 RES1   0.0000
    44 C20      0.6802   4.5077  18.9707   C.ar      1 RES1   0.0000
    45 H12     -0.1242   4.2027  19.3727   H         1 RES1   0.0000
    46 C21      1.8545   4.5356  19.7229   C.ar      1 RES1   0.0000
    47 H13      1.8365   4.2485  20.6279   H         1 RES1   0.0000
    48 C22      3.0557   4.9788  19.1667   C.ar      1 RES1   0.0000
    49 H14      3.8542   5.0158  19.6814   H         1 RES1   0.0000
    50 C23      3.0379   5.3632  17.8367   C.ar      1 RES1   0.0000
    51 C24      4.1120   5.8568  16.9533   C.2       1 RES1   0.0000
    52 C25      6.2110   6.7022  16.5458   C.2       1 RES1   0.0000
    53 C26      7.4245   7.3948  17.0107   C.ar      1 RES1   0.0000
    54 C27      7.9855   7.5003  18.2771   C.ar      1 RES1   0.0000
    55 H15      7.6004   7.0610  19.0268   H         1 RES1   0.0000
    56 C28      9.1361   8.2769  18.4017   C.ar      1 RES1   0.0000
    57 H16      9.5515   8.3652  19.2518   H         1 RES1   0.0000
    58 C29      9.6864   8.9268  17.2973   C.ar      1 RES1   0.0000
    59 H17     10.4700   9.4517  17.4090   H         1 RES1   0.0000
    60 C30      9.1089   8.8219  16.0311   C.ar      1 RES1   0.0000
    61 H18      9.4837   9.2685  15.2799   H         1 RES1   0.0000
    62 C31      7.9728   8.0433  15.9089   C.ar      1 RES1   0.0000
    63 C32      7.0756   7.7879  14.7090   C.3       1 RES1   0.0000
    64 C33      2.9727   8.5972  13.6944   C.2       1 RES1   0.0000
    65 C34      3.1046  10.0645  13.5343   C.ar      1 RES1   0.0000
    66 C35      2.1819  11.0272  13.1499   C.ar      1 RES1   0.0000
    67 H19      1.2703  10.8045  13.0019   H         1 RES1   0.0000
    68 C36      2.6452  12.3343  12.9906   C.ar      1 RES1   0.0000
    69 H20      2.0426  13.0120  12.7081   H         1 RES1   0.0000
    70 C37      3.9784  12.6647  13.2390   C.ar      1 RES1   0.0000
    71 H21      4.2633  13.5642  13.1302   H         1 RES1   0.0000
    72 C38      4.8994  11.6984  13.6431   C.ar      1 RES1   0.0000
    73 H22      5.8027  11.9256  13.8294   H         1 RES1   0.0000
    74 C39      4.4443  10.3947  13.7632   C.ar      1 RES1   0.0000
    75 C40      5.1569   9.1282  14.0767   C.2       1 RES1   0.0000
    76 O2       7.4985   3.8174  15.0013   O.3       2 RES2   0.0000
    77 H23      7.9603   3.3383  14.4896   H         2 RES2   0.0000
    78 C41      7.5566   3.3207  16.3435   C.3       2 RES2   0.0000
    79 H24      7.4380   2.3379  16.3342   H         2 RES2   0.0000
    80 H25      6.8158   3.7130  16.8698   H         2 RES2   0.0000
    81 C42      8.8712   3.6580  17.0012   C.3       2 RES2   0.0000
    82 H26      9.6018   3.2246  16.5127   H         2 RES2   0.0000
    83 H27      8.8641   3.3397  17.9279   H         2 RES2   0.0000
    84 H28      9.0022   4.6287  16.9906   H         2 RES2   0.0000
    85 O3       3.2130   2.7962  15.0314   O.3       3 RES3   0.0000
    86 H29      2.5002   2.6030  14.6253   H         3 RES3   0.0000
    87 C43      3.4999   1.7197  15.9173   C.3       3 RES3   0.0000
    88 H30      4.4121   1.8273  16.2859   H         3 RES3   0.0000
    89 H31      3.4673   0.8644  15.4212   H         3 RES3   0.0000
    90 C44      2.4980   1.6869  17.0461   C.3       3 RES3   0.0000
    91 H32      1.5982   1.5596  16.6801   H         3 RES3   0.0000
    92 H33      2.5338   2.5322  17.5392   H         3 RES3   0.0000
    93 H34      2.7116   0.9463  17.6508   H         3 RES3   0.0000
    94 O4       1.0882   1.8344  13.7067   O.3       4 RES4   0.0000
    95 H35      0.3289   1.6858  14.0358   H         4 RES4   0.0000
    96 C45      0.9824   1.9888  12.2912   C.3       4 RES4   0.0000
    97 H36      0.4621   2.8041  12.0796   H         4 RES4   0.0000
    98 H37      0.5114   1.2099  11.9011   H         4 RES4   0.0000
    99 C46      2.3731   2.0972  11.7062   C.3       4 RES4   0.0000
   100 H38      2.3099   2.2353  10.7389   H         4 RES4   0.0000
   101 H39      2.8682   1.2710  11.8862   H         4 RES4   0.0000
   102 H40      2.8408   2.8555  12.1149   H         4 RES4   0.0000
@<TRIPOS>BOND
     1     1     2    1
     2     2     3    1
     3     4     2    1
     4     5     1    1
     5     6    27    2
     6     7     1    1
     7     8    39    1
     8     9     1    1
     9    10    51    2
    10    11     1    1
    11    12    16    2
    12    13    39    1
    13    14     1    1
    14    15    63    1
    15    16     5    1
    16    17    16    1
    17    18    17   ar
    18    19    18    1
    19    20    18   ar
    20    21    20    1
    21    22    20   ar
    22    23    22    1
    23    24    22   ar
    24    25    24    1
    25    26    17   ar
    26    27     5    1
    27    28     6    1
    28    29    28    1
    29    30    29   ar
    30    31    30    1
    31    32    30   ar
    32    33    32    1
    33    34    32   ar
    34    35    34    1
    35    36    34   ar
    36    37    36    1
    37    38    29   ar
    38    39     7    1
    39    40     8    2
    40    41    40    1
    41    42    41   ar
    42    43    42    1
    43    44    42   ar
    44    45    44    1
    45    46    44   ar
    46    47    46    1
    47    48    46   ar
    48    49    48    1
    49    50    41   ar
    50    51     9    1
    51    52    10    1
    52    53    52    1
    53    54    53   ar
    54    55    54    1
    55    56    54   ar
    56    57    56    1
    57    58    56   ar
    58    59    58    1
    59    60    58   ar
    60    61    60    1
    61    62    53   ar
    62    63    11    1
    63    64    13    2
    64    65    64    1
    65    66    65   ar
    66    67    66    1
    67    68    66   ar
    68    69    68    1
    69    70    68   ar
    70    71    70    1
    71    72    70   ar
    72    73    72    1
    73    74    65   ar
    74    75    14    1
    75     7    28    2
    76     9    40    1
    77    11    52    2
    78    12    63    1
    79    14    64    1
    80    15    75    2
    81    24    26   ar
    82    26    27    1
    83    36    38   ar
    84    38    39    1
    85    48    50   ar
    86    50    51    1
    87    60    62   ar
    88    62    63    1
    89    72    74   ar
    90    74    75    1
    91    76    77    1
    92    78    76    1
    93    79    78    1
    94    80    78    1
    95    81    78    1
    96    82    81    1
    97    83    81    1
    98    84    81    1
    99    85    86    1
   100    87    85    1
   101    88    87    1
   102    89    87    1
   103    90    87    1
   104    91    90    1
   105    92    90    1
   106    93    90    1
   107    94    95    1
   108    96    94    1
   109    97    96    1
   110    98    96    1
   111    99    96    1
   112   100    99    1
   113   101    99    1
   114   102    99    1
@<TRIPOS>SUBSTRUCTURE
     1 RES1        1 GROUP             0 ****  ****    0  
     2 RES2       76 GROUP             0 ****  ****    0  
     3 RES3       85 GROUP             0 ****  ****    0  
     4 RES4       94 GROUP             0 ****  ****    0  
@<TRIPOS>CRYSIN
   15.2000   13.8750   19.2100   90.0000  104.5320   90.0000   231     1
