@<TRIPOS>MOLECULE
FENDUY
   300   347     4     0     0
SMALL
NO_CHARGES
****
Generated from the CSD

@<TRIPOS>ATOM
     1 O1       6.0343   0.3569  13.9062   O.3       1 RES1   0.0000
     2 H4       5.5790   0.1998  13.2173   H         1 RES1   0.0000
     3 C3       7.3223  -0.1583  13.7420   C.3       1 RES1   0.0000
     4 H5       7.6770   0.1205  12.8715   H         1 RES1   0.0000
     5 H6       7.2921  -1.1355  13.7837   H         1 RES1   0.0000
     6 H7       7.9037   0.1819  14.4538   H         1 RES1   0.0000
     7 O2      11.9808   0.1412   6.5770   O.3       2 RES2   0.0000
     8 H8      11.3487   0.5476   6.9511   H         2 RES2   0.0000
     9 C4      11.5946  -1.0099   6.2299   C.3       2 RES2   0.0000
    10 H9      11.8056  -1.6538   6.9390   H         2 RES2   0.0000
    11 H10     12.0506  -1.2739   5.4037   H         2 RES2   0.0000
    12 H11     10.6256  -0.9988   6.0792   H         2 RES2   0.0000
    13 Fe1      6.2742  -1.3126   8.4631   Fe        3 RES3   0.0000
    14 Fe2      8.1536   1.3526   8.0769   Fe        3 RES3   0.0000
    15 Fe3      5.2703   1.4158   9.8957   Fe        3 RES3   0.0000
    16 Fe4      8.2049   3.9928   5.9881   Fe        3 RES3   0.0000
    17 Fe5      5.7671   3.9257   7.4489   Fe        3 RES3   0.0000
    18 Fe6      3.2000   3.9760   9.1266   Fe        3 RES3   0.0000
    19 N2       6.0078  -3.4589   8.9721   N.2       3 RES3   0.0000
    20 N3       5.6915  -1.3638  10.5302   N.2       3 RES3   0.0000
    21 N4       9.7939   4.9568   4.8251   N.2       3 RES3   0.0000
    22 N5       9.9872   2.9058   6.4882   N.2       3 RES3   0.0000
    23 N6       4.0465   5.2641  10.7966   N.2       3 RES3   0.0000
    24 N7       1.7333   5.5472   9.6031   N.2       3 RES3   0.0000
    25 O3       6.5049   0.5102   8.7084   O.3       3 RES3   0.0000
    26 O4       7.3157   2.8043   7.2700   O.3       3 RES3   0.0000
    27 O5       4.8625   3.0105   8.9129   O.3       3 RES3   0.0000
    28 O6       6.5270   4.8212   5.7280   O.3       3 RES3   0.0000
    29 O7       4.0683   5.1789   7.5445   O.3       3 RES3   0.0000
    30 O8       8.1574  -1.9071   8.8147   O.co2     3 RES3   0.0000
    31 O9       6.6039  -1.5268   6.4976   O.co2     3 RES3   0.0000
    32 O10      4.2856  -1.3733   8.0706   O.co2     3 RES3   0.0000
    33 O11      9.3888  -0.0592   8.9909   O.co2     3 RES3   0.0000
    34 O12      8.1448   0.1045   6.3873   O.co2     3 RES3   0.0000
    35 O13      9.9935   1.8903   7.3399   O.3       3 RES3   0.0000
    36 O14      5.4231  -0.2214  11.1855   O.3       3 RES3   0.0000
    37 O15      3.5952   0.5146   9.0811   O.co2     3 RES3   0.0000
    38 O16      4.1011   2.0008  11.5380   O.co2     3 RES3   0.0000
    39 O17      6.7424   2.2229  11.0052   O.co2     3 RES3   0.0000
    40 O18      8.6100   2.4525   9.7686   O.co2     3 RES3   0.0000
    41 O19      8.7486   5.3471   7.4691   O.co2     3 RES3   0.0000
    42 O20      6.7727   5.3208   8.5617   O.co2     3 RES3   0.0000
    43 O21      2.2953   2.9265  10.5666   O.co2     3 RES3   0.0000
    44 O22      8.0445   2.7703   4.4255   O.3       3 RES3   0.0000
    45 C5       6.1810  -4.4724   8.1957   C.2       3 RES3   0.0000
    46 H12      6.2497  -4.2989   7.2646   H         3 RES3   0.0000
    47 C6       6.2762  -5.7906   8.6007   C.2       3 RES3   0.0000
    48 H13      6.4500  -6.4989   7.9912   H         3 RES3   0.0000
    49 C7       6.0985  -6.0094   9.9853   C.2       3 RES3   0.0000
    50 H14      6.1228  -6.8968  10.3257   H         3 RES3   0.0000
    51 C8       5.8887  -4.9601  10.8451   C.2       3 RES3   0.0000
    52 H15      5.7697  -5.1099  11.7762   H         3 RES3   0.0000
    53 C9       5.8540  -3.6801  10.3270   C.2       3 RES3   0.0000
    54 C10      5.6506  -2.4687  11.1424   C.2       3 RES3   0.0000
    55 H16      5.4980  -2.5157  12.0789   H         3 RES3   0.0000
    56 C11      9.2125  -1.2951   9.0205   C.2       3 RES3   0.0000
    57 C12     10.4156  -2.1345   9.3313   C.2       3 RES3   0.0000
    58 C13     11.5734  -1.5938   9.9099   C.2       3 RES3   0.0000
    59 H17     11.6008  -0.6624  10.0983   H         3 RES3   0.0000
    60 C14     12.6739  -2.3616  10.2113   C.2       3 RES3   0.0000
    61 H18     13.4368  -1.9570  10.6056   H         3 RES3   0.0000
    62 C15     12.6803  -3.7059   9.9503   C.2       3 RES3   0.0000
    63 H19     13.4315  -4.2441  10.1710   H         3 RES3   0.0000
    64 C16     11.5424  -4.2640   9.3461   C.2       3 RES3   0.0000
    65 H20     11.5441  -5.1863   9.1187   H         3 RES3   0.0000
    66 C17     10.4055  -3.4915   9.0676   C.2       3 RES3   0.0000
    67 H21      9.6304  -3.8993   8.6989   H         3 RES3   0.0000
    68 C18      7.4935  -0.8481   5.8935   C.2       3 RES3   0.0000
    69 C19      7.8474  -1.2785   4.4860   C.2       3 RES3   0.0000
    70 C20      8.9432  -0.6911   3.8388   C.2       3 RES3   0.0000
    71 H22      9.4399  -0.0020   4.2640   H         3 RES3   0.0000
    72 C21      9.2932  -1.1334   2.5579   C.2       3 RES3   0.0000
    73 H23     10.0454  -0.7529   2.1179   H         3 RES3   0.0000
    74 C22      8.5643  -2.1044   1.9322   C.2       3 RES3   0.0000
    75 H24      8.8248  -2.4183   1.0737   H         3 RES3   0.0000
    76 C23      7.4486  -2.6278   2.5525   C.2       3 RES3   0.0000
    77 H25      6.9209  -3.2789   2.1044   H         3 RES3   0.0000
    78 C24      7.0842  -2.2051   3.8402   C.2       3 RES3   0.0000
    79 H26      6.3120  -2.5649   4.2600   H         3 RES3   0.0000
    80 C25      3.4017  -0.5441   8.4541   C.2       3 RES3   0.0000
    81 C26      1.9769  -0.8884   8.0706   C.2       3 RES3   0.0000
    82 C27      1.5924  -2.2066   8.0665   C.2       3 RES3   0.0000
    83 H27      2.2215  -2.8839   8.2818   H         3 RES3   0.0000
    84 C28      0.2813  -2.5552   7.7503   C.2       3 RES3   0.0000
    85 H28      0.0142  -3.4676   7.7436   H         3 RES3   0.0000
    86 C29     -0.6219  -1.5640   7.4449   C.2       3 RES3   0.0000
    87 H29     -1.5232  -1.7966   7.2525   H         3 RES3   0.0000
    88 C30     -0.2391  -0.2452   7.4166   C.2       3 RES3   0.0000
    89 H30     -0.8532   0.4315   7.1543   H         3 RES3   0.0000
    90 C31      1.0683   0.0874   7.7786   C.2       3 RES3   0.0000
    91 H31      1.3272   1.0001   7.8216   H         3 RES3   0.0000
    92 C32      9.6638   5.9975   3.9990   C.2       3 RES3   0.0000
    93 H32      8.8065   6.3877   3.8711   H         3 RES3   0.0000
    94 C33     10.7670   6.5254   3.3195   C.2       3 RES3   0.0000
    95 H33     10.6536   7.2442   2.7086   H         3 RES3   0.0000
    96 C34     11.9985   6.0053   3.5361   C.2       3 RES3   0.0000
    97 H34     12.7548   6.3910   3.1096   H         3 RES3   0.0000
    98 C35     12.1625   4.9299   4.3623   C.2       3 RES3   0.0000
    99 H35     13.0206   4.5454   4.4941   H         3 RES3   0.0000
   100 C36     11.0156   4.4037   5.0216   C.2       3 RES3   0.0000
   101 C37     11.0903   3.2466   5.8894   C.2       3 RES3   0.0000
   102 H36     11.8991   2.7648   6.0146   H         3 RES3   0.0000
   103 C38      7.9280   2.6494  10.8262   C.2       3 RES3   0.0000
   104 C39      8.5356   3.4515  11.9202   C.2       3 RES3   0.0000
   105 C40      9.5972   4.2948  11.7076   C.2       3 RES3   0.0000
   106 H37      9.9732   4.3580  10.8384   H         3 RES3   0.0000
   107 C41     10.1262   5.0480  12.7248   C.2       3 RES3   0.0000
   108 H38     10.8509   5.6391  12.5566   H         3 RES3   0.0000
   109 C42      9.5908   4.9390  14.0058   C.2       3 RES3   0.0000
   110 H39      9.9613   5.4436  14.7202   H         3 RES3   0.0000
   111 C43      8.5186   4.0948  14.2372   C.2       3 RES3   0.0000
   112 H40      8.1445   4.0387  15.1078   H         3 RES3   0.0000
   113 C44      7.9961   3.3449  13.2253   C.2       3 RES3   0.0000
   114 H41      7.2724   2.7531  13.3949   H         3 RES3   0.0000
   115 C45      2.9203   2.4174  11.5501   C.2       3 RES3   0.0000
   116 C46      2.1405   2.2852  12.8472   C.2       3 RES3   0.0000
   117 C47      2.8069   2.1957  14.0421   C.2       3 RES3   0.0000
   118 H42      3.7553   2.2162  14.0650   H         3 RES3   0.0000
   119 C48      2.0668   2.0700  15.2396   C.2       3 RES3   0.0000
   120 H43      2.5122   2.0397  16.0779   H         3 RES3   0.0000
   121 C49      0.7038   1.9906  15.1750   C.2       3 RES3   0.0000
   122 H44      0.2042   1.8968  15.9770   H         3 RES3   0.0000
   123 C50      0.0687   2.0433  14.0152   C.2       3 RES3   0.0000
   124 H45     -0.8776   1.9761  13.9883   H         3 RES3   0.0000
   125 C51      0.7898   2.1986  12.8298   C.2       3 RES3   0.0000
   126 H46      0.3255   2.2434  12.0022   H         3 RES3   0.0000
   127 C52      7.9659   5.7067   8.3989   C.2       3 RES3   0.0000
   128 C53      8.5157   6.7079   9.3650   C.2       3 RES3   0.0000
   129 C54      9.8745   7.0943   9.3461   C.2       3 RES3   0.0000
   130 H47     10.4637   6.7354   8.6936   H         3 RES3   0.0000
   131 C55     10.3361   7.9853  10.2746   C.2       3 RES3   0.0000
   132 H48     11.2483   8.2514  10.2477   H         3 RES3   0.0000
   133 C56      9.5205   8.5014  11.2326   C.2       3 RES3   0.0000
   134 H49      9.8781   9.0994  11.8785   H         3 RES3   0.0000
   135 C57      8.1818   8.1672  11.2797   C.2       3 RES3   0.0000
   136 H50      7.6160   8.5422  11.9430   H         3 RES3   0.0000
   137 C58      7.6742   7.2695  10.3405   C.2       3 RES3   0.0000
   138 H51      6.7533   7.0371  10.3607   H         3 RES3   0.0000
   139 C59      5.1753   5.0573  11.4640   C.2       3 RES3   0.0000
   140 H52      5.7500   4.3588  11.1720   H         3 RES3   0.0000
   141 C60      5.5580   5.8057  12.5580   C.2       3 RES3   0.0000
   142 H53      6.3576   5.5967  13.0276   H         3 RES3   0.0000
   143 C61      4.7699   6.8536  12.9630   C.2       3 RES3   0.0000
   144 H54      5.0318   7.4044  13.6909   H         3 RES3   0.0000
   145 C62      3.5962   7.0887  12.2902   C.2       3 RES3   0.0000
   146 H55      3.0314   7.8031  12.5593   H         3 RES3   0.0000
   147 C63      3.2333   6.2801  11.2165   C.2       3 RES3   0.0000
   148 C64      1.9690   6.3999  10.5181   C.2       3 RES3   0.0000
   149 H56      1.3448   7.0826  10.7334   H         3 RES3   0.0000
   150 C65      4.2059   6.6062   7.6050   C.3       3 RES3   0.0000
   151 H57      4.4978   6.8701   8.5025   H         3 RES3   0.0000
   152 H58      3.3427   7.0258   7.4072   H         3 RES3   0.0000
   153 H59      4.8698   6.8987   6.9457   H         3 RES3   0.0000
   154 Fe1A     2.2962   9.6251   4.9924   Fe        3 RES3   0.0000
   155 Fe2A     0.4168   6.9599   5.3785   Fe        3 RES3   0.0000
   156 Fe3A     3.3001   6.8966   3.5598   Fe        3 RES3   0.0000
   157 Fe4A     0.3656   4.3197   7.4674   Fe        3 RES3   0.0000
   158 Fe5A     2.8033   4.3867   6.0065   Fe        3 RES3   0.0000
   159 Fe6A     5.3705   4.3364   4.3289   Fe        3 RES3   0.0000
   160 N2A      2.5626  11.7713   4.4834   N.2       3 RES3   0.0000
   161 N3A      2.8789   9.6763   2.9252   N.2       3 RES3   0.0000
   162 N4A     -1.2235   3.3556   8.6303   N.2       3 RES3   0.0000
   163 N5A     -1.4168   5.4067   6.9672   N.2       3 RES3   0.0000
   164 N6A      4.5239   3.0483   2.6588   N.2       3 RES3   0.0000
   165 N7A      6.8371   2.7653   3.8523   N.2       3 RES3   0.0000
   166 O3A      2.0655   7.8023   4.7471   O.3       3 RES3   0.0000
   167 O4A      1.2548   5.5081   6.1855   O.3       3 RES3   0.0000
   168 O5A      3.7079   5.3019   4.5426   O.3       3 RES3   0.0000
   169 O6A      2.0434   3.4913   7.7275   O.3       3 RES3   0.0000
   170 O7A      4.5021   3.1336   5.9110   O.3       3 RES3   0.0000
   171 O8A      0.4131  10.2196   4.6408   O.co2     3 RES3   0.0000
   172 O9A      1.9665   9.8393   6.9578   O.co2     3 RES3   0.0000
   173 O10A     4.2848   9.6858   5.3849   O.co2     3 RES3   0.0000
   174 O11A    -0.8184   8.3717   4.4645   O.co2     3 RES3   0.0000
   175 O12A     0.4256   8.2079   7.0681   O.co2     3 RES3   0.0000
   176 O13A    -1.4230   6.4221   6.1155   O.3       3 RES3   0.0000
   177 O14A     3.1473   8.5338   2.2699   O.3       3 RES3   0.0000
   178 O15A     4.9752   7.7979   4.3744   O.co2     3 RES3   0.0000
   179 O16A     4.4693   6.3116   1.9174   O.co2     3 RES3   0.0000
   180 O17A     1.8280   6.0895   2.4502   O.co2     3 RES3   0.0000
   181 O18A    -0.0395   5.8599   3.6868   O.co2     3 RES3   0.0000
   182 O19A    -0.1782   2.9653   5.9863   O.co2     3 RES3   0.0000
   183 O20A     1.7978   2.9916   4.8937   O.co2     3 RES3   0.0000
   184 O21A     6.2752   5.3860   2.8889   O.co2     3 RES3   0.0000
   185 O22A     0.5259   5.5422   9.0299   O.3       3 RES3   0.0000
   186 C5A      2.3894  12.7848   5.2597   C.2       3 RES3   0.0000
   187 H12A     2.3208  12.6114   6.1908   H         3 RES3   0.0000
   188 C6A      2.2942  14.1031   4.8547   C.2       3 RES3   0.0000
   189 H13A     2.1205  14.8113   5.4643   H         3 RES3   0.0000
   190 C7A      2.4719  14.3218   3.4702   C.2       3 RES3   0.0000
   191 H14A     2.4476  15.2093   3.1297   H         3 RES3   0.0000
   192 C8A      2.6818  13.2726   2.6104   C.2       3 RES3   0.0000
   193 H15A     2.8007  13.4223   1.6792   H         3 RES3   0.0000
   194 C9A      2.7164  11.9926   3.1284   C.2       3 RES3   0.0000
   195 C10A     2.9198  10.7812   2.3130   C.2       3 RES3   0.0000
   196 H16A     3.0724  10.8281   1.3765   H         3 RES3   0.0000
   197 C11A    -0.6420   9.6075   4.4349   C.2       3 RES3   0.0000
   198 C12A    -1.8451  10.4469   4.1241   C.2       3 RES3   0.0000
   199 C13A    -3.0029   9.9062   3.5455   C.2       3 RES3   0.0000
   200 H17A    -3.0304   8.9748   3.3571   H         3 RES3   0.0000
   201 C14A    -4.1034  10.6741   3.2441   C.2       3 RES3   0.0000
   202 H18A    -4.8664  10.2694   2.8499   H         3 RES3   0.0000
   203 C15A    -4.1099  12.0184   3.5051   C.2       3 RES3   0.0000
   204 H19A    -4.8610  12.5565   3.2845   H         3 RES3   0.0000
   205 C16A    -2.9720  12.5764   4.1093   C.2       3 RES3   0.0000
   206 H20A    -2.9737  13.4988   4.3367   H         3 RES3   0.0000
   207 C17A    -1.8350  11.8039   4.3878   C.2       3 RES3   0.0000
   208 H21A    -1.0600  12.2118   4.7565   H         3 RES3   0.0000
   209 C18A     1.0769   9.1606   7.5620   C.2       3 RES3   0.0000
   210 C19A     0.7231   9.5909   8.9694   C.2       3 RES3   0.0000
   211 C20A    -0.3728   9.0036   9.6166   C.2       3 RES3   0.0000
   212 H22A    -0.8695   8.3144   9.1914   H         3 RES3   0.0000
   213 C21A    -0.7228   9.4459  10.8976   C.2       3 RES3   0.0000
   214 H23A    -1.4750   9.0653  11.3375   H         3 RES3   0.0000
   215 C22A     0.0061  10.4168  11.5232   C.2       3 RES3   0.0000
   216 H24A    -0.2543  10.7307  12.3817   H         3 RES3   0.0000
   217 C23A     1.1218  10.9402  10.9029   C.2       3 RES3   0.0000
   218 H25A     1.6495  11.5914  11.3510   H         3 RES3   0.0000
   219 C24A     1.4862  10.5175   9.6153   C.2       3 RES3   0.0000
   220 H26A     2.2584  10.8773   9.1954   H         3 RES3   0.0000
   221 C25A     5.1688   8.8565   5.0014   C.2       3 RES3   0.0000
   222 C26A     6.5935   9.2008   5.3849   C.2       3 RES3   0.0000
   223 C27A     6.9780  10.5191   5.3889   C.2       3 RES3   0.0000
   224 H27A     6.3489  11.1964   5.1736   H         3 RES3   0.0000
   225 C28A     8.2891  10.8676   5.7051   C.2       3 RES3   0.0000
   226 H28A     8.5562  11.7800   5.7118   H         3 RES3   0.0000
   227 C29A     9.1924   9.8764   6.0105   C.2       3 RES3   0.0000
   228 H29A    10.0936  10.1090   6.2030   H         3 RES3   0.0000
   229 C30A     8.8096   8.5576   6.0388   C.2       3 RES3   0.0000
   230 H30A     9.4237   7.8810   6.3012   H         3 RES3   0.0000
   231 C31A     7.5021   8.2250   5.6768   C.2       3 RES3   0.0000
   232 H31A     7.2432   7.3123   5.6338   H         3 RES3   0.0000
   233 C32A    -1.0933   2.3149   9.4565   C.2       3 RES3   0.0000
   234 H32A    -0.2361   1.9248   9.5843   H         3 RES3   0.0000
   235 C33A    -2.1966   1.7870  10.1360   C.2       3 RES3   0.0000
   236 H33A    -2.0832   1.0682  10.7469   H         3 RES3   0.0000
   237 C34A    -3.4281   2.3071   9.9193   C.2       3 RES3   0.0000
   238 H34A    -4.1844   1.9214  10.3459   H         3 RES3   0.0000
   239 C35A    -3.5921   3.3825   9.0932   C.2       3 RES3   0.0000
   240 H35A    -4.4502   3.7670   8.9613   H         3 RES3   0.0000
   241 C36A    -2.4452   3.9087   8.4339   C.2       3 RES3   0.0000
   242 C37A    -2.5198   5.0658   7.5660   C.2       3 RES3   0.0000
   243 H36A    -3.3287   5.5476   7.4409   H         3 RES3   0.0000
   244 C38A     0.6424   5.6631   2.6292   C.2       3 RES3   0.0000
   245 C39A     0.0349   4.8609   1.5353   C.2       3 RES3   0.0000
   246 C40A    -1.0267   4.0177   1.7479   C.2       3 RES3   0.0000
   247 H37A    -1.4028   3.9544   2.6171   H         3 RES3   0.0000
   248 C41A    -1.5558   3.2645   0.7306   C.2       3 RES3   0.0000
   249 H38A    -2.2805   2.6734   0.8988   H         3 RES3   0.0000
   250 C42A    -1.0203   3.3735  -0.5503   C.2       3 RES3   0.0000
   251 H39A    -1.3908   2.8689  -1.2648   H         3 RES3   0.0000
   252 C43A     0.0519   4.2177  -0.7818   C.2       3 RES3   0.0000
   253 H40A     0.4259   4.2738  -1.6523   H         3 RES3   0.0000
   254 C44A     0.5744   4.9675   0.2301   C.2       3 RES3   0.0000
   255 H41A     1.2981   5.5594   0.0605   H         3 RES3   0.0000
   256 C45A     5.6501   5.8950   1.9053   C.2       3 RES3   0.0000
   257 C46A     6.4300   6.0272   0.6082   C.2       3 RES3   0.0000
   258 C47A     5.7636   6.1167  -0.5867   C.2       3 RES3   0.0000
   259 H42A     4.8151   6.0963  -0.6095   H         3 RES3   0.0000
   260 C48A     6.5037   6.2425  -1.7842   C.2       3 RES3   0.0000
   261 H43A     6.0582   6.2727  -2.6225   H         3 RES3   0.0000
   262 C49A     7.8666   6.3219  -1.7196   C.2       3 RES3   0.0000
   263 H44A     8.3663   6.4156  -2.5215   H         3 RES3   0.0000
   264 C50A     8.5018   6.2692  -0.5597   C.2       3 RES3   0.0000
   265 H45A     9.4480   6.3364  -0.5328   H         3 RES3   0.0000
   266 C51A     7.7807   6.1138   0.6257   C.2       3 RES3   0.0000
   267 H46A     8.2449   6.0691   1.4532   H         3 RES3   0.0000
   268 C52A     0.6045   2.6057   5.0566   C.2       3 RES3   0.0000
   269 C53A     0.0548   1.6045   4.0905   C.2       3 RES3   0.0000
   270 C54A    -1.3041   1.2182   4.1093   C.2       3 RES3   0.0000
   271 H47A    -1.8933   1.5771   4.7619   H         3 RES3   0.0000
   272 C55A    -1.7656   0.3271   3.1809   C.2       3 RES3   0.0000
   273 H48A    -2.6779   0.0610   3.2078   H         3 RES3   0.0000
   274 C56A    -0.9501  -0.1889   2.2228   C.2       3 RES3   0.0000
   275 H49A    -1.3077  -0.7869   1.5770   H         3 RES3   0.0000
   276 C57A     0.3887   0.1453   2.1757   C.2       3 RES3   0.0000
   277 H50A     0.9544  -0.2298   1.5124   H         3 RES3   0.0000
   278 C58A     0.8962   1.0430   3.1149   C.2       3 RES3   0.0000
   279 H51A     1.8171   1.2753   3.0948   H         3 RES3   0.0000
   280 C59A     3.3951   3.2552   1.9914   C.2       3 RES3   0.0000
   281 H52A     2.8205   3.9536   2.2834   H         3 RES3   0.0000
   282 C60A     3.0125   2.5067   0.8975   C.2       3 RES3   0.0000
   283 H53A     2.2128   2.7157   0.4279   H         3 RES3   0.0000
   284 C61A     3.8005   1.4589   0.4925   C.2       3 RES3   0.0000
   285 H54A     3.5387   0.9081  -0.2355   H         3 RES3   0.0000
   286 C62A     4.9743   1.2237   1.1652   C.2       3 RES3   0.0000
   287 H55A     5.5390   0.5094   0.8961   H         3 RES3   0.0000
   288 C63A     5.3372   2.0324   2.2390   C.2       3 RES3   0.0000
   289 C64A     6.6014   1.9125   2.9373   C.2       3 RES3   0.0000
   290 H56A     7.2257   1.2299   2.7220   H         3 RES3   0.0000
   291 C65A     4.3645   1.7062   5.8504   C.3       3 RES3   0.0000
   292 H57A     4.0726   1.4424   4.9529   H         3 RES3   0.0000
   293 H58A     5.2278   1.2866   6.0482   H         3 RES3   0.0000
   294 H59A     3.7006   1.4138   6.5097   H         3 RES3   0.0000
   295 N1      10.9227   1.4721   0.7697   N.1       4 RES4   0.0000
   296 C1      10.3436   2.3156   1.1787   C.1       4 RES4   0.0000
   297 C2       9.7160   3.3823   1.6577   C.3       4 RES4   0.0000
   298 H1      10.3546   4.1184   1.7627   H         4 RES4   0.0000
   299 H2       9.3197   3.1674   2.5269   H         4 RES4   0.0000
   300 H3       9.0079   3.6529   1.0347   H         4 RES4   0.0000
@<TRIPOS>BOND
     1     1     2    1
     2     3     1    1
     3     4     3    1
     4     5     3    1
     5     6     3    1
     6     7     8    1
     7     9     7    1
     8    10     9    1
     9    11     9    1
    10    12     9    1
    11    13    19   un
    12    14    25    1
    13    15    25    1
    14    16    21   un
    15    17    26    1
    16    18    23   un
    17    19    45   un
    18    20    13   un
    19    21    92   un
    20    22    16   un
    21    23   139   un
    22    24    18   un
    23    25    13    1
    24    26    14    1
    25    27    15    1
    26    28    16    1
    27    29    17    1
    28    30    13   un
    29    31    13   un
    30    32    13   un
    31    33    14   un
    32    34    14   un
    33    35    14    1
    34    36    15    1
    35    37    15   un
    36    38    15   un
    37    39    15   un
    38    40    14   un
    39    41    16   un
    40    42    17   un
    41    43    18   un
    42    44    16    1
    43    45    46    1
    44    47    45   un
    45    48    47    1
    46    49    47   un
    47    50    49    1
    48    51    49   un
    49    52    51    1
    50    53    19   un
    51    54    20   un
    52    55    54    1
    53    56    30   un
    54    57    56   un
    55    58    57   un
    56    59    58    1
    57    60    58   un
    58    61    60    1
    59    62    60   un
    60    63    62    1
    61    64    62   un
    62    65    64    1
    63    66    57   un
    64    67    66    1
    65    68    31   un
    66    69    68   un
    67    70    69   un
    68    71    70    1
    69    72    70   un
    70    73    72    1
    71    74    72   un
    72    75    74    1
    73    76    74   un
    74    77    76    1
    75    78    69   un
    76    79    78    1
    77    80    32   un
    78    81    80   un
    79    82    81   un
    80    83    82    1
    81    84    82   un
    82    85    84    1
    83    86    84   un
    84    87    86    1
    85    88    86   un
    86    89    88    1
    87    90    81   un
    88    91    90    1
    89    92    93    1
    90    94    92   un
    91    95    94    1
    92    96    94   un
    93    97    96    1
    94    98    96   un
    95    99    98    1
    96   100    21   un
    97   101    22   un
    98   102   101    1
    99   103    39   un
   100   104   103   un
   101   105   104   un
   102   106   105    1
   103   107   105   un
   104   108   107    1
   105   109   107   un
   106   110   109    1
   107   111   109   un
   108   112   111    1
   109   113   104   un
   110   114   113    1
   111   115    38   un
   112   116   115   un
   113   117   116   un
   114   118   117    1
   115   119   117   un
   116   120   119    1
   117   121   119   un
   118   122   121    1
   119   123   121   un
   120   124   123    1
   121   125   116   un
   122   126   125    1
   123   127    41   un
   124   128   127   un
   125   129   128   un
   126   130   129    1
   127   131   129   un
   128   132   131    1
   129   133   131   un
   130   134   133    1
   131   135   133   un
   132   136   135    1
   133   137   128   un
   134   138   137    1
   135   139   140    1
   136   141   139   un
   137   142   141    1
   138   143   141   un
   139   144   143    1
   140   145   143   un
   141   146   145    1
   142   147    23   un
   143   148    24   un
   144   149   148    1
   145   150    29    1
   146   151   150    1
   147   152   150    1
   148   153   150    1
   149   154   160   un
   150   155   166    1
   151   156   166    1
   152   157   162   un
   153   158    29    1
   154   159    28    1
   155   160   186   un
   156   161   154   un
   157   162   233   un
   158   163   157   un
   159   164   159   un
   160   165    44    1
   161   166   154    1
   162   167   155    1
   163   168   156    1
   164   169    18    1
   165   170    17    1
   166   171   154   un
   167   172   154   un
   168   173   154   un
   169   174   155   un
   170   175   155   un
   171   176   155    1
   172   177   156    1
   173   178   156   un
   174   179   156   un
   175   180   156   un
   176   181   155   un
   177   182   157   un
   178   183   158   un
   179   184   159   un
   180   185    24    1
   181   186   187    1
   182   188   186   un
   183   189   188    1
   184   190   188   un
   185   191   190    1
   186   192   190   un
   187   193   192    1
   188   194   160   un
   189   195   161   un
   190   196   195    1
   191   197   171   un
   192   198   197   un
   193   199   198   un
   194   200   199    1
   195   201   199   un
   196   202   201    1
   197   203   201   un
   198   204   203    1
   199   205   203   un
   200   206   205    1
   201   207   198   un
   202   208   207    1
   203   209   172   un
   204   210   209   un
   205   211   210   un
   206   212   211    1
   207   213   211   un
   208   214   213    1
   209   215   213   un
   210   216   215    1
   211   217   215   un
   212   218   217    1
   213   219   210   un
   214   220   219    1
   215   221   173   un
   216   222   221   un
   217   223   222   un
   218   224   223    1
   219   225   223   un
   220   226   225    1
   221   227   225   un
   222   228   227    1
   223   229   227   un
   224   230   229    1
   225   231   222   un
   226   232   231    1
   227   233   234    1
   228   235   233   un
   229   236   235    1
   230   237   235   un
   231   238   237    1
   232   239   237   un
   233   240   239    1
   234   241   162   un
   235   242   163   un
   236   243   242    1
   237   244   180   un
   238   245   244   un
   239   246   245   un
   240   247   246    1
   241   248   246   un
   242   249   248    1
   243   250   248   un
   244   251   250    1
   245   252   250   un
   246   253   252    1
   247   254   245   un
   248   255   254    1
   249   256   179   un
   250   257   256   un
   251   258   257   un
   252   259   258    1
   253   260   258   un
   254   261   260    1
   255   262   260   un
   256   263   262    1
   257   264   262   un
   258   265   264    1
   259   266   257   un
   260   267   266    1
   261   268   182   un
   262   269   268   un
   263   270   269   un
   264   271   270    1
   265   272   270   un
   266   273   272    1
   267   274   272   un
   268   275   274    1
   269   276   274   un
   270   277   276    1
   271   278   269   un
   272   279   278    1
   273   280   164   un
   274   281   280    1
   275   282   280   un
   276   283   282    1
   277   284   282   un
   278   285   284    1
   279   286   284   un
   280   287   286    1
   281   288   164   un
   282   289   165   un
   283   290   289    1
   284   291   170    1
   285   292   291    1
   286   293   291    1
   287   294   291    1
   288    16    26    1
   289    17    27    1
   290    17    28    1
   291    18    27    1
   292    18    29    1
   293    20    36    1
   294    22    35    1
   295    33    56   un
   296    34    68   un
   297    37    80   un
   298    40   103   un
   299    42   127   un
   300    43   115   un
   301    51    53   un
   302    53    54   un
   303    64    66   un
   304    76    78   un
   305    88    90   un
   306    98   100   un
   307   100   101   un
   308   111   113   un
   309   123   125   un
   310   135   137   un
   311   145   147   un
   312   147   148   un
   313   157   167    1
   314   157   169    1
   315   157   185    1
   316   158   167    1
   317   158   168    1
   318   158   169    1
   319   158   170    1
   320   159   165   un
   321   159   168    1
   322   159   170    1
   323   161   177    1
   324   163   176    1
   325   174   197   un
   326   175   209   un
   327   178   221   un
   328   181   244   un
   329   183   268   un
   330   184   256   un
   331   192   194   un
   332   194   195   un
   333   205   207   un
   334   217   219   un
   335   229   231   un
   336   239   241   un
   337   241   242   un
   338   252   254   un
   339   264   266   un
   340   276   278   un
   341   286   288   un
   342   288   289   un
   343   295   296    3
   344   296   297    1
   345   297   298    1
   346   299   297    1
   347   300   297    1
@<TRIPOS>SUBSTRUCTURE
     1 RES1        1 GROUP             0 ****  ****    0  
     2 RES2        7 GROUP             0 ****  ****    0  
     3 RES3       13 GROUP             0 ****  ****    0  
     4 RES4      295 GROUP             0 ****  ****    0  
@<TRIPOS>CRYSIN
   15.6773   15.8373   16.5064  115.2020  111.1350   94.1830     2     1
