@<TRIPOS>MOLECULE
FENGAJ
   108   118     4     0     0
SMALL
USER_CHARGES
****
Generated from the CSD

@<TRIPOS>ATOM
     1 Fe1      4.4449   4.4982  10.4661   Fe        1 RES1   2.0000
     2 N1       5.6735   5.6895  11.4074   N.2       1 RES1   0.0000
     3 N2       6.8167   5.9837  10.8652   N.2       1 RES1   0.0000
     4 N3       5.8654   4.6506   9.2852   N.ar      1 RES1   0.0000
     5 N4       3.8367   3.1819   9.0125   N.ar      1 RES1   0.0000
     6 N5       1.8642   2.4591   9.9678   N.2       1 RES1   0.0000
     7 N6       1.4512   1.3440  10.3453   N.2       1 RES1   0.0000
     8 N7       3.2021   5.8045   9.7151   N.2       1 RES1   0.0000
     9 N8       2.0670   6.0200  10.3079   N.2       1 RES1   0.0000
    10 N9       3.0320   4.4726  11.6689   N.ar      1 RES1   0.0000
    11 N10      5.0455   2.9361  11.6821   N.ar      1 RES1   0.0000
    12 N11      7.0189   2.3489  10.6119   N.2       1 RES1   0.0000
    13 N12      7.5235   1.3101  10.1447   N.2       1 RES1   0.0000
    14 C1       5.5731   6.1617  12.7526   C.ar      1 RES1   0.0000
    15 C2       6.6171   5.9728  13.6327   C.ar      1 RES1   0.0000
    16 H1       7.3988   5.5054  13.3596   H         1 RES1   0.0000
    17 C3       6.5136   6.4777  14.9246   C.ar      1 RES1   0.0000
    18 H2       7.2352   6.3614  15.5337   H         1 RES1   0.0000
    19 C4       5.3849   7.1388  15.3321   C.ar      1 RES1   0.0000
    20 H3       5.3304   7.4814  16.2164   H         1 RES1   0.0000
    21 C5       4.3222   7.3095  14.4582   C.ar      1 RES1   0.0000
    22 H4       3.5363   7.7575  14.7481   H         1 RES1   0.0000
    23 C6       4.4089   6.8252  13.1622   C.ar      1 RES1   0.0000
    24 H5       3.6853   6.9414  12.5572   H         1 RES1   0.0000
    25 C7       6.9181   5.3977   9.5996   C.ar      1 RES1   0.0000
    26 C8       7.9831   5.5611   8.7237   C.ar      1 RES1   0.0000
    27 H6       8.7211   6.1132   8.9547   H         1 RES1   0.0000
    28 C9       7.9447   4.9012   7.5074   C.ar      1 RES1   0.0000
    29 H7       8.6543   5.0199   6.8878   H         1 RES1   0.0000
    30 C10      6.8800   4.0646   7.1840   C.ar      1 RES1   0.0000
    31 C11      5.8623   3.9932   8.1145   C.ar      1 RES1   0.0000
    32 C12      6.7290   3.2776   5.9887   C.ar      1 RES1   0.0000
    33 H8       7.3969   3.3139   5.3144   H         1 RES1   0.0000
    34 C13      5.6234   2.4712   5.8165   C.ar      1 RES1   0.0000
    35 H9       5.5378   1.9699   5.0141   H         1 RES1   0.0000
    36 C14      4.5947   2.3683   6.8185   C.ar      1 RES1   0.0000
    37 C15      4.7226   3.1480   7.9612   C.ar      1 RES1   0.0000
    38 C16      3.4680   1.5462   6.7491   C.ar      1 RES1   0.0000
    39 H10      3.3270   0.9868   5.9950   H         1 RES1   0.0000
    40 C17      2.5712   1.5546   7.7784   C.ar      1 RES1   0.0000
    41 H11      1.7969   1.0062   7.7364   H         1 RES1   0.0000
    42 C18      2.7913   2.3695   8.8980   C.ar      1 RES1   0.0000
    43 C19      0.4088   1.4772  11.3683   C.ar      1 RES1   0.0000
    44 C20      0.4806   0.5981  12.4375   C.ar      1 RES1   0.0000
    45 H12      1.1358  -0.0908  12.4585   H         1 RES1   0.0000
    46 C21     -0.4198   0.7471  13.4626   C.ar      1 RES1   0.0000
    47 H13     -0.3502   0.1961  14.2335   H         1 RES1   0.0000
    48 C22     -1.4378   1.7011  13.3785   C.ar      1 RES1   0.0000
    49 H14     -2.0562   1.8016  14.0927   H         1 RES1   0.0000
    50 C23     -1.5419   2.4990  12.2547   C.ar      1 RES1   0.0000
    51 H15     -2.2611   3.1153  12.1728   H         1 RES1   0.0000
    52 C24     -0.5990   2.3998  11.2507   C.ar      1 RES1   0.0000
    53 H16     -0.6482   2.9628  10.4881   H         1 RES1   0.0000
    54 C25      3.2937   6.4208   8.4296   C.ar      1 RES1   0.0000
    55 C26      2.2500   6.2912   7.5347   C.ar      1 RES1   0.0000
    56 H17      1.4825   5.7778   7.7595   H         1 RES1   0.0000
    57 C27      2.3354   6.9220   6.2975   C.ar      1 RES1   0.0000
    58 H18      1.6177   6.8482   5.6799   H         1 RES1   0.0000
    59 C28      3.4549   7.6570   5.9614   C.ar      1 RES1   0.0000
    60 H19      3.5048   8.0916   5.1170   H         1 RES1   0.0000
    61 C29      4.4968   7.7587   6.8479   C.ar      1 RES1   0.0000
    62 H20      5.2722   8.2515   6.6063   H         1 RES1   0.0000
    63 C30      4.4316   7.1436   8.1019   C.ar      1 RES1   0.0000
    64 H21      5.1512   7.2199   8.7174   H         1 RES1   0.0000
    65 C31      1.9959   5.2693  11.4817   C.ar      1 RES1   0.0000
    66 C32      0.9283   5.3202  12.3892   C.ar      1 RES1   0.0000
    67 H22      0.2029   5.9183  12.2547   H         1 RES1   0.0000
    68 C33      0.9583   4.4738  13.4857   C.ar      1 RES1   0.0000
    69 H23      0.2576   4.5029  14.1263   H         1 RES1   0.0000
    70 C34      2.0229   3.5730  13.6537   C.ar      1 RES1   0.0000
    71 C35      3.0352   3.6251  12.7148   C.ar      1 RES1   0.0000
    72 C36      2.1665   2.5802  14.6893   C.ar      1 RES1   0.0000
    73 H24      1.5041   2.5124  15.3678   H         1 RES1   0.0000
    74 C37      3.2401   1.7387  14.7124   C.ar      1 RES1   0.0000
    75 H25      3.3111   1.1091  15.4203   H         1 RES1   0.0000
    76 C38      4.2672   1.7689  13.7041   C.ar      1 RES1   0.0000
    77 C39      4.1619   2.7509  12.7064   C.ar      1 RES1   0.0000
    78 C40      5.3790   0.9166  13.6138   C.ar      1 RES1   0.0000
    79 H26      5.5113   0.2313  14.2587   H         1 RES1   0.0000
    80 C41      6.2643   1.0788  12.5929   C.ar      1 RES1   0.0000
    81 H27      7.0150   0.4988  12.5278   H         1 RES1   0.0000
    82 C42      6.0870   2.0910  11.6414   C.ar      1 RES1   0.0000
    83 C43      8.5699   1.5934   9.1858   C.ar      1 RES1   0.0000
    84 C44      8.6062   0.7931   8.0494   C.ar      1 RES1   0.0000
    85 H28      8.0053   0.0654   7.9423   H         1 RES1   0.0000
    86 C45      9.5520   1.0933   7.0789   C.ar      1 RES1   0.0000
    87 H29      9.5638   0.6005   6.2660   H         1 RES1   0.0000
    88 C46     10.4664   2.0922   7.2785   C.ar      1 RES1   0.0000
    89 H30     11.1045   2.2896   6.6021   H         1 RES1   0.0000
    90 C47     10.4667   2.8114   8.4506   C.ar      1 RES1   0.0000
    91 H31     11.1300   3.4737   8.5997   H         1 RES1   0.0000
    92 C48      9.5042   2.5729   9.4127   C.ar      1 RES1   0.0000
    93 H32      9.4889   3.0778  10.2172   H         1 RES1   0.0000
    94 Cl1      9.9114   2.9365   3.2815   Cl        2 RES2   0.0000
    95 O1       9.0003   2.6904   2.2938   O.2       2 RES2   0.0000
    96 O2       9.4216   3.9750   4.1486   O.3       2 RES2  -1.0000
    97 O3      10.1138   1.7774   4.0247   O.2       2 RES2   0.0000
    98 O4      11.1012   3.4035   2.7181   O.2       2 RES2   0.0000
    99 Cl2     -1.0778   2.5954  17.4242   Cl        3 RES3   0.0000
   100 O5      -0.4830   3.6033  16.6029   O.2       3 RES3   0.0000
   101 O6      -2.3206   3.1105  17.9179   O.3       3 RES3  -1.0000
   102 O7      -0.2598   2.3235  18.5382   O.2       3 RES3   0.0000
   103 O8      -1.2920   1.4130  16.6869   O.2       3 RES3   0.0000
   104 Cl3     13.4544   0.5921  12.0890   Cl        4 RES4   0.0000
   105 Cl4     13.8856   2.2872   9.7796   Cl        4 RES4   0.0000
   106 C49     12.7425   1.6551  10.9524   C.3       4 RES4   0.0000
   107 H33     12.3294   2.4131  11.4376   H         4 RES4   0.0000
   108 H34     12.0235   1.1757  10.4713   H         4 RES4   0.0000
@<TRIPOS>BOND
     1     1     2    1
     2     2     3    2
     3     3    25    1
     4     4     1    1
     5     5     1    1
     6     6     7    2
     7     7    43    1
     8     8     1    1
     9     9     8    2
    10    10     1    1
    11    11     1    1
    12    12    13    2
    13    13    83    1
    14    14     2    1
    15    15    14   ar
    16    16    15    1
    17    17    15   ar
    18    18    17    1
    19    19    17   ar
    20    20    19    1
    21    21    19   ar
    22    22    21    1
    23    23    14   ar
    24    24    23    1
    25    25     4   ar
    26    26    25   ar
    27    27    26    1
    28    28    26   ar
    29    29    28    1
    30    30    28   ar
    31    31     4   ar
    32    32    30   ar
    33    33    32    1
    34    34    32   ar
    35    35    34    1
    36    36    34   ar
    37    37     5   ar
    38    38    36   ar
    39    39    38    1
    40    40    38   ar
    41    41    40    1
    42    42     5   ar
    43    43    44   ar
    44    44    45    1
    45    46    44   ar
    46    47    46    1
    47    48    46   ar
    48    49    48    1
    49    50    48   ar
    50    51    50    1
    51    52    43   ar
    52    53    52    1
    53    54     8    1
    54    55    54   ar
    55    56    55    1
    56    57    55   ar
    57    58    57    1
    58    59    57   ar
    59    60    59    1
    60    61    59   ar
    61    62    61    1
    62    63    54   ar
    63    64    63    1
    64    65     9    1
    65    66    65   ar
    66    67    66    1
    67    68    66   ar
    68    69    68    1
    69    70    68   ar
    70    71    10   ar
    71    72    70   ar
    72    73    72    1
    73    74    72   ar
    74    75    74    1
    75    76    74   ar
    76    77    11   ar
    77    78    76   ar
    78    79    78    1
    79    80    78   ar
    80    81    80    1
    81    82    11   ar
    82    83    84   ar
    83    84    85    1
    84    86    84   ar
    85    87    86    1
    86    88    86   ar
    87    89    88    1
    88    90    88   ar
    89    91    90    1
    90    92    83   ar
    91    93    92    1
    92     6    42    1
    93    10    65   ar
    94    12    82    1
    95    21    23   ar
    96    30    31   ar
    97    31    37   ar
    98    36    37   ar
    99    40    42   ar
   100    50    52   ar
   101    61    63   ar
   102    70    71   ar
   103    71    77   ar
   104    76    77   ar
   105    80    82   ar
   106    90    92   ar
   107    94    95    2
   108    96    94    1
   109    97    94    2
   110    98    94    2
   111    99   100    2
   112   101    99    1
   113   102    99    2
   114   103    99    2
   115   104   106    1
   116   105   106    1
   117   106   107    1
   118   108   106    1
@<TRIPOS>SUBSTRUCTURE
     1 RES1        1 GROUP             0 ****  ****    0  
     2 RES2       94 GROUP             0 ****  ****    0  
     3 RES3       99 GROUP             0 ****  ****    0  
     4 RES4      104 GROUP             0 ****  ****    0  
@<TRIPOS>CRYSIN
   18.6810   12.1078   21.0116   90.0000   91.3570   90.0000    14     1
