@<TRIPOS>MOLECULE
FERGIS
   115   129     1     0     0
SMALL
NO_CHARGES
****
Generated from the CSD

@<TRIPOS>ATOM
     1 Fe1      6.9622  12.5788  11.0991   Fe        1 RES1   0.0000
     2 S1       8.7447  11.0834   7.3021   S.3       1 RES1   0.0000
     3 S2       9.3918  10.6857  14.3198   S.3       1 RES1   0.0000
     4 S3       2.8212  10.9247  11.4044   S.3       1 RES1   0.0000
     5 S4       9.4485  14.0888  14.4529   S.3       1 RES1   0.0000
     6 S5       2.8379  14.2688  11.2114   S.3       1 RES1   0.0000
     7 S6       8.7040  14.4488   7.4493   S.3       1 RES1   0.0000
     8 O1       7.0484  10.1666   9.5088   O.3       1 RES1   0.0000
     9 O2       8.0522  10.0008  11.7281   O.3       1 RES1   0.0000
    10 O3       5.6317  10.0255  11.5047   O.3       1 RES1   0.0000
    11 O4       7.4067  15.0004  12.6177   O.3       1 RES1   0.0000
    12 O5       5.6282  15.1329  10.9387   O.3       1 RES1   0.0000
    13 O6       7.9754  15.1348  10.2487   O.3       1 RES1   0.0000
    14 N1       7.2552  11.5116   9.5309   N.2       1 RES1   0.0000
    15 N2       8.0885  11.3367  11.9965   N.2       1 RES1   0.0000
    16 N3       5.5094  11.3854  11.5013   N.2       1 RES1   0.0000
    17 N4       7.5901  13.6420  12.5551   N.2       1 RES1   0.0000
    18 N5       5.4830  13.7767  11.0010   N.2       1 RES1   0.0000
    19 N6       7.9051  13.8072   9.9763   N.2       1 RES1   0.0000
    20 B1       6.9053   9.5689  10.8724   B         1 RES1   0.0000
    21 B2       7.0233  15.5850  11.2933   B         1 RES1   0.0000
    22 C1       7.9892  12.0159   8.5866   C.2       1 RES1   0.0000
    23 C2       8.6872  11.7149  13.0847   C.2       1 RES1   0.0000
    24 C3       4.2922  11.8644  11.4455   C.2       1 RES1   0.0000
    25 C4       8.5188  13.1421  13.3224   C.2       1 RES1   0.0000
    26 C5       4.2952  13.2998  11.2332   C.2       1 RES1   0.0000
    27 C6       8.2310  13.4288   8.7722   C.2       1 RES1   0.0000
    28 C7       6.9381   7.9838  10.7402   C.ar      1 RES1   0.0000
    29 C8       7.6230   7.3904   9.6864   C.ar      1 RES1   0.0000
    30 H1       8.0122   7.9185   9.0287   H         1 RES1   0.0000
    31 C9       7.7273   6.0059   9.6165   C.ar      1 RES1   0.0000
    32 H2       8.1844   5.6087   8.9121   H         1 RES1   0.0000
    33 C10      7.1450   5.2151  10.6003   C.ar      1 RES1   0.0000
    34 H3       7.2129   4.2879  10.5534   H         1 RES1   0.0000
    35 C11      6.4584   5.8085  11.6538   C.ar      1 RES1   0.0000
    36 H4       6.0693   5.2790  12.3113   H         1 RES1   0.0000
    37 C12      6.3557   7.1930  11.7241   C.ar      1 RES1   0.0000
    38 H5       5.8988   7.5908  12.4278   H         1 RES1   0.0000
    39 C13      7.1426  17.1839  11.3081   C.ar      1 RES1   0.0000
    40 C14      7.6187  17.8803  12.4131   C.ar      1 RES1   0.0000
    41 H6       7.7964  17.4280  13.2071   H         1 RES1   0.0000
    42 C15      7.8287  19.2521  12.3327   C.ar      1 RES1   0.0000
    43 H7       8.1454  19.7173  13.0721   H         1 RES1   0.0000
    44 C16      7.5625  19.9276  11.1473   C.ar      1 RES1   0.0000
    45 H8       7.7015  20.8456  11.0933   H         1 RES1   0.0000
    46 C17      7.0863  19.2312  10.0426   C.ar      1 RES1   0.0000
    47 H9       6.9084  19.6825   9.2495   H         1 RES1   0.0000
    48 C18      6.8764  17.8594  10.1227   C.ar      1 RES1   0.0000
    49 H10      6.5577  17.3932   9.3845   H         1 RES1   0.0000
    50 C19     10.4239  11.3256   7.8546   C.ar      1 RES1   0.0000
    51 C20     11.3382  12.0104   7.0619   C.ar      1 RES1   0.0000
    52 H11     11.0676  12.3743   6.2492   H         1 RES1   0.0000
    53 C21     12.6561  12.1490   7.4822   C.ar      1 RES1   0.0000
    54 H12     13.2669  12.6077   6.9517   H         1 RES1   0.0000
    55 C22     13.0589  11.6043   8.6955   C.ar      1 RES1   0.0000
    56 H13     13.9402  11.6985   8.9765   H         1 RES1   0.0000
    57 C23     12.1446  10.9204   9.4882   C.ar      1 RES1   0.0000
    58 H14     12.4158  10.5559  10.2987   H         1 RES1   0.0000
    59 C24     10.8285  10.7805   9.0676   C.ar      1 RES1   0.0000
    60 H15     10.2156  10.3225   9.5993   H         1 RES1   0.0000
    61 C25     10.4079   9.5478  13.4678   C.ar      1 RES1   0.0000
    62 C26     11.7595   9.8208  13.2868   C.ar      1 RES1   0.0000
    63 H16     12.1138  10.6276  13.5844   H         1 RES1   0.0000
    64 C27     12.5787   8.8891  12.6628   C.ar      1 RES1   0.0000
    65 H17     13.4827   9.0713  12.5413   H         1 RES1   0.0000
    66 C28     12.0480   7.6830  12.2198   C.ar      1 RES1   0.0000
    67 H18     12.5974   7.0584  11.8020   H         1 RES1   0.0000
    68 C29     10.6981   7.4092  12.4005   C.ar      1 RES1   0.0000
    69 H19     10.3439   6.6018  12.1026   H         1 RES1   0.0000
    70 C30      9.8773   8.3423  13.0245   C.ar      1 RES1   0.0000
    71 H20      8.9733   8.1580  13.1457   H         1 RES1   0.0000
    72 C31      2.9417   9.7923  12.7607   C.ar      1 RES1   0.0000
    73 C32      2.9668  10.2446  14.0746   C.ar      1 RES1   0.0000
    74 H21      3.0240  11.1559  14.2501   H         1 RES1   0.0000
    75 C33      2.9056   9.3355  15.1245   C.ar      1 RES1   0.0000
    76 H22      2.9223   9.6385  16.0049   H         1 RES1   0.0000
    77 C34      2.8210   7.9737  14.8600   C.ar      1 RES1   0.0000
    78 H23      2.7793   7.3656  15.5632   H         1 RES1   0.0000
    79 C35      2.7955   7.5212  13.5476   C.ar      1 RES1   0.0000
    80 H24      2.7390   6.6100  13.3697   H         1 RES1   0.0000
    81 C36      2.8571   8.4304  12.4966   C.ar      1 RES1   0.0000
    82 H25      2.8399   8.1273  11.6179   H         1 RES1   0.0000
    83 C37     11.1077  13.6424  13.9679   C.ar      1 RES1   0.0000
    84 C38     11.4875  13.5332  12.6349   C.ar      1 RES1   0.0000
    85 H26     10.8633  13.6807  11.9615   H         1 RES1   0.0000
    86 C39     12.7974  13.2036  12.3094   C.ar      1 RES1   0.0000
    87 H27     13.0501  13.1299  11.4185   H         1 RES1   0.0000
    88 C40     13.7291  12.9824  13.3175   C.ar      1 RES1   0.0000
    89 H28     14.6060  12.7613  13.0997   H         1 RES1   0.0000
    90 C41     13.3512  13.0909  14.6499   C.ar      1 RES1   0.0000
    91 H29     13.9735  12.9435  15.3239   H         1 RES1   0.0000
    92 C42     12.0396  13.4227  14.9754   C.ar      1 RES1   0.0000
    93 H30     11.7868  13.4943  15.8669   H         1 RES1   0.0000
    94 C43      2.3305  14.0575  12.8978   C.ar      1 RES1   0.0000
    95 C44      3.2136  14.3257  13.9372   C.ar      1 RES1   0.0000
    96 H31      4.0926  14.5694  13.7501   H         1 RES1   0.0000
    97 C45      2.7852  14.2295  15.2561   C.ar      1 RES1   0.0000
    98 H32      3.3746  14.4097  15.9528   H         1 RES1   0.0000
    99 C46      1.4722  13.8670  15.5349   C.ar      1 RES1   0.0000
   100 H33      1.1850  13.8035  16.4160   H         1 RES1   0.0000
   101 C47      0.5892  13.5988  14.4956   C.ar      1 RES1   0.0000
   102 H34     -0.2882  13.3571  14.6827   H         1 RES1   0.0000
   103 C48      1.0192  13.6950  13.1770   C.ar      1 RES1   0.0000
   104 H35      0.4281  13.5148  12.4800   H         1 RES1   0.0000
   105 C49      9.8828  15.5738   8.1390   C.ar      1 RES1   0.0000
   106 C50      9.7935  16.9120   7.7761   C.ar      1 RES1   0.0000
   107 H36      9.0863  17.2048   7.2462   H         1 RES1   0.0000
   108 C51     10.7595  17.8152   8.2065   C.ar      1 RES1   0.0000
   109 H37     10.6995  18.7119   7.9641   H         1 RES1   0.0000
   110 C52     11.8133  17.3788   8.9986   C.ar      1 RES1   0.0000
   111 H38     12.4605  17.9829   9.2864   H         1 RES1   0.0000
   112 C53     11.9043  16.0396   9.3615   C.ar      1 RES1   0.0000
   113 H39     12.6099  15.7489   9.8907   H         1 RES1   0.0000
   114 C54     10.9382  15.1376   8.9317   C.ar      1 RES1   0.0000
   115 H40     10.9976  14.2418   9.1759   H         1 RES1   0.0000
@<TRIPOS>BOND
     1     1    14    1
     2     2    22    1
     3     3    23    1
     4     4    24    1
     5     5    25    1
     6     6    26    1
     7     7    27    1
     8     8    14    1
     9     9    15    1
    10    10    16    1
    11    11    17    1
    12    12    18    1
    13    13    19    1
    14    14    22    2
    15    15     1    1
    16    16     1    1
    17    17     1    1
    18    18     1    1
    19    19     1    1
    20    20     8    1
    21    21    11    1
    22    22    27    1
    23    23    15    2
    24    24    16    2
    25    25    17    2
    26    26    18    2
    27    27    19    2
    28    28    20    1
    29    29    28   ar
    30    30    29    1
    31    31    29   ar
    32    32    31    1
    33    33    31   ar
    34    34    33    1
    35    35    33   ar
    36    36    35    1
    37    37    28   ar
    38    38    37    1
    39    39    21    1
    40    40    39   ar
    41    41    40    1
    42    42    40   ar
    43    43    42    1
    44    44    42   ar
    45    45    44    1
    46    46    44   ar
    47    47    46    1
    48    48    39   ar
    49    49    48    1
    50    50     2    1
    51    51    50   ar
    52    52    51    1
    53    53    51   ar
    54    54    53    1
    55    55    53   ar
    56    56    55    1
    57    57    55   ar
    58    58    57    1
    59    59    50   ar
    60    60    59    1
    61    61     3    1
    62    62    61   ar
    63    63    62    1
    64    64    62   ar
    65    65    64    1
    66    66    64   ar
    67    67    66    1
    68    68    66   ar
    69    69    68    1
    70    70    61   ar
    71    71    70    1
    72    72     4    1
    73    73    72   ar
    74    74    73    1
    75    75    73   ar
    76    76    75    1
    77    77    75   ar
    78    78    77    1
    79    79    77   ar
    80    80    79    1
    81    81    72   ar
    82    82    81    1
    83    83     5    1
    84    84    83   ar
    85    85    84    1
    86    86    84   ar
    87    87    86    1
    88    88    86   ar
    89    89    88    1
    90    90    88   ar
    91    91    90    1
    92    92    83   ar
    93    93    92    1
    94    94     6    1
    95    95    94   ar
    96    96    95    1
    97    97    95   ar
    98    98    97    1
    99    99    97   ar
   100   100    99    1
   101   101    99   ar
   102   102   101    1
   103   103    94   ar
   104   104   103    1
   105   105     7    1
   106   106   105   ar
   107   107   106    1
   108   108   106   ar
   109   109   108    1
   110   110   108   ar
   111   111   110    1
   112   112   110   ar
   113   113   112    1
   114   114   105   ar
   115   115   114    1
   116     9    20    1
   117    10    20    1
   118    12    21    1
   119    13    21    1
   120    23    25    1
   121    24    26    1
   122    35    37   ar
   123    46    48   ar
   124    57    59   ar
   125    68    70   ar
   126    79    81   ar
   127    90    92   ar
   128   101   103   ar
   129   112   114   ar
@<TRIPOS>SUBSTRUCTURE
     1 RES1        1 GROUP             0 ****  ****    0  
@<TRIPOS>CRYSIN
   16.8740   20.4770   31.7050   90.0000  104.6200   90.0000    15     1
