@<TRIPOS>MOLECULE
FERWIK
   104   115     2     0     0
SMALL
NO_CHARGES
****
Generated from the CSD

@<TRIPOS>ATOM
     1 Fe1     11.0208   2.6772  11.9710   Fe        1 RES1   0.0000
     2 F1       7.3288   5.3694  12.5282   F         1 RES1   0.0000
     3 F2       7.8372   5.4137  10.4184   F         1 RES1   0.0000
     4 F3       6.1058   4.3312  11.1034   F         1 RES1   0.0000
     5 O1       9.4438   3.5621  11.3919   O.co2     1 RES1   0.0000
     6 O2       7.6701   2.3921  12.1204   O.co2     1 RES1   0.0000
     7 C1       8.2046   3.3805  11.6465   C.2       1 RES1   0.0000
     8 C2       7.3771   4.6012  11.4048   C.3       1 RES1   0.0000
     9 O3      13.4863   1.7118  12.7732   O.2       1 RES1   0.0000
    10 N1      12.4410   2.0709  12.4540   N.2       1 RES1   0.0000
    11 N2      10.2427   2.5308  13.8160   N.2       1 RES1   0.0000
    12 N3      10.2682   0.8748  11.5257   N.2       1 RES1   0.0000
    13 N4      11.6871   2.8663  10.0815   N.2       1 RES1   0.0000
    14 N5      11.6778   4.5424  12.3799   N.2       1 RES1   0.0000
    15 C3       9.6002   1.4635  14.3559   C.2       1 RES1   0.0000
    16 C4       9.2146   1.7500  15.7195   C.2       1 RES1   0.0000
    17 H1       8.7437   1.1737  16.3094   H         1 RES1   0.0000
    18 C5       9.6539   2.9949  15.9886   C.2       1 RES1   0.0000
    19 H2       9.5549   3.4559  16.8122   H         1 RES1   0.0000
    20 C6      10.2994   3.5037  14.8088   C.2       1 RES1   0.0000
    21 C7      10.8927   4.7479  14.7073   C.2       1 RES1   0.0000
    22 C8      11.5305   5.2370  13.5597   C.2       1 RES1   0.0000
    23 C9      12.1198   6.5235  13.4549   C.2       1 RES1   0.0000
    24 H3      12.1533   7.1886  14.1319   H         1 RES1   0.0000
    25 C10     12.6257   6.6194  12.1994   C.2       1 RES1   0.0000
    26 H4      13.0825   7.3647  11.8287   H         1 RES1   0.0000
    27 C11     12.3366   5.3736  11.5353   C.2       1 RES1   0.0000
    28 C12     12.6967   5.1222  10.1927   C.2       1 RES1   0.0000
    29 C13     12.3652   3.9307   9.5529   C.2       1 RES1   0.0000
    30 C14     12.6988   3.6549   8.1652   C.2       1 RES1   0.0000
    31 H5      13.1642   4.2326   7.5704   H         1 RES1   0.0000
    32 C15     12.2275   2.4347   7.8831   C.2       1 RES1   0.0000
    33 H6      12.2956   1.9862   7.0498   H         1 RES1   0.0000
    34 C16     11.5949   1.9226   9.0822   C.2       1 RES1   0.0000
    35 C17     11.0036   0.6781   9.1644   C.2       1 RES1   0.0000
    36 C18     10.3811   0.1971  10.3168   C.2       1 RES1   0.0000
    37 C19      9.7550  -1.0792  10.4361   C.2       1 RES1   0.0000
    38 H7       9.6752  -1.7293   9.7463   H         1 RES1   0.0000
    39 C20      9.2967  -1.2017  11.6949   C.2       1 RES1   0.0000
    40 H8       8.8412  -1.9504  12.0608   H         1 RES1   0.0000
    41 C21      9.6256   0.0096  12.3751   C.2       1 RES1   0.0000
    42 C22      9.2984   0.2702  13.7273   C.2       1 RES1   0.0000
    43 C23     10.8682   5.6200  15.9241   C.ar      1 RES1   0.0000
    44 C24      9.9002   6.5690  16.0902   C.ar      1 RES1   0.0000
    45 H9       9.2620   6.7165  15.4036   H         1 RES1   0.0000
    46 C25      9.8428   7.3342  17.2780   C.ar      1 RES1   0.0000
    47 H10      9.1722   7.9996  17.3828   H         1 RES1   0.0000
    48 C26     10.7608   7.1116  18.2821   C.ar      1 RES1   0.0000
    49 H11     10.7139   7.6207  19.0816   H         1 RES1   0.0000
    50 C27     11.7367   6.1642  18.1371   C.ar      1 RES1   0.0000
    51 H12     12.3709   6.0188  18.8285   H         1 RES1   0.0000
    52 C28     11.7901   5.4072  16.9524   C.ar      1 RES1   0.0000
    53 H13     12.4617   4.7429  16.8493   H         1 RES1   0.0000
    54 C29     13.4329   6.1663   9.4546   C.ar      1 RES1   0.0000
    55 C30     12.7697   7.0858   8.6777   C.ar      1 RES1   0.0000
    56 H14     11.8224   7.0483   8.6052   H         1 RES1   0.0000
    57 C31     13.4782   8.0757   7.9911   C.ar      1 RES1   0.0000
    58 H15     13.0074   8.7161   7.4721   H         1 RES1   0.0000
    59 C32     14.8377   8.1339   8.0588   C.ar      1 RES1   0.0000
    60 H16     15.3129   8.7990   7.5769   H         1 RES1   0.0000
    61 C33     15.5100   7.2245   8.8260   C.ar      1 RES1   0.0000
    62 H17     16.4568   7.2672   8.8904   H         1 RES1   0.0000
    63 C34     14.8130   6.2406   9.5126   C.ar      1 RES1   0.0000
    64 H18     15.2920   5.6052  10.0300   H         1 RES1   0.0000
    65 C35     11.0228  -0.1947   7.9621   C.ar      1 RES1   0.0000
    66 C36     10.0232  -0.1346   6.9821   C.ar      1 RES1   0.0000
    67 H19      9.2870   0.4515   7.1095   H         1 RES1   0.0000
    68 C37     10.0779  -0.9108   5.8233   C.ar      1 RES1   0.0000
    69 H20      9.3927  -0.8453   5.1689   H         1 RES1   0.0000
    70 C38     11.1312  -1.7663   5.6411   C.ar      1 RES1   0.0000
    71 H21     11.1769  -2.2926   4.8514   H         1 RES1   0.0000
    72 C39     12.1318  -1.8732   6.5921   C.ar      1 RES1   0.0000
    73 H22     12.8610  -2.4675   6.4583   H         1 RES1   0.0000
    74 C40     12.0488  -1.0924   7.7558   C.ar      1 RES1   0.0000
    75 H23     12.7218  -1.1837   8.4214   H         1 RES1   0.0000
    76 C41      8.5879  -0.8037  14.4865   C.ar      1 RES1   0.0000
    77 C42      7.2119  -0.8265  14.5622   C.ar      1 RES1   0.0000
    78 H24      6.6984  -0.1721  14.1029   H         1 RES1   0.0000
    79 C43      6.5705  -1.8172  15.3165   C.ar      1 RES1   0.0000
    80 H25      5.6224  -1.8384  15.3584   H         1 RES1   0.0000
    81 C44      7.3078  -2.7587  15.9967   C.ar      1 RES1   0.0000
    82 H26      6.8682  -3.4185  16.5205   H         1 RES1   0.0000
    83 C45      8.6669  -2.7441  15.9177   C.ar      1 RES1   0.0000
    84 H27      9.1750  -3.4043  16.3722   H         1 RES1   0.0000
    85 C46      9.3125  -1.7660  15.1731   C.ar      1 RES1   0.0000
    86 H28     10.2607  -1.7557  15.1328   H         1 RES1   0.0000
    87 C47     18.4483  10.5288  13.0310   C.3       2 RES2   0.0000
    88 H29     18.3632  11.1436  12.2590   H         2 RES2   0.0000
    89 H30     17.9788  10.9405  13.7999   H         2 RES2   0.0000
    90 C48     17.7762   9.2030  12.6894   C.3       2 RES2   0.0000
    91 H31     16.8328   9.3606  12.4331   H         2 RES2   0.0000
    92 H32     17.7906   8.6054  13.4775   H         2 RES2   0.0000
    93 C49     18.5378   8.5430  11.5144   C.3       2 RES2   0.0000
    94 H33     18.1288   7.6660  11.3032   H         2 RES2   0.0000
    95 H34     18.4714   9.1161  10.7101   H         2 RES2   0.0000
    96 C50     19.9932   8.3513  11.8835   C.3       2 RES2   0.0000
    97 H35     20.0550   7.7341  12.6555   H         2 RES2   0.0000
    98 H36     20.4707   7.9368  11.1227   H         2 RES2   0.0000
    99 C51     20.6591   9.6561  12.2381   C.3       2 RES2   0.0000
   100 H37     20.6959  10.2374  11.4370   H         2 RES2   0.0000
   101 H38     21.5879   9.4846  12.5346   H         2 RES2   0.0000
   102 C52     19.8769  10.3759  13.3679   C.3       2 RES2   0.0000
   103 H39     19.9610   9.8554  14.2060   H         2 RES2   0.0000
   104 H40     20.2737  11.2688  13.5226   H         2 RES2   0.0000
@<TRIPOS>BOND
     1     1     5    1
     2     2     8    1
     3     3     8    1
     4     4     8    1
     5     5     7    1
     6     6     7    2
     7     7     8    1
     8     9    10    2
     9    10     1    2
    10    11     1    1
    11    12     1    1
    12    13     1    1
    13    14     1    1
    14    15    11    2
    15    16    15    1
    16    17    16    1
    17    18    16    2
    18    19    18    1
    19    20    11    1
    20    21    20    2
    21    22    14    1
    22    23    22    2
    23    24    23    1
    24    25    23    1
    25    26    25    1
    26    27    14    1
    27    28    27    1
    28    29    13    1
    29    30    29    1
    30    31    30    1
    31    32    30    2
    32    33    32    1
    33    34    13    2
    34    35    34    1
    35    36    12    1
    36    37    36    1
    37    38    37    1
    38    39    37    2
    39    40    39    1
    40    41    12    1
    41    42    15    1
    42    43    21    1
    43    44    43   ar
    44    45    44    1
    45    46    44   ar
    46    47    46    1
    47    48    46   ar
    48    49    48    1
    49    50    48   ar
    50    51    50    1
    51    52    43   ar
    52    53    52    1
    53    54    28    1
    54    55    54   ar
    55    56    55    1
    56    57    55   ar
    57    58    57    1
    58    59    57   ar
    59    60    59    1
    60    61    59   ar
    61    62    61    1
    62    63    54   ar
    63    64    63    1
    64    65    35    1
    65    66    65   ar
    66    67    66    1
    67    68    66   ar
    68    69    68    1
    69    70    68   ar
    70    71    70    1
    71    72    70   ar
    72    73    72    1
    73    74    65   ar
    74    75    74    1
    75    76    42    1
    76    77    76   ar
    77    78    77    1
    78    79    77   ar
    79    80    79    1
    80    81    79   ar
    81    82    81    1
    82    83    81   ar
    83    84    83    1
    84    85    76   ar
    85    86    85    1
    86    18    20    1
    87    21    22    1
    88    25    27    2
    89    28    29    2
    90    32    34    1
    91    35    36    2
    92    39    41    1
    93    41    42    2
    94    50    52   ar
    95    61    63   ar
    96    72    74   ar
    97    83    85   ar
    98    87    88    1
    99    89    87    1
   100    90    87    1
   101    91    90    1
   102    92    90    1
   103    93    90    1
   104    94    93    1
   105    95    93    1
   106    96    93    1
   107    97    96    1
   108    98    96    1
   109    99    96    1
   110   100    99    1
   111   101    99    1
   112   102    87    1
   113   103   102    1
   114   104   102    1
   115    99   102    1
@<TRIPOS>SUBSTRUCTURE
     1 RES1        1 GROUP             0 ****  ****    0  
     2 RES2       87 GROUP             0 ****  ****    0  
@<TRIPOS>CRYSIN
   11.0550   13.2040   16.9530   85.0740   72.1300   65.6930     2     1
