@<TRIPOS>MOLECULE
FEWXAG
   112   123     4     0     0
SMALL
USER_CHARGES
****
Generated from the CSD

@<TRIPOS>ATOM
     1 Fe1      3.5475   1.6792   3.3271   Fe        1 RES1   1.0000
     2 N1       3.4088   0.9852   5.1725   N.2       1 RES1   0.0000
     3 N2       4.3987   3.3245   3.9821   N.2       1 RES1   0.0000
     4 N3       3.7340   2.3393   1.4840   N.2       1 RES1   0.0000
     5 N4       2.6510   0.0508   2.6698   N.2       1 RES1   0.0000
     6 N5       1.8128   2.6694   3.5914   N.ar      1 RES1   0.0000
     7 N6       5.3057   0.7126   3.1984   N.ar      1 RES1   0.0000
     8 N7       0.0195   3.9220   3.3926   N.ar      1 RES1   0.0000
     9 N8       7.3934   0.0796   3.1080   N.ar      1 RES1   0.0000
    10 C1       2.7294  -0.1405   5.6039   C.2       1 RES1   0.0000
    11 C2       4.0932   1.4811   6.2770   C.2       1 RES1   0.0000
    12 C3       4.8241   3.5885   5.2719   C.2       1 RES1   0.0000
    13 C4       4.5404   4.5110   3.2910   C.2       1 RES1   0.0000
    14 C5       4.0573   3.6088   1.0752   C.2       1 RES1   0.0000
    15 C6       3.5654   1.6047   0.3140   C.2       1 RES1   0.0000
    16 C7       2.5651  -0.3741   1.3598   C.2       1 RES1   0.0000
    17 C8       1.9948  -0.9174   3.4220   C.2       1 RES1   0.0000
    18 C9       3.0005  -0.3538   7.0088   C.2       1 RES1   0.0000
    19 C10      3.8433   0.6246   7.4199   C.2       1 RES1   0.0000
    20 C11      5.2347   4.9596   5.3803   C.2       1 RES1   0.0000
    21 C12      5.0397   5.5385   4.1673   C.2       1 RES1   0.0000
    22 C13      4.0951   3.6630  -0.3569   C.2       1 RES1   0.0000
    23 C14      3.8123   2.4409  -0.8177   C.2       1 RES1   0.0000
    24 C15      1.8222  -1.5979   1.2852   C.2       1 RES1   0.0000
    25 C16      1.4599  -1.9144   2.5478   C.2       1 RES1   0.0000
    26 C17      4.7516   2.6931   6.3448   C.2       1 RES1   0.0000
    27 C18      4.3667   4.6702   1.9357   C.2       1 RES1   0.0000
    28 C19      3.0339   0.3148   0.2552   C.2       1 RES1   0.0000
    29 C20      1.9991  -0.9970   4.8066   C.2       1 RES1   0.0000
    30 C21      5.3073   3.1281   7.6819   C.ar      1 RES1   0.0000
    31 C22      4.5114   3.8441   8.5244   C.ar      1 RES1   0.0000
    32 C23      4.9750   4.2538   9.7306   C.ar      1 RES1   0.0000
    33 C24      6.2165   3.9118  10.1010   C.ar      1 RES1   0.0000
    34 C25      7.0528   3.1958   9.2992   C.ar      1 RES1   0.0000
    35 C26      6.5703   2.7930   8.0523   C.ar      1 RES1   0.0000
    36 C27      4.6408   6.0108   1.3349   C.ar      1 RES1   0.0000
    37 C28      5.9302   6.4255   1.1248   C.ar      1 RES1   0.0000
    38 C29      6.1894   7.6899   0.5602   C.ar      1 RES1   0.0000
    39 C30      5.1617   8.5041   0.2168   C.ar      1 RES1   0.0000
    40 C31      3.8720   8.0877   0.3772   C.ar      1 RES1   0.0000
    41 C32      3.6101   6.8250   0.9419   C.ar      1 RES1   0.0000
    42 C33      2.8491  -0.3284  -1.0887   C.ar      1 RES1   0.0000
    43 C34      3.7405  -1.2780  -1.5472   C.ar      1 RES1   0.0000
    44 C35      3.5212  -1.9144  -2.7805   C.ar      1 RES1   0.0000
    45 C36      2.4150  -1.5827  -3.5213   C.ar      1 RES1   0.0000
    46 C37      1.5440  -0.6466  -3.0786   C.ar      1 RES1   0.0000
    47 C38      1.7531  -0.0102  -1.8476   C.ar      1 RES1   0.0000
    48 C39      1.3030  -2.1345   5.4751   C.ar      1 RES1   0.0000
    49 C40      0.2329  -1.8569   6.3357   C.ar      1 RES1   0.0000
    50 C41     -0.3932  -2.9148   7.0043   C.ar      1 RES1   0.0000
    51 C42      0.0289  -4.2216   6.8033   C.ar      1 RES1   0.0000
    52 C43      1.0550  -4.4907   5.9563   C.ar      1 RES1   0.0000
    53 C44      1.6886  -3.4345   5.2899   C.ar      1 RES1   0.0000
    54 C45      1.4966   3.2432   4.8427   C.ar      1 RES1   0.0000
    55 C46      0.4114   4.0015   4.7072   C.ar      1 RES1   0.0000
    56 C47      0.8756   3.1010   2.7511   C.ar      1 RES1   0.0000
    57 C48      0.6990   2.7913   1.2942   C.3       1 RES1   0.0000
    58 C49      5.3837  -0.6551   3.4649   C.ar      1 RES1   0.0000
    59 C50      6.6691  -1.0342   3.3926   C.ar      1 RES1   0.0000
    60 C51      6.5604   1.1392   2.9973   C.ar      1 RES1   0.0000
    61 C52      7.0483   2.5086   2.6382   C.3       1 RES1   0.0000
    62 H1       2.6508  -1.0546   7.5486   H         1 RES1   0.0000
    63 H2       4.2030   0.7296   8.2940   H         1 RES1   0.0000
    64 H3       5.5796   5.3845   6.1573   H         1 RES1   0.0000
    65 H4       5.2016   6.4475   3.9415   H         1 RES1   0.0000
    66 H5       4.2876   4.4298  -0.8832   H         1 RES1   0.0000
    67 H6       3.7806   2.1768  -1.7302   H         1 RES1   0.0000
    68 H7       1.6225  -2.0922   0.4992   H         1 RES1   0.0000
    69 H8       0.9415  -2.6660   2.8076   H         1 RES1   0.0000
    70 H9       3.6234   4.0591   8.2647   H         1 RES1   0.0000
    71 H10      4.4278   4.7751  10.3043   H         1 RES1   0.0000
    72 H11      6.5265   4.1793  10.9593   H         1 RES1   0.0000
    73 H12      7.9328   2.9775   9.5792   H         1 RES1   0.0000
    74 H13      7.1232   2.2868   7.4673   H         1 RES1   0.0000
    75 H14      6.6544   5.8567   1.3620   H         1 RES1   0.0000
    76 H15      7.0858   7.9726   0.4201   H         1 RES1   0.0000
    77 H16      5.3414   9.3674  -0.1378   H         1 RES1   0.0000
    78 H17      3.1534   8.6480   0.1084   H         1 RES1   0.0000
    79 H18      2.7107   6.5355   1.0526   H         1 RES1   0.0000
    80 H19      4.5035  -1.5014  -1.0277   H         1 RES1   0.0000
    81 H20      4.1332  -2.5678  -3.0990   H         1 RES1   0.0000
    82 H21      2.2595  -2.0143  -4.3526   H         1 RES1   0.0000
    83 H22      0.7854  -0.4198  -3.6049   H         1 RES1   0.0000
    84 H23      1.1354   0.6415  -1.5382   H         1 RES1   0.0000
    85 H24     -0.0623  -0.9631   6.4645   H         1 RES1   0.0000
    86 H25     -1.1107  -2.7371   7.6006   H         1 RES1   0.0000
    87 H26     -0.4044  -4.9325   7.2618   H         1 RES1   0.0000
    88 H27      1.3398  -5.3862   5.8162   H         1 RES1   0.0000
    89 H28      2.4034  -3.6258   4.6936   H         1 RES1   0.0000
    90 H29      2.0471   3.0909   5.7597   H         1 RES1   0.0000
    91 H30     -0.0141   4.5043   5.3916   H         1 RES1   0.0000
    92 H31      0.9227   1.7350   1.3146   H         1 RES1   0.0000
    93 H32     -0.3351   2.9368   1.0164   H         1 RES1   0.0000
    94 H33      1.4564   3.3075   0.7205   H         1 RES1   0.0000
    95 H34     -0.7241   4.3672   3.0041   H         1 RES1   0.0000
    96 H35      4.5482  -1.3017   3.6908   H         1 RES1   0.0000
    97 H36      7.0082  -1.9128   3.5168   H         1 RES1   0.0000
    98 H37      6.9698   3.1569   3.4988   H         1 RES1   0.0000
    99 H38      6.4531   2.9081   1.8296   H         1 RES1   0.0000
   100 H39      8.0825   2.4544   2.3333   H         1 RES1   0.0000
   101 H40      8.3368   0.1100   3.0041   H         1 RES1   0.0000
   102 Cl1      0.1205   5.8652   8.6441   Cl        2 RES2   0.0000
   103 O1      -0.7112   5.3083   9.5612   O.2       2 RES2   0.0000
   104 O2      -0.5008   5.6299   7.4538   O.2       2 RES2   0.0000
   105 O3       1.3433   5.3506   8.7684   O.2       2 RES2   0.0000
   106 O4       0.3004   7.2007   8.8000   O.3       2 RES2  -1.0000
   107 O5       9.4543   0.4621   6.1053   O.3       3 RES3   0.0000
   108 C53      8.8023  -0.6415   6.7287   C.3       3 RES3   0.0000
   109 C54      9.3446  -0.7753   8.0862   C.3       3 RES3   0.0000
   110 C55     10.3121   0.2437   8.2692   C.3       3 RES3   0.0000
   111 C56     10.3835   1.0224   7.0269   C.3       3 RES3   0.0000
   112 O6      10.1715   0.9174   3.5055   O.3       4 RES4   0.0000
@<TRIPOS>BOND
     1     1     2    1
     2     2    10    2
     3     3     1    1
     4     4     1    1
     5     5     1    1
     6     6     1    1
     7     7     1    1
     8     8    55   ar
     9     9    59   ar
    10    10    18    1
    11    11     2    1
    12    12     3    1
    13    13     3    1
    14    14     4    1
    15    15     4    2
    16    16     5    1
    17    17     5    1
    18    18    19    2
    19    19    11    1
    20    20    12    2
    21    21    13    2
    22    22    14    1
    23    23    15    1
    24    24    16    1
    25    25    17    1
    26    26    11    2
    27    27    13    1
    28    28    15    1
    29    29    10    1
    30    30    26    1
    31    31    30   ar
    32    32    31   ar
    33    33    32   ar
    34    34    33   ar
    35    35    30   ar
    36    36    27    1
    37    37    36   ar
    38    38    37   ar
    39    39    38   ar
    40    40    39   ar
    41    41    36   ar
    42    42    28    1
    43    43    42   ar
    44    44    43   ar
    45    45    44   ar
    46    46    45   ar
    47    47    42   ar
    48    48    29    1
    49    49    48   ar
    50    50    49   ar
    51    51    50   ar
    52    52    51   ar
    53    53    48   ar
    54    54     6   ar
    55    55    54   ar
    56    56     6   ar
    57    57    56    1
    58    58     7   ar
    59    59    58   ar
    60    60     7   ar
    61    61    60    1
    62    62    18    1
    63    63    19    1
    64    64    20    1
    65    65    21    1
    66    66    22    1
    67    67    23    1
    68    68    24    1
    69    69    25    1
    70    70    31    1
    71    71    32    1
    72    72    33    1
    73    73    34    1
    74    74    35    1
    75    75    37    1
    76    76    38    1
    77    77    39    1
    78    78    40    1
    79    79    41    1
    80    80    43    1
    81    81    44    1
    82    82    45    1
    83    83    46    1
    84    84    47    1
    85    85    49    1
    86    86    50    1
    87    87    51    1
    88    88    52    1
    89    89    53    1
    90    90    54    1
    91    91    55    1
    92    92    57    1
    93    93    57    1
    94    94    57    1
    95    95     8    1
    96    96    58    1
    97    97    59    1
    98    98    61    1
    99    99    61    1
   100   100    61    1
   101   101     9    1
   102     8    56   ar
   103     9    60   ar
   104    12    26    1
   105    14    27    2
   106    16    28    2
   107    17    29    2
   108    20    21    1
   109    22    23    2
   110    24    25    2
   111    34    35   ar
   112    40    41   ar
   113    46    47   ar
   114    52    53   ar
   115   102   103    2
   116   104   102    2
   117   105   102    2
   118   106   102    1
   119   107   108    1
   120   108   109    1
   121   109   110    1
   122   110   111    1
   123   111   107    1
@<TRIPOS>SUBSTRUCTURE
     1 RES1        1 GROUP             0 ****  ****    0  
     2 RES2      102 GROUP             0 ****  ****    0  
     3 RES3      107 GROUP             0 ****  ****    0  
     4 RES4      112 GROUP             0 ****  ****    0  
@<TRIPOS>CRYSIN
   26.9430   16.9270   23.3580   90.0000  104.7600   90.0000    15     1
