@<TRIPOS>MOLECULE
FEYZIV01
   110   110     4     0     0
SMALL
USER_CHARGES
****
Generated from the CSD

@<TRIPOS>ATOM
     1 Fe1      5.7753   0.0000   0.0000   Fe        1 RES1   2.0000
     2 N1       5.0718  -2.4984   3.1231   N.pl3     1 RES1   0.0000
     3 N2       5.3083  -1.2960   2.5830   N.2       1 RES1   0.0000
     4 N3       5.3046  -1.4788   1.2729   N.2       1 RES1   0.0000
     5 C1       5.0533  -2.6277   4.5898   C.3       1 RES1   0.0000
     6 H1       5.4860  -1.8318   4.9893   H         1 RES1   0.0000
     7 H2       5.5833  -3.4223   4.8488   H         1 RES1   0.0000
     8 C2       3.6424  -2.7653   5.1569   C.3       1 RES1   0.0000
     9 H3       3.2142  -3.5663   4.7644   H         1 RES1   0.0000
    10 H4       3.7016  -2.9028   6.1357   H         1 RES1   0.0000
    11 C3       5.0701  -2.7909   0.9969   C.2       1 RES1   0.0000
    12 H5       5.0160  -3.1780   0.1305   H         1 RES1   0.0000
    13 C4       4.9268  -3.4585   2.1865   C.2       1 RES1   0.0000
    14 C5       4.7463  -4.9056   2.5097   C.3       1 RES1   0.0000
    15 H6       4.0600  -4.9951   3.2174   H         1 RES1   0.0000
    16 H7       5.5976  -5.2648   2.8661   H         1 RES1   0.0000
    17 C6       4.3280  -5.7351   1.3101   C.3       1 RES1   0.0000
    18 H8       3.4185  -5.4861   1.0430   H         1 RES1   0.0000
    19 H9       4.3502  -6.6852   1.5470   H         1 RES1   0.0000
    20 H10      4.9439  -5.5681   0.5672   H         1 RES1   0.0000
    21 N4       2.6807   2.5591   0.7007   N.pl3     1 RES1   0.0000
    22 N5       3.5122   1.8569  -0.0833   N.2       1 RES1   0.0000
    23 N6       4.2985   1.1822   0.7278   N.2       1 RES1   0.0000
    24 C7       1.6905   3.4606   0.0934   C.3       1 RES1   0.0000
    25 H11      0.8014   3.2787   0.4899   H         1 RES1   0.0000
    26 H12      1.6340   3.2731  -0.8774   H         1 RES1   0.0000
    27 C8       2.0354   4.9345   0.2982   C.3       1 RES1   0.0000
    28 H13      1.3307   5.4924  -0.1154   H         1 RES1   0.0000
    29 H14      2.0475   5.1322   1.2689   H         1 RES1   0.0000
    30 C9       3.9777   1.4570   2.0098   C.2       1 RES1   0.0000
    31 H15      4.4042   1.1000   2.7798   H         1 RES1   0.0000
    32 C10      2.9290   2.3424   2.0088   C.2       1 RES1   0.0000
    33 C11      2.1321   2.9876   3.1060   C.3       1 RES1   0.0000
    34 H16      2.5944   3.8123   3.3981   H         1 RES1   0.0000
    35 H17      1.2457   3.2466   2.7516   H         1 RES1   0.0000
    36 C12      1.9433   2.0979   4.2785   C.3       1 RES1   0.0000
    37 H18      1.4062   1.3206   4.0165   H         1 RES1   0.0000
    38 H19      1.4815   2.5884   4.9903   H         1 RES1   0.0000
    39 H20      2.8176   1.7960   4.6038   H         1 RES1   0.0000
    40 N7       6.9427   0.7597   1.3643   N.1       1 RES1   0.0000
    41 C13      7.4390   1.1636   2.2989   C.1       1 RES1   0.0000
    42 C14      8.0558   1.6723   3.5206   C.3       1 RES1   0.0000
    43 H21      7.8514   2.6253   3.6170   H         1 RES1   0.0000
    44 H22      9.0264   1.5486   3.4724   H         1 RES1   0.0000
    45 H23      7.7011   1.1823   4.2926   H         1 RES1   0.0000
    46 N1A      1.3433  -1.8220   6.9158   N.pl3     1 RES1   0.0000
    47 N2A      1.1068  -3.0244   7.4558   N.2       1 RES1   0.0000
    48 N3A      1.1105  -2.8415   8.7659   N.2       1 RES1   0.0000
    49 C1A      1.3618  -1.6927   5.4491   C.3       1 RES1   0.0000
    50 H1A      0.9291  -2.4886   5.0495   H         1 RES1   0.0000
    51 H2A      0.8318  -0.8980   5.1901   H         1 RES1   0.0000
    52 C2A      2.7727  -1.5551   4.8819   C.3       1 RES1   0.0000
    53 H3A      3.2009  -0.7541   5.2744   H         1 RES1   0.0000
    54 H4A      2.7135  -1.4176   3.9031   H         1 RES1   0.0000
    55 C3A      1.3450  -1.5295   9.0420   C.2       1 RES1   0.0000
    56 H5A      1.3991  -1.1423   9.9083   H         1 RES1   0.0000
    57 C4A      1.4883  -0.8618   7.8524   C.2       1 RES1   0.0000
    58 C5A      1.6688   0.5852   7.5291   C.3       1 RES1   0.0000
    59 H6A      2.3550   0.6747   6.8214   H         1 RES1   0.0000
    60 H7A      0.8175   0.9445   7.1727   H         1 RES1   0.0000
    61 C6A      2.0871   1.4148   8.7288   C.3       1 RES1   0.0000
    62 H8A      2.9966   1.1657   8.9958   H         1 RES1   0.0000
    63 H9A      2.0649   2.3648   8.4918   H         1 RES1   0.0000
    64 H10A     1.4712   1.2477   9.4716   H         1 RES1   0.0000
    65 N4A      2.7293   7.6832  -0.7007   N.pl3     1 RES1   0.0000
    66 N5A      1.8978   8.3854   0.0833   N.2       1 RES1   0.0000
    67 N6A      1.1115   9.0602  -0.7278   N.2       1 RES1   0.0000
    68 C7A      3.7195   6.7817  -0.0934   C.3       1 RES1   0.0000
    69 H11A     4.6086   6.9636  -0.4899   H         1 RES1   0.0000
    70 H12A     3.7759   6.9692   0.8774   H         1 RES1   0.0000
    71 C8A      3.3746   5.3079  -0.2982   C.3       1 RES1   0.0000
    72 H13A     4.0793   4.7499   0.1154   H         1 RES1   0.0000
    73 H14A     3.3624   5.1101  -1.2689   H         1 RES1   0.0000
    74 C9A      1.4323   8.7853  -2.0098   C.2       1 RES1   0.0000
    75 H15A     1.0058   9.1423  -2.7798   H         1 RES1   0.0000
    76 C10A     2.4810   7.8999  -2.0088   C.2       1 RES1   0.0000
    77 C11A     3.2779   7.2547  -3.1060   C.3       1 RES1   0.0000
    78 H16A     2.8156   6.4300  -3.3981   H         1 RES1   0.0000
    79 H17A     4.1642   6.9957  -2.7516   H         1 RES1   0.0000
    80 C12A     3.4667   8.1445  -4.2785   C.3       1 RES1   0.0000
    81 H18A     4.0037   8.9217  -4.0165   H         1 RES1   0.0000
    82 H19A     3.9285   7.6539  -4.9903   H         1 RES1   0.0000
    83 H20A     2.5924   8.4463  -4.6038   H         1 RES1   0.0000
    84 N7A      4.6079  -0.7597  -1.3643   N.1       1 RES1   0.0000
    85 C13A     4.1116  -1.1636  -2.2989   C.1       1 RES1   0.0000
    86 C14A     3.4948  -1.6723  -3.5206   C.3       1 RES1   0.0000
    87 H21A     3.6992  -2.6253  -3.6170   H         1 RES1   0.0000
    88 H22A     2.5242  -1.5486  -3.4724   H         1 RES1   0.0000
    89 H23A     3.8495  -1.1823  -4.2926   H         1 RES1   0.0000
    90 Fe1     -0.3653  10.2423   0.0000   Fe        1 RES1   2.0000
    91 Fe1      0.6398  -4.3204  10.0388   Fe        1 RES1   2.0000
    92 N3A      6.2460   1.4788  -1.2729   N.3       1 RES1   0.0000
    93 N6A      7.2521  -1.1822  -0.7278   N.3       1 RES1   0.0000
    94 Cl1      6.0743   5.2179   3.0248   Cl        2 RES2   0.0000
    95 O1       6.7299   4.8229   4.2344   O.3       2 RES2  -1.0000
    96 O2       6.2369   4.1901   2.0539   O.2       2 RES2   0.0000
    97 O3       4.7110   5.4116   3.2877   O.2       2 RES2   0.0000
    98 O4       6.6849   6.4198   2.5730   O.2       2 RES2   0.0000
    99 C15      6.5582   9.1808  -0.5060   C.1       3 RES3   0.0000
   100 N8       5.9102   9.3796  -1.6604   N.1       3 RES3   0.0000
   101 C16      7.1521   9.0585   0.8633   C.3       3 RES3   0.0000
   102 H24      6.6706   9.6476   1.4817   H         3 RES3   0.0000
   103 H25      8.0973   9.3175   0.8352   H         3 RES3   0.0000
   104 H26      7.0759   8.1305   1.1705   H         3 RES3   0.0000
   105 N9       7.9305  -3.6842   3.7033   N.1       4 RES4   0.0000
   106 C17      8.6511  -2.8178   3.4323   C.1       4 RES4   0.0000
   107 C18      9.5728  -1.7439   3.1120   C.3       4 RES4   0.0000
   108 H27      9.5429  -1.0658   3.8188   H         4 RES4   0.0000
   109 H28      9.3172  -1.3383   2.2577   H         4 RES4   0.0000
   110 H29     10.4821  -2.1037   3.0438   H         4 RES4   0.0000
@<TRIPOS>BOND
     1     1     4    1
     2     2     3    1
     3     3     4    2
     4     4    11    1
     5     5     2    1
     6     6     5    1
     7     7     5    1
     8     8     5    1
     9     9     8    1
    10    10     8    1
    11    11    12    1
    12    13     2    1
    13    14    13    1
    14    15    14    1
    15    16    14    1
    16    17    14    1
    17    18    17    1
    18    19    17    1
    19    20    17    1
    20    21    22    1
    21    22    23    2
    22    23     1    1
    23    24    21    1
    24    25    24    1
    25    26    24    1
    26    27    24    1
    27    28    27    1
    28    29    27    1
    29    30    23    1
    30    31    30    1
    31    32    21    1
    32    33    32    1
    33    34    33    1
    34    35    33    1
    35    36    33    1
    36    37    36    1
    37    38    36    1
    38    39    36    1
    39    40     1    1
    40    41    40    3
    41    42    41    1
    42    43    42    1
    43    44    42    1
    44    45    42    1
    45    46    47    1
    46    47    48    2
    47    48    55    1
    48    49    46    1
    49    50    49    1
    50    51    49    1
    51    52     8    1
    52    53    52    1
    53    54    52    1
    54    55    56    1
    55    57    46    1
    56    58    57    1
    57    59    58    1
    58    60    58    1
    59    61    58    1
    60    62    61    1
    61    63    61    1
    62    64    61    1
    63    65    66    1
    64    66    67    2
    65    67    74    1
    66    68    65    1
    67    69    68    1
    68    70    68    1
    69    71    27    1
    70    72    71    1
    71    73    71    1
    72    74    75    1
    73    76    65    1
    74    77    76    1
    75    78    77    1
    76    79    77    1
    77    80    77    1
    78    81    80    1
    79    82    80    1
    80    83    80    1
    81    84     1    1
    82    85    84    3
    83    86    85    1
    84    87    86    1
    85    88    86    1
    86    89    86    1
    87    90    67   un
    88    91    48   un
    89    92     1   un
    90    93     1   un
    91    11    13    2
    92    30    32    2
    93    49    52    1
    94    55    57    2
    95    68    71    1
    96    74    76    2
    97    94    95    1
    98    96    94    2
    99    97    94    2
   100    98    94    2
   101    99   100    3
   102   101    99    1
   103   102   101    1
   104   103   101    1
   105   104   101    1
   106   105   106    3
   107   106   107    1
   108   107   108    1
   109   109   107    1
   110   110   107    1
@<TRIPOS>SUBSTRUCTURE
     1 RES1        1 GROUP             0 ****  ****    0  
     2 RES2       94 GROUP             0 ****  ****    0  
     3 RES3       99 GROUP             0 ****  ****    0  
     4 RES4      105 GROUP             0 ****  ****    0  
@<TRIPOS>CRYSIN
   11.5506   11.5833   11.6586   62.6040   88.6510   62.1570     2     1
