@<TRIPOS>MOLECULE
FEYZIV02
   110   110     4     0     0
SMALL
USER_CHARGES
****
Generated from the CSD

@<TRIPOS>ATOM
     1 Fe1      5.7412   0.0000   0.0000   Fe        1 RES1   2.0000
     2 N1       4.9556  -2.5586   3.2547   N.pl3     1 RES1   0.0000
     3 N2       5.1967  -1.3672   2.6962   N.2       1 RES1   0.0000
     4 N3       5.2305  -1.5736   1.3893   N.2       1 RES1   0.0000
     5 C1       4.9025  -2.6618   4.7244   C.3       1 RES1   0.0000
     6 H1       5.3191  -1.8541   5.1190   H         1 RES1   0.0000
     7 H2       5.4340  -3.4458   5.0117   H         1 RES1   0.0000
     8 C2       3.4820  -2.7996   5.2610   C.3       1 RES1   0.0000
     9 H3       3.0642  -3.6052   4.8646   H         1 RES1   0.0000
    10 H4       3.5189  -2.9298   6.2417   H         1 RES1   0.0000
    11 C3       5.0155  -2.8902   1.1324   C.2       1 RES1   0.0000
    12 H5       4.9903  -3.2915   0.2717   H         1 RES1   0.0000
    13 C4       4.8406  -3.5415   2.3276   C.2       1 RES1   0.0000
    14 C5       4.6500  -4.9784   2.6646   C.3       1 RES1   0.0000
    15 H6       3.9236  -5.0604   3.3313   H         1 RES1   0.0000
    16 H7       5.4801  -5.3267   3.0769   H         1 RES1   0.0000
    17 C6       4.3082  -5.8241   1.4506   C.3       1 RES1   0.0000
    18 H8       3.4292  -5.5607   1.1063   H         1 RES1   0.0000
    19 H9       4.2874  -6.7699   1.7070   H         1 RES1   0.0000
    20 H10      4.9855  -5.6878   0.7559   H         1 RES1   0.0000
    21 N4       2.5194   2.6468   0.7263   N.pl3     1 RES1   0.0000
    22 N5       3.3869   1.9731  -0.0418   N.2       1 RES1   0.0000
    23 N6       4.1350   1.2663   0.7804   N.2       1 RES1   0.0000
    24 C7       1.5650   3.5740   0.1003   C.3       1 RES1   0.0000
    25 H11      0.6637   3.4134   0.4781   H         1 RES1   0.0000
    26 H12      1.5234   3.3880  -0.8714   H         1 RES1   0.0000
    27 C8       1.9401   5.0311   0.3114   C.3       1 RES1   0.0000
    28 H13      1.9736   5.2196   1.2820   H         1 RES1   0.0000
    29 H14      1.2406   5.6073  -0.0868   H         1 RES1   0.0000
    30 C9       3.7401   1.4944   2.0583   C.2       1 RES1   0.0000
    31 H15      4.1212   1.1017   2.8348   H         1 RES1   0.0000
    32 C10      2.6996   2.3871   2.0405   C.2       1 RES1   0.0000
    33 C11      1.8671   2.9986   3.1282   C.3       1 RES1   0.0000
    34 H16      0.9813   3.2450   2.7602   H         1 RES1   0.0000
    35 H17      2.3045   3.8271   3.4467   H         1 RES1   0.0000
    36 C12      1.6759   2.0567   4.2962   C.3       1 RES1   0.0000
    37 H18      1.1779   1.2650   3.9994   H         1 RES1   0.0000
    38 H19      1.1726   2.5112   5.0046   H         1 RES1   0.0000
    39 H20      2.5508   1.7810   4.6409   H         1 RES1   0.0000
    40 N7       7.0058   0.8705   1.5269   N.1       1 RES1   0.0000
    41 C13      7.3368   1.2450   2.5444   C.1       1 RES1   0.0000
    42 C14      7.7458   1.7130   3.8625   C.3       1 RES1   0.0000
    43 H21      7.5405   2.6677   3.9483   H         1 RES1   0.0000
    44 H22      8.7089   1.5756   3.9738   H         1 RES1   0.0000
    45 H23      7.2622   1.2115   4.5520   H         1 RES1   0.0000
    46 N1A      1.1417  -1.8329   6.9609   N.pl3     1 RES1   0.0000
    47 N2A      0.9005  -3.0244   7.5193   N.2       1 RES1   0.0000
    48 N3A      0.8667  -2.8179   8.8262   N.2       1 RES1   0.0000
    49 C1A      1.1947  -1.7297   5.4912   C.3       1 RES1   0.0000
    50 H1A      0.7781  -2.5374   5.0965   H         1 RES1   0.0000
    51 H2A      0.6632  -0.9457   5.2038   H         1 RES1   0.0000
    52 C2A      2.6152  -1.5919   4.9545   C.3       1 RES1   0.0000
    53 H3A      3.0330  -0.7863   5.3509   H         1 RES1   0.0000
    54 H4A      2.5783  -1.4617   3.9738   H         1 RES1   0.0000
    55 C3A      1.0817  -1.5013   9.0831   C.2       1 RES1   0.0000
    56 H5A      1.1069  -1.1001   9.9438   H         1 RES1   0.0000
    57 C4A      1.2566  -0.8500   7.8879   C.2       1 RES1   0.0000
    58 C5A      1.4472   0.5869   7.5509   C.3       1 RES1   0.0000
    59 H6A      2.1736   0.6689   6.8842   H         1 RES1   0.0000
    60 H7A      0.6172   0.9352   7.1386   H         1 RES1   0.0000
    61 C6A      1.7890   1.4326   8.7649   C.3       1 RES1   0.0000
    62 H8A      2.6680   1.1691   9.1092   H         1 RES1   0.0000
    63 H9A      1.8098   2.3784   8.5085   H         1 RES1   0.0000
    64 H10A     1.1117   1.2963   9.4596   H         1 RES1   0.0000
    65 N4A      2.7050   7.7584  -0.7263   N.pl3     1 RES1   0.0000
    66 N5A      1.8376   8.4322   0.0418   N.2       1 RES1   0.0000
    67 N6A      1.0894   9.1389  -0.7804   N.2       1 RES1   0.0000
    68 C7A      3.6594   6.8313  -0.1003   C.3       1 RES1   0.0000
    69 H11A     4.5608   6.9918  -0.4781   H         1 RES1   0.0000
    70 H12A     3.7010   7.0173   0.8714   H         1 RES1   0.0000
    71 C8A      3.2843   5.3742  -0.3114   C.3       1 RES1   0.0000
    72 H13A     3.2508   5.1856  -1.2820   H         1 RES1   0.0000
    73 H14A     3.9838   4.7980   0.0868   H         1 RES1   0.0000
    74 C9A      1.4844   8.9108  -2.0583   C.2       1 RES1   0.0000
    75 H15A     1.1032   9.3035  -2.8348   H         1 RES1   0.0000
    76 C10A     2.5248   8.0182  -2.0405   C.2       1 RES1   0.0000
    77 C11A     3.3573   7.4067  -3.1282   C.3       1 RES1   0.0000
    78 H16A     4.2431   7.1602  -2.7602   H         1 RES1   0.0000
    79 H17A     2.9199   6.5782  -3.4467   H         1 RES1   0.0000
    80 C12A     3.5485   8.3485  -4.2962   C.3       1 RES1   0.0000
    81 H18A     4.0466   9.1403  -3.9994   H         1 RES1   0.0000
    82 H19A     4.0518   7.8941  -5.0046   H         1 RES1   0.0000
    83 H20A     2.6736   8.6243  -4.6409   H         1 RES1   0.0000
    84 N7A      4.4766  -0.8705  -1.5269   N.1       1 RES1   0.0000
    85 C13A     4.1456  -1.2450  -2.5444   C.1       1 RES1   0.0000
    86 C14A     3.7366  -1.7130  -3.8625   C.3       1 RES1   0.0000
    87 H21A     3.9419  -2.6677  -3.9483   H         1 RES1   0.0000
    88 H22A     2.7735  -1.5756  -3.9738   H         1 RES1   0.0000
    89 H23A     4.2202  -1.2115  -4.5520   H         1 RES1   0.0000
    90 Fe1     -0.5168  10.4053   0.0000   Fe        1 RES1   2.0000
    91 Fe1      0.3560  -4.3915  10.2155   Fe        1 RES1   2.0000
    92 N3A      6.2519   1.5736  -1.3893   N.3       1 RES1   0.0000
    93 N6A      7.3474  -1.2663  -0.7804   N.3       1 RES1   0.0000
    94 Cl1      5.8447   5.2720   2.9644   Cl        2 RES2   0.0000
    95 O1       6.4713   4.9097   4.1988   O.3       2 RES2  -1.0000
    96 O2       6.0985   4.2613   1.9962   O.2       2 RES2   0.0000
    97 O3       4.4489   5.4062   3.1474   O.2       2 RES2   0.0000
    98 O4       6.4023   6.5053   2.5222   O.2       2 RES2   0.0000
    99 C15      6.3663   9.3138  -0.6150   C.1       3 RES3   0.0000
   100 N8       5.8996   9.4778  -1.6692   N.1       3 RES3   0.0000
   101 C16      6.9258   9.1028   0.7110   C.3       3 RES3   0.0000
   102 H24      6.4433   9.6538   1.3607   H         3 RES3   0.0000
   103 H25      7.8737   9.3544   0.7090   H         3 RES3   0.0000
   104 H26      6.8393   8.1581   0.9552   H         3 RES3   0.0000
   105 N9       7.8284  -3.7834   3.8390   N.1       4 RES4   0.0000
   106 C17      8.5161  -2.9171   3.5254   C.1       4 RES4   0.0000
   107 C18      9.4087  -1.8364   3.1535   C.3       4 RES4   0.0000
   108 H27      9.4162  -1.1593   3.8635   H         4 RES4   0.0000
   109 H28      9.0993  -1.4293   2.3179   H         4 RES4   0.0000
   110 H29     10.3150  -2.1891   3.0299   H         4 RES4   0.0000
@<TRIPOS>BOND
     1     1     4    1
     2     2     3    1
     3     3     4    2
     4     4    11    1
     5     5     2    1
     6     6     5    1
     7     7     5    1
     8     8     5    1
     9     9     8    1
    10    10     8    1
    11    11    12    1
    12    13     2    1
    13    14    13    1
    14    15    14    1
    15    16    14    1
    16    17    14    1
    17    18    17    1
    18    19    17    1
    19    20    17    1
    20    21    22    1
    21    22    23    2
    22    23     1    1
    23    24    21    1
    24    25    24    1
    25    26    24    1
    26    27    24    1
    27    28    27    1
    28    29    27    1
    29    30    23    1
    30    31    30    1
    31    32    21    1
    32    33    32    1
    33    34    33    1
    34    35    33    1
    35    36    33    1
    36    37    36    1
    37    38    36    1
    38    39    36    1
    39    40     1    1
    40    41    40    3
    41    42    41    1
    42    43    42    1
    43    44    42    1
    44    45    42    1
    45    46    47    1
    46    47    48    2
    47    48    55    1
    48    49    46    1
    49    50    49    1
    50    51    49    1
    51    52     8    1
    52    53    52    1
    53    54    52    1
    54    55    56    1
    55    57    46    1
    56    58    57    1
    57    59    58    1
    58    60    58    1
    59    61    58    1
    60    62    61    1
    61    63    61    1
    62    64    61    1
    63    65    66    1
    64    66    67    2
    65    67    74    1
    66    68    65    1
    67    69    68    1
    68    70    68    1
    69    71    27    1
    70    72    71    1
    71    73    71    1
    72    74    75    1
    73    76    65    1
    74    77    76    1
    75    78    77    1
    76    79    77    1
    77    80    77    1
    78    81    80    1
    79    82    80    1
    80    83    80    1
    81    84     1    1
    82    85    84    3
    83    86    85    1
    84    87    86    1
    85    88    86    1
    86    89    86    1
    87    90    67   un
    88    91    48   un
    89    92     1   un
    90    93     1   un
    91    11    13    2
    92    30    32    2
    93    49    52    1
    94    55    57    2
    95    68    71    1
    96    74    76    2
    97    94    95    1
    98    96    94    2
    99    97    94    2
   100    98    94    2
   101    99   100    3
   102   101    99    1
   103   102   101    1
   104   103   101    1
   105   104   101    1
   106   105   106    3
   107   106   107    1
   108   107   108    1
   109   109   107    1
   110   110   107    1
@<TRIPOS>SUBSTRUCTURE
     1 RES1        1 GROUP             0 ****  ****    0  
     2 RES2       94 GROUP             0 ****  ****    0  
     3 RES3       99 GROUP             0 ****  ****    0  
     4 RES4      105 GROUP             0 ****  ****    0  
@<TRIPOS>CRYSIN
   11.4824   11.6432   11.8553   63.4330   90.7770   63.3390     2     1
