@<TRIPOS>MOLECULE
FEYZIV06
   110   110     4     0     0
SMALL
USER_CHARGES
****
Generated from the CSD

@<TRIPOS>ATOM
     1 Fe1      5.7337   0.0000   0.0000   Fe        1 RES1   2.0000
     2 N1       4.9497  -2.5542   3.2479   N.pl3     1 RES1   0.0000
     3 N2       5.1919  -1.3614   2.6862   N.2       1 RES1   0.0000
     4 N3       5.2222  -1.5674   1.3824   N.2       1 RES1   0.0000
     5 C1       4.9019  -2.6553   4.7098   C.3       1 RES1   0.0000
     6 H1       5.3170  -1.8460   5.1033   H         1 RES1   0.0000
     7 H2       5.4347  -3.4381   4.9973   H         1 RES1   0.0000
     8 C2       3.4841  -2.7958   5.2471   C.3       1 RES1   0.0000
     9 H3       3.5226  -2.9309   6.2268   H         1 RES1   0.0000
    10 H4       3.0682  -3.6014   4.8475   H         1 RES1   0.0000
    11 C3       5.0152  -2.8880   1.1214   C.2       1 RES1   0.0000
    12 H5       4.9949  -3.2913   0.2620   H         1 RES1   0.0000
    13 C4       4.8392  -3.5346   2.3233   C.2       1 RES1   0.0000
    14 C5       4.6510  -4.9760   2.6577   C.3       1 RES1   0.0000
    15 H6       3.9265  -5.0606   3.3264   H         1 RES1   0.0000
    16 H7       5.4831  -5.3237   3.0675   H         1 RES1   0.0000
    17 C6       4.3058  -5.8228   1.4466   C.3       1 RES1   0.0000
    18 H8       3.4220  -5.5669   1.1102   H         1 RES1   0.0000
    19 H9       4.2981  -6.7689   1.7004   H         1 RES1   0.0000
    20 H10      4.9770  -5.6788   0.7462   H         1 RES1   0.0000
    21 N4       2.5180   2.6427   0.7197   N.pl3     1 RES1   0.0000
    22 N5       3.3818   1.9683  -0.0459   N.2       1 RES1   0.0000
    23 N6       4.1324   1.2658   0.7829   N.2       1 RES1   0.0000
    24 C7       1.5548   3.5712   0.0979   C.3       1 RES1   0.0000
    25 H11      0.6560   3.4090   0.4802   H         1 RES1   0.0000
    26 H12      1.5083   3.3867  -0.8737   H         1 RES1   0.0000
    27 C8       1.9309   5.0300   0.3109   C.3       1 RES1   0.0000
    28 H13      1.9610   5.2201   1.2814   H         1 RES1   0.0000
    29 H14      1.2331   5.6071  -0.0907   H         1 RES1   0.0000
    30 C9       3.7382   1.4959   2.0572   C.2       1 RES1   0.0000
    31 H15      4.1215   1.1065   2.8351   H         1 RES1   0.0000
    32 C10      2.6945   2.3877   2.0389   C.2       1 RES1   0.0000
    33 C11      1.8593   2.9997   3.1164   C.3       1 RES1   0.0000
    34 H16      0.9741   3.2397   2.7443   H         1 RES1   0.0000
    35 H17      2.2928   3.8313   3.4314   H         1 RES1   0.0000
    36 C12      1.6671   2.0635   4.2908   C.3       1 RES1   0.0000
    37 H18      1.1895   1.2597   3.9932   H         1 RES1   0.0000
    38 H19      1.1455   2.5143   4.9861   H         1 RES1   0.0000
    39 H20      2.5415   1.8085   4.6517   H         1 RES1   0.0000
    40 N7       6.9930   0.8712   1.5220   N.1       1 RES1   0.0000
    41 C13      7.3283   1.2446   2.5405   C.1       1 RES1   0.0000
    42 C14      7.7357   1.7132   3.8525   C.3       1 RES1   0.0000
    43 H21      7.5168   2.6641   3.9432   H         1 RES1   0.0000
    44 H22      8.7021   1.5886   3.9585   H         1 RES1   0.0000
    45 H23      7.2633   1.2024   4.5426   H         1 RES1   0.0000
    46 N1A      1.1431  -1.8271   6.9465   N.pl3     1 RES1   0.0000
    47 N2A      0.9008  -3.0199   7.5082   N.2       1 RES1   0.0000
    48 N3A      0.8706  -2.8140   8.8121   N.2       1 RES1   0.0000
    49 C1A      1.1908  -1.7260   5.4846   C.3       1 RES1   0.0000
    50 H1A      0.7758  -2.5353   5.0911   H         1 RES1   0.0000
    51 H2A      0.6580  -0.9432   5.1971   H         1 RES1   0.0000
    52 C2A      2.6087  -1.5856   4.9474   C.3       1 RES1   0.0000
    53 H3A      2.5701  -1.4505   3.9677   H         1 RES1   0.0000
    54 H4A      3.0245  -0.7799   5.3470   H         1 RES1   0.0000
    55 C3A      1.0776  -1.4933   9.0731   C.2       1 RES1   0.0000
    56 H5A      1.0979  -1.0901   9.9324   H         1 RES1   0.0000
    57 C4A      1.2535  -0.8468   7.8711   C.2       1 RES1   0.0000
    58 C5A      1.4417   0.5946   7.5368   C.3       1 RES1   0.0000
    59 H6A      2.1662   0.6793   6.8680   H         1 RES1   0.0000
    60 H7A      0.6097   0.9423   7.1269   H         1 RES1   0.0000
    61 C6A      1.7869   1.4414   8.7478   C.3       1 RES1   0.0000
    62 H8A      2.6707   1.1856   9.0843   H         1 RES1   0.0000
    63 H9A      1.7946   2.3876   8.4940   H         1 RES1   0.0000
    64 H10A     1.1157   1.2974   9.4482   H         1 RES1   0.0000
    65 N4A      2.6955   7.7553  -0.7197   N.pl3     1 RES1   0.0000
    66 N5A      1.8317   8.4297   0.0459   N.2       1 RES1   0.0000
    67 N6A      1.0811   9.1321  -0.7829   N.2       1 RES1   0.0000
    68 C7A      3.6587   6.8267  -0.0979   C.3       1 RES1   0.0000
    69 H11A     4.5575   6.9890  -0.4802   H         1 RES1   0.0000
    70 H12A     3.7052   7.0112   0.8737   H         1 RES1   0.0000
    71 C8A      3.2827   5.3680  -0.3109   C.3       1 RES1   0.0000
    72 H13A     3.2525   5.1778  -1.2814   H         1 RES1   0.0000
    73 H14A     3.9804   4.7909   0.0907   H         1 RES1   0.0000
    74 C9A      1.4753   8.9020  -2.0572   C.2       1 RES1   0.0000
    75 H15A     1.0920   9.2915  -2.8351   H         1 RES1   0.0000
    76 C10A     2.5190   8.0103  -2.0389   C.2       1 RES1   0.0000
    77 C11A     3.3542   7.3983  -3.1164   C.3       1 RES1   0.0000
    78 H16A     4.2394   7.1583  -2.7443   H         1 RES1   0.0000
    79 H17A     2.9207   6.5667  -3.4314   H         1 RES1   0.0000
    80 C12A     3.5464   8.3345  -4.2908   C.3       1 RES1   0.0000
    81 H18A     4.0240   9.1383  -3.9932   H         1 RES1   0.0000
    82 H19A     4.0680   7.8836  -4.9861   H         1 RES1   0.0000
    83 H20A     2.6721   8.5895  -4.6517   H         1 RES1   0.0000
    84 N7A      4.4744  -0.8712  -1.5220   N.1       1 RES1   0.0000
    85 C13A     4.1391  -1.2446  -2.5405   C.1       1 RES1   0.0000
    86 C14A     3.7317  -1.7132  -3.8525   C.3       1 RES1   0.0000
    87 H21A     3.9506  -2.6641  -3.9432   H         1 RES1   0.0000
    88 H22A     2.7653  -1.5886  -3.9585   H         1 RES1   0.0000
    89 H23A     4.2041  -1.2024  -4.5426   H         1 RES1   0.0000
    90 Fe1     -0.5202  10.3980   0.0000   Fe        1 RES1   2.0000
    91 Fe1      0.3590  -4.3814  10.1944   Fe        1 RES1   2.0000
    92 N3A      6.2452   1.5674  -1.3824   N.3       1 RES1   0.0000
    93 N6A      7.3350  -1.2658  -0.7829   N.3       1 RES1   0.0000
    94 Cl1      5.8392   5.2653   2.9630   Cl        2 RES2   0.0000
    95 O1       6.4622   4.9045   4.1981   O.3       2 RES2  -1.0000
    96 O2       6.0969   4.2479   2.0073   O.2       2 RES2   0.0000
    97 O3       4.4401   5.4006   3.1358   O.2       2 RES2   0.0000
    98 O4       6.4052   6.4997   2.5211   O.2       2 RES2   0.0000
    99 C15      6.3483   9.3114  -0.6096   C.1       3 RES3   0.0000
   100 N8       5.8860   9.4623  -1.6648   N.1       3 RES3   0.0000
   101 C16      6.9105   9.1067   0.7085   C.3       3 RES3   0.0000
   102 H24      6.3795   9.5981   1.3701   H         3 RES3   0.0000
   103 H25      7.8341   9.4329   0.7238   H         3 RES3   0.0000
   104 H26      6.8982   8.1508   0.9246   H         3 RES3   0.0000
   105 N9       7.8253  -3.7660   3.8199   N.1       4 RES4   0.0000
   106 C17      8.5115  -2.9053   3.5181   C.1       4 RES4   0.0000
   107 C18      9.4084  -1.8301   3.1429   C.3       4 RES4   0.0000
   108 H27      9.3946  -1.1367   3.8351   H         4 RES4   0.0000
   109 H28      9.1183  -1.4457   2.2897   H         4 RES4   0.0000
   110 H29     10.3185  -2.1806   3.0512   H         4 RES4   0.0000
@<TRIPOS>BOND
     1     1     4    1
     2     2     3    1
     3     3     4    2
     4     4    11    1
     5     5     2    1
     6     6     5    1
     7     7     5    1
     8     8     5    1
     9     9     8    1
    10    10     8    1
    11    11    12    1
    12    13     2    1
    13    14    13    1
    14    15    14    1
    15    16    14    1
    16    17    14    1
    17    18    17    1
    18    19    17    1
    19    20    17    1
    20    21    22    1
    21    22    23    2
    22    23     1    1
    23    24    21    1
    24    25    24    1
    25    26    24    1
    26    27    24    1
    27    28    27    1
    28    29    27    1
    29    30    23    1
    30    31    30    1
    31    32    21    1
    32    33    32    1
    33    34    33    1
    34    35    33    1
    35    36    33    1
    36    37    36    1
    37    38    36    1
    38    39    36    1
    39    40     1    1
    40    41    40    3
    41    42    41    1
    42    43    42    1
    43    44    42    1
    44    45    42    1
    45    46    47    1
    46    47    48    2
    47    48    55    1
    48    49    46    1
    49    50    49    1
    50    51    49    1
    51    52     8    1
    52    53    52    1
    53    54    52    1
    54    55    56    1
    55    57    46    1
    56    58    57    1
    57    59    58    1
    58    60    58    1
    59    61    58    1
    60    62    61    1
    61    63    61    1
    62    64    61    1
    63    65    66    1
    64    66    67    2
    65    67    74    1
    66    68    65    1
    67    69    68    1
    68    70    68    1
    69    71    27    1
    70    72    71    1
    71    73    71    1
    72    74    75    1
    73    76    65    1
    74    77    76    1
    75    78    77    1
    76    79    77    1
    77    80    77    1
    78    81    80    1
    79    82    80    1
    80    83    80    1
    81    84     1    1
    82    85    84    3
    83    86    85    1
    84    87    86    1
    85    88    86    1
    86    89    86    1
    87    90    67   un
    88    91    48   un
    89    92     1   un
    90    93     1   un
    91    11    13    2
    92    30    32    2
    93    49    52    1
    94    55    57    2
    95    68    71    1
    96    74    76    2
    97    94    95    1
    98    96    94    2
    99    97    94    2
   100    98    94    2
   101    99   100    3
   102   101    99    1
   103   102   101    1
   104   103   101    1
   105   104   101    1
   106   105   106    3
   107   106   107    1
   108   107   108    1
   109   109   107    1
   110   110   107    1
@<TRIPOS>SUBSTRUCTURE
     1 RES1        1 GROUP             0 ****  ****    0  
     2 RES2       94 GROUP             0 ****  ****    0  
     3 RES3       99 GROUP             0 ****  ****    0  
     4 RES4      105 GROUP             0 ****  ****    0  
@<TRIPOS>CRYSIN
   11.4674   11.6318   11.8386   63.3710   90.7800   63.3710     2     1
