@<TRIPOS>MOLECULE
FEYZIV04
   110   110     4     0     0
SMALL
USER_CHARGES
****
Generated from the CSD

@<TRIPOS>ATOM
     1 Fe1      5.8530   0.0000   0.0000   Fe        1 RES1   2.0000
     2 N1       5.1113  -2.6016   3.2517   N.pl3     1 RES1   0.0000
     3 N2       5.3468  -1.3856   2.6995   N.2       1 RES1   0.0000
     4 N3       5.3413  -1.5875   1.3770   N.2       1 RES1   0.0000
     5 C1       5.1011  -2.6911   4.7130   C.3       1 RES1   0.0000
     6 H1       5.5264  -1.8908   5.0863   H         1 RES1   0.0000
     7 H2       5.6285  -3.4691   4.9906   H         1 RES1   0.0000
     8 C2       3.6765  -2.8187   5.2868   C.3       1 RES1   0.0000
     9 H3       3.2424  -3.6076   4.8991   H         1 RES1   0.0000
    10 H4       3.7298  -2.9509   6.2566   H         1 RES1   0.0000
    11 C3       5.1234  -2.8905   1.1168   C.2       1 RES1   0.0000
    12 H5       5.0881  -3.2820   0.2633   H         1 RES1   0.0000
    13 C4       4.9613  -3.5497   2.3169   C.2       1 RES1   0.0000
    14 C5       4.8120  -5.0102   2.6491   C.3       1 RES1   0.0000
    15 H6       4.1135  -5.1132   3.3278   H         1 RES1   0.0000
    16 H7       5.6529  -5.3369   3.0326   H         1 RES1   0.0000
    17 C6       4.4588  -5.8551   1.4469   C.3       1 RES1   0.0000
    18 H8       3.5701  -5.6215   1.1374   H         1 RES1   0.0000
    19 H9       4.4803  -6.7925   1.6937   H         1 RES1   0.0000
    20 H10      5.1016  -5.6931   0.7373   H         1 RES1   0.0000
    21 N4       2.6087   2.6288   0.7363   N.pl3     1 RES1   0.0000
    22 N5       3.4928   1.9558  -0.0380   N.2       1 RES1   0.0000
    23 N6       4.2393   1.2523   0.7661   N.2       1 RES1   0.0000
    24 C7       1.6437   3.5436   0.1131   C.3       1 RES1   0.0000
    25 H11      0.7553   3.3847   0.4957   H         1 RES1   0.0000
    26 H12      1.5953   3.3570  -0.8474   H         1 RES1   0.0000
    27 C8       2.0259   5.0032   0.3208   C.3       1 RES1   0.0000
    28 H13      1.3092   5.5695  -0.0350   H         1 RES1   0.0000
    29 H14      2.0915   5.1765   1.2834   H         1 RES1   0.0000
    30 C9       3.8565   1.4503   2.0516   C.2       1 RES1   0.0000
    31 H15      4.2288   1.0362   2.8085   H         1 RES1   0.0000
    32 C10      2.8155   2.3761   2.0547   C.2       1 RES1   0.0000
    33 C11      1.9580   2.9561   3.1427   C.3       1 RES1   0.0000
    34 H16      2.3303   3.8203   3.4152   H         1 RES1   0.0000
    35 H17      1.0588   3.1160   2.7869   H         1 RES1   0.0000
    36 C12      1.8556   2.0912   4.3181   C.3       1 RES1   0.0000
    37 H18      1.4083   1.2655   4.0744   H         1 RES1   0.0000
    38 H19      1.3455   2.5431   5.0092   H         1 RES1   0.0000
    39 H20      2.7442   1.8911   4.6513   H         1 RES1   0.0000
    40 N7       7.1123   0.8800   1.5395   N.1       1 RES1   0.0000
    41 C13      7.4674   1.3036   2.5195   C.1       1 RES1   0.0000
    42 C14      7.9235   1.8004   3.7772   C.3       1 RES1   0.0000
    43 H21      7.9577   2.7696   3.7494   H         1 RES1   0.0000
    44 H22      8.8099   1.4512   3.9613   H         1 RES1   0.0000
    45 H23      7.3134   1.5187   4.4775   H         1 RES1   0.0000
    46 N1A      1.3963  -1.8097   7.0319   N.pl3     1 RES1   0.0000
    47 N2A      1.1607  -3.0257   7.5842   N.2       1 RES1   0.0000
    48 N3A      1.1662  -2.8238   8.9067   N.2       1 RES1   0.0000
    49 C1A      1.4065  -1.7202   5.5706   C.3       1 RES1   0.0000
    50 H1A      0.9811  -2.5205   5.1973   H         1 RES1   0.0000
    51 H2A      0.8791  -0.9421   5.2930   H         1 RES1   0.0000
    52 C2A      2.8310  -1.5926   4.9968   C.3       1 RES1   0.0000
    53 H3A      3.2651  -0.8037   5.3845   H         1 RES1   0.0000
    54 H4A      2.7778  -1.4603   4.0271   H         1 RES1   0.0000
    55 C3A      1.3841  -1.5208   9.1668   C.2       1 RES1   0.0000
    56 H5A      1.4195  -1.1292  10.0204   H         1 RES1   0.0000
    57 C4A      1.5463  -0.8615   7.9667   C.2       1 RES1   0.0000
    58 C5A      1.6956   0.5989   7.6346   C.3       1 RES1   0.0000
    59 H6A      2.3941   0.7019   6.9558   H         1 RES1   0.0000
    60 H7A      0.8547   0.9256   7.2510   H         1 RES1   0.0000
    61 C6A      2.0487   1.4438   8.8367   C.3       1 RES1   0.0000
    62 H8A      2.9374   1.2102   9.1463   H         1 RES1   0.0000
    63 H9A      2.0273   2.3812   8.5899   H         1 RES1   0.0000
    64 H10A     1.4060   1.2818   9.5463   H         1 RES1   0.0000
    65 N4A      2.7194   7.7652  -0.7363   N.pl3     1 RES1   0.0000
    66 N5A      1.8352   8.4381   0.0380   N.2       1 RES1   0.0000
    67 N6A      1.0888   9.1417  -0.7661   N.2       1 RES1   0.0000
    68 C7A      3.6843   6.8503  -0.1131   C.3       1 RES1   0.0000
    69 H11A     4.5727   7.0092  -0.4957   H         1 RES1   0.0000
    70 H12A     3.7328   7.0370   0.8474   H         1 RES1   0.0000
    71 C8A      3.3021   5.3907  -0.3208   C.3       1 RES1   0.0000
    72 H13A     4.0188   4.8244   0.0350   H         1 RES1   0.0000
    73 H14A     3.2365   5.2174  -1.2834   H         1 RES1   0.0000
    74 C9A      1.4715   8.9437  -2.0516   C.2       1 RES1   0.0000
    75 H15A     1.0992   9.3578  -2.8085   H         1 RES1   0.0000
    76 C10A     2.5125   8.0179  -2.0547   C.2       1 RES1   0.0000
    77 C11A     3.3700   7.4379  -3.1427   C.3       1 RES1   0.0000
    78 H16A     2.9978   6.5736  -3.4152   H         1 RES1   0.0000
    79 H17A     4.2692   7.2780  -2.7869   H         1 RES1   0.0000
    80 C12A     3.4725   8.3028  -4.3181   C.3       1 RES1   0.0000
    81 H18A     3.9198   9.1285  -4.0744   H         1 RES1   0.0000
    82 H19A     3.9825   7.8509  -5.0092   H         1 RES1   0.0000
    83 H20A     2.5839   8.5029  -4.6513   H         1 RES1   0.0000
    84 N7A      4.5937  -0.8800  -1.5395   N.1       1 RES1   0.0000
    85 C13A     4.2386  -1.3036  -2.5195   C.1       1 RES1   0.0000
    86 C14A     3.7825  -1.8004  -3.7772   C.3       1 RES1   0.0000
    87 H21A     3.7483  -2.7696  -3.7494   H         1 RES1   0.0000
    88 H22A     2.8961  -1.4512  -3.9613   H         1 RES1   0.0000
    89 H23A     4.3926  -1.5187  -4.4775   H         1 RES1   0.0000
    90 Fe1     -0.5250  10.3940   0.0000   Fe        1 RES1   2.0000
    91 Fe1      0.6546  -4.4113  10.2836   Fe        1 RES1   2.0000
    92 N3A      6.3647   1.5875  -1.3770   N.3       1 RES1   0.0000
    93 N6A      7.4667  -1.2523  -0.7661   N.3       1 RES1   0.0000
    94 Cl1      5.9516   5.3542   2.9895   Cl        2 RES2   0.0000
    95 O1       6.6675   5.0046   4.1340   O.3       2 RES2  -1.0000
    96 O2       6.1178   4.4632   1.9724   O.2       2 RES2   0.0000
    97 O3       4.6645   5.4815   3.2404   O.2       2 RES2   0.0000
    98 O4       6.4984   6.4972   2.5565   O.2       2 RES2   0.0000
    99 C15      6.5124   9.3518  -0.6479   C.1       3 RES3   0.0000
   100 N8       5.9283   9.6834  -1.6145   N.1       3 RES3   0.0000
   101 C16      6.9404   9.1627   0.7600   C.3       3 RES3   0.0000
   102 H24      6.3638   9.6752   1.3461   H         3 RES3   0.0000
   103 H25      7.8555   9.4598   0.8597   H         3 RES3   0.0000
   104 H26      6.8789   8.2200   0.9924   H         3 RES3   0.0000
   105 N9       7.9813  -4.1224   4.1340   N.1       4 RES4   0.0000
   106 C17      8.4949  -3.1191   3.6610   C.1       4 RES4   0.0000
   107 C18      9.2739  -1.8378   3.2908   C.3       4 RES4   0.0000
   108 H27      9.3665  -1.2797   4.0785   H         4 RES4   0.0000
   109 H28      8.7897  -1.3512   2.6048   H         4 RES4   0.0000
   110 H29     10.1535  -2.0767   2.9586   H         4 RES4   0.0000
@<TRIPOS>BOND
     1     1     4    1
     2     2     3    1
     3     3     4    2
     4     4    11    1
     5     5     2    1
     6     6     5    1
     7     7     5    1
     8     8     5    1
     9     9     8    1
    10    10     8    1
    11    11    12    1
    12    13     2    1
    13    14    13    1
    14    15    14    1
    15    16    14    1
    16    17    14    1
    17    18    17    1
    18    19    17    1
    19    20    17    1
    20    21    22    1
    21    22    23    2
    22    23     1    1
    23    24    21    1
    24    25    24    1
    25    26    24    1
    26    27    24    1
    27    28    27    1
    28    29    27    1
    29    30    23    1
    30    31    30    1
    31    32    21    1
    32    33    32    1
    33    34    33    1
    34    35    33    1
    35    36    33    1
    36    37    36    1
    37    38    36    1
    38    39    36    1
    39    40     1    1
    40    41    40    3
    41    42    41    1
    42    43    42    1
    43    44    42    1
    44    45    42    1
    45    46    47    1
    46    47    48    2
    47    48    55    1
    48    49    46    1
    49    50    49    1
    50    51    49    1
    51    52     8    1
    52    53    52    1
    53    54    52    1
    54    55    56    1
    55    57    46    1
    56    58    57    1
    57    59    58    1
    58    60    58    1
    59    61    58    1
    60    62    61    1
    61    63    61    1
    62    64    61    1
    63    65    66    1
    64    66    67    2
    65    67    74    1
    66    68    65    1
    67    69    68    1
    68    70    68    1
    69    71    27    1
    70    72    71    1
    71    73    71    1
    72    74    75    1
    73    76    65    1
    74    77    76    1
    75    78    77    1
    76    79    77    1
    77    80    77    1
    78    81    80    1
    79    82    80    1
    80    83    80    1
    81    84     1    1
    82    85    84    3
    83    86    85    1
    84    87    86    1
    85    88    86    1
    86    89    86    1
    87    90    67   un
    88    91    48   un
    89    92     1   un
    90    93     1   un
    91    11    13    2
    92    30    32    2
    93    49    52    1
    94    55    57    2
    95    68    71    1
    96    74    76    2
    97    94    95    1
    98    96    94    2
    99    97    94    2
   100    98    94    2
   101    99   100    3
   102   101    99    1
   103   102   101    1
   104   103   101    1
   105   104   101    1
   106   105   106    3
   107   106   107    1
   108   107   108    1
   109   109   107    1
   110   110   107    1
@<TRIPOS>SUBSTRUCTURE
     1 RES1        1 GROUP             0 ****  ****    0  
     2 RES2       94 GROUP             0 ****  ****    0  
     3 RES3       99 GROUP             0 ****  ****    0  
     4 RES4      105 GROUP             0 ****  ****    0  
@<TRIPOS>CRYSIN
   11.7060   11.6800   11.8980   63.1000   89.3760   62.8600     2     1
