@<TRIPOS>MOLECULE
FEYZIV
   110   110     4     0     0
SMALL
USER_CHARGES
****
Generated from the CSD

@<TRIPOS>ATOM
     1 Fe1      5.8848   0.0000   0.0000   Fe        1 RES1   2.0000
     2 N1       5.1521  -2.5973   3.2434   N.pl3     1 RES1   0.0000
     3 N2       5.3786  -1.3977   2.6867   N.2       1 RES1   0.0000
     4 N3       5.3763  -1.5935   1.3875   N.2       1 RES1   0.0000
     5 C1       5.1321  -2.7105   4.7018   C.3       1 RES1   0.0000
     6 H1       5.5703  -1.9241   5.0890   H         1 RES1   0.0000
     7 H2       5.6457  -3.5015   4.9688   H         1 RES1   0.0000
     8 C2       3.7264  -2.8195   5.2605   C.3       1 RES1   0.0000
     9 H3       3.2846  -3.5961   4.8579   H         1 RES1   0.0000
    10 H4       3.7805  -2.9747   6.2269   H         1 RES1   0.0000
    11 C3       5.1654  -2.9044   1.1349   C.2       1 RES1   0.0000
    12 H5       5.1275  -3.2977   0.2814   H         1 RES1   0.0000
    13 C4       5.0134  -3.5659   2.3211   C.2       1 RES1   0.0000
    14 C5       4.8309  -5.0065   2.6415   C.3       1 RES1   0.0000
    15 H6       4.1205  -5.0952   3.3101   H         1 RES1   0.0000
    16 H7       5.6582  -5.3509   3.0380   H         1 RES1   0.0000
    17 C6       4.4810  -5.8440   1.4522   C.3       1 RES1   0.0000
    18 H8       3.6106  -5.5801   1.1154   H         1 RES1   0.0000
    19 H9       4.4587  -6.7794   1.7100   H         1 RES1   0.0000
    20 H10      5.1477  -5.7167   0.7590   H         1 RES1   0.0000
    21 N4       2.6637   2.6232   0.7682   N.pl3     1 RES1   0.0000
    22 N5       3.5047   1.9603  -0.0154   N.2       1 RES1   0.0000
    23 N6       4.2800   1.2576   0.7857   N.2       1 RES1   0.0000
    24 C7       1.6731   3.5466   0.1808   C.3       1 RES1   0.0000
    25 H11      0.8022   3.3875   0.5998   H         1 RES1   0.0000
    26 H12      1.5845   3.3519  -0.7754   H         1 RES1   0.0000
    27 C8       2.0425   4.9992   0.3523   C.3       1 RES1   0.0000
    28 H13      2.1353   5.1928   1.3084   H         1 RES1   0.0000
    29 H14      1.3148   5.5553   0.0041   H         1 RES1   0.0000
    30 C9       3.9164   1.4756   2.0500   C.2       1 RES1   0.0000
    31 H15      4.3120   1.0877   2.8089   H         1 RES1   0.0000
    32 C10      2.8646   2.3622   2.0561   C.2       1 RES1   0.0000
    33 C11      2.0638   2.9669   3.1592   C.3       1 RES1   0.0000
    34 H16      2.4866   3.8082   3.4303   H         1 RES1   0.0000
    35 H17      1.1699   3.1791   2.8192   H         1 RES1   0.0000
    36 C12      1.9294   2.1116   4.3279   C.3       1 RES1   0.0000
    37 H18      1.4909   1.2841   4.0753   H         1 RES1   0.0000
    38 H19      1.4000   2.5664   5.0017   H         1 RES1   0.0000
    39 H20      2.8094   1.9148   4.6874   H         1 RES1   0.0000
    40 N7       7.1698   0.8931   1.5118   N.1       1 RES1   0.0000
    41 C13      7.5408   1.2851   2.4844   C.1       1 RES1   0.0000
    42 C14      8.0102   1.7947   3.7631   C.3       1 RES1   0.0000
    43 H21      7.5739   2.6403   3.9541   H         1 RES1   0.0000
    44 H22      8.9699   1.9278   3.7261   H         1 RES1   0.0000
    45 H23      7.7993   1.1580   4.4635   H         1 RES1   0.0000
    46 N1A      1.4507  -1.8095   7.0270   N.pl3     1 RES1   0.0000
    47 N2A      1.2242  -3.0091   7.5836   N.2       1 RES1   0.0000
    48 N3A      1.2264  -2.8133   8.8828   N.2       1 RES1   0.0000
    49 C1A      1.4707  -1.6962   5.5686   C.3       1 RES1   0.0000
    50 H1A      1.0324  -2.4826   5.1814   H         1 RES1   0.0000
    51 H2A      0.9571  -0.9052   5.3016   H         1 RES1   0.0000
    52 C2A      2.8763  -1.5872   5.0099   C.3       1 RES1   0.0000
    53 H3A      3.3182  -0.8106   5.4125   H         1 RES1   0.0000
    54 H4A      2.8222  -1.4320   4.0434   H         1 RES1   0.0000
    55 C3A      1.4373  -1.5023   9.1355   C.2       1 RES1   0.0000
    56 H5A      1.4752  -1.1090   9.9889   H         1 RES1   0.0000
    57 C4A      1.5893  -0.8408   7.9493   C.2       1 RES1   0.0000
    58 C5A      1.7718   0.5998   7.6288   C.3       1 RES1   0.0000
    59 H6A      2.4823   0.6885   6.9602   H         1 RES1   0.0000
    60 H7A      0.9445   0.9442   7.2324   H         1 RES1   0.0000
    61 C6A      2.1218   1.4373   8.8181   C.3       1 RES1   0.0000
    62 H8A      2.9922   1.1734   9.1550   H         1 RES1   0.0000
    63 H9A      2.1441   2.3727   8.5603   H         1 RES1   0.0000
    64 H10A     1.4550   1.3100   9.5114   H         1 RES1   0.0000
    65 N4A      2.7066   7.7522  -0.7682   N.pl3     1 RES1   0.0000
    66 N5A      1.8656   8.4151   0.0154   N.2       1 RES1   0.0000
    67 N6A      1.0903   9.1178  -0.7857   N.2       1 RES1   0.0000
    68 C7A      3.6972   6.8288  -0.1808   C.3       1 RES1   0.0000
    69 H11A     4.5681   6.9878  -0.5998   H         1 RES1   0.0000
    70 H12A     3.7858   7.0234   0.7754   H         1 RES1   0.0000
    71 C8A      3.3278   5.3762  -0.3523   C.3       1 RES1   0.0000
    72 H13A     3.2350   5.1826  -1.3084   H         1 RES1   0.0000
    73 H14A     4.0555   4.8201  -0.0041   H         1 RES1   0.0000
    74 C9A      1.4539   8.8997  -2.0500   C.2       1 RES1   0.0000
    75 H15A     1.0582   9.2876  -2.8089   H         1 RES1   0.0000
    76 C10A     2.5056   8.0132  -2.0561   C.2       1 RES1   0.0000
    77 C11A     3.3065   7.4085  -3.1592   C.3       1 RES1   0.0000
    78 H16A     2.8836   6.5672  -3.4303   H         1 RES1   0.0000
    79 H17A     4.2003   7.1962  -2.8192   H         1 RES1   0.0000
    80 C12A     3.4408   8.2638  -4.3279   C.3       1 RES1   0.0000
    81 H18A     3.8793   9.0912  -4.0753   H         1 RES1   0.0000
    82 H19A     3.9703   7.8089  -5.0017   H         1 RES1   0.0000
    83 H20A     2.5609   8.4605  -4.6874   H         1 RES1   0.0000
    84 N7A      4.5998  -0.8931  -1.5118   N.1       1 RES1   0.0000
    85 C13A     4.2288  -1.2851  -2.4844   C.1       1 RES1   0.0000
    86 C14A     3.7594  -1.7947  -3.7631   C.3       1 RES1   0.0000
    87 H21A     4.1957  -2.6403  -3.9541   H         1 RES1   0.0000
    88 H22A     2.7997  -1.9278  -3.7261   H         1 RES1   0.0000
    89 H23A     3.9703  -1.1580  -4.4635   H         1 RES1   0.0000
    90 Fe1     -0.5145  10.3754   0.0000   Fe        1 RES1   2.0000
    91 Fe1      0.7179  -4.4067  10.2704   Fe        1 RES1   2.0000
    92 N3A      6.3933   1.5935  -1.3875   N.3       1 RES1   0.0000
    93 N6A      7.4896  -1.2576  -0.7857   N.3       1 RES1   0.0000
    94 Cl1      5.9885   5.3488   2.9685   Cl        2 RES2   0.0000
    95 O1       6.7204   5.0022   4.0958   O.3       2 RES2  -1.0000
    96 O2       6.1863   4.4447   1.9709   O.2       2 RES2   0.0000
    97 O3       4.7228   5.4279   3.1931   O.2       2 RES2   0.0000
    98 O4       6.5574   6.4881   2.5501   O.2       2 RES2   0.0000
    99 C15      6.5510   9.3194  -0.5762   C.1       3 RES3   0.0000
   100 N8       5.9611   9.6490  -1.5765   N.1       3 RES3   0.0000
   101 C16      7.0718   9.1091   0.8062   C.3       3 RES3   0.0000
   102 H24      6.4990   9.5683   1.4409   H         3 RES3   0.0000
   103 H25      7.9736   9.4626   0.8699   H         3 RES3   0.0000
   104 H26      7.0821   8.1600   1.0065   H         3 RES3   0.0000
   105 N9       8.0605  -4.0751   4.0640   N.1       4 RES4   0.0000
   106 C17      8.5517  -3.1433   3.6552   C.1       4 RES4   0.0000
   107 C18      9.2600  -1.8970   3.2629   C.3       4 RES4   0.0000
   108 H27      9.2246  -1.2608   3.9952   H         4 RES4   0.0000
   109 H28      8.8334  -1.5129   2.4813   H         4 RES4   0.0000
   110 H29     10.1864  -2.1014   3.0575   H         4 RES4   0.0000
@<TRIPOS>BOND
     1     1     4    1
     2     2     3    1
     3     3     4    2
     4     4    11    1
     5     5     2    1
     6     6     5    1
     7     7     5    1
     8     8     5    1
     9     9     8    1
    10    10     8    1
    11    11    12    1
    12    13     2    1
    13    14    13    1
    14    15    14    1
    15    16    14    1
    16    17    14    1
    17    18    17    1
    18    19    17    1
    19    20    17    1
    20    21    22    1
    21    22    23    2
    22    23     1    1
    23    24    21    1
    24    25    24    1
    25    26    24    1
    26    27    24    1
    27    28    27    1
    28    29    27    1
    29    30    23    1
    30    31    30    1
    31    32    21    1
    32    33    32    1
    33    34    33    1
    34    35    33    1
    35    36    33    1
    36    37    36    1
    37    38    36    1
    38    39    36    1
    39    40     1    1
    40    41    40    3
    41    42    41    1
    42    43    42    1
    43    44    42    1
    44    45    42    1
    45    46    47    1
    46    47    48    2
    47    48    55    1
    48    49    46    1
    49    50    49    1
    50    51    49    1
    51    52     8    1
    52    53    52    1
    53    54    52    1
    54    55    56    1
    55    57    46    1
    56    58    57    1
    57    59    58    1
    58    60    58    1
    59    61    58    1
    60    62    61    1
    61    63    61    1
    62    64    61    1
    63    65    66    1
    64    66    67    2
    65    67    74    1
    66    68    65    1
    67    69    68    1
    68    70    68    1
    69    71    27    1
    70    72    71    1
    71    73    71    1
    72    74    75    1
    73    76    65    1
    74    77    76    1
    75    78    77    1
    76    79    77    1
    77    80    77    1
    78    81    80    1
    79    82    80    1
    80    83    80    1
    81    84     1    1
    82    85    84    3
    83    86    85    1
    84    87    86    1
    85    88    86    1
    86    89    86    1
    87    90    67   un
    88    91    48   un
    89    92     1   un
    90    93     1   un
    91    11    13    2
    92    30    32    2
    93    49    52    1
    94    55    57    2
    95    68    71    1
    96    74    76    2
    97    94    95    1
    98    96    94    2
    99    97    94    2
   100    98    94    2
   101    99   100    3
   102   101    99    1
   103   102   101    1
   104   103   101    1
   105   104   101    1
   106   105   106    3
   107   106   107    1
   108   107   108    1
   109   109   107    1
   110   110   107    1
@<TRIPOS>SUBSTRUCTURE
     1 RES1        1 GROUP             0 ****  ****    0  
     2 RES2       94 GROUP             0 ****  ****    0  
     3 RES3       99 GROUP             0 ****  ****    0  
     4 RES4      105 GROUP             0 ****  ****    0  
@<TRIPOS>CRYSIN
   11.7696   11.6828   11.8805   62.9970   89.0190   62.6340     2     1
