@<TRIPOS>MOLECULE
FEYZIV03
   110   110     4     0     0
SMALL
USER_CHARGES
****
Generated from the CSD

@<TRIPOS>ATOM
     1 Fe1      5.8995   0.0000   0.0000   Fe        1 RES1   2.0000
     2 N1       5.5808  -2.6829   3.0347   N.pl3     1 RES1   0.0000
     3 N2       5.7146  -1.4309   2.5595   N.2       1 RES1   0.0000
     4 N3       5.5484  -1.5355   1.2460   N.2       1 RES1   0.0000
     5 C1       5.7434  -2.9092   4.4893   C.3       1 RES1   0.0000
     6 H1       6.2139  -2.1341   4.8856   H         1 RES1   0.0000
     7 H2       6.3093  -3.7101   4.6294   H         1 RES1   0.0000
     8 C2       4.4221  -3.1068   5.2114   C.3       1 RES1   0.0000
     9 H3       3.9423  -3.8709   4.8026   H         1 RES1   0.0000
    10 H4       4.6026  -3.3357   6.1576   H         1 RES1   0.0000
    11 C3       5.3170  -2.8309   0.9244   C.2       1 RES1   0.0000
    12 H5       5.1677  -3.1644   0.0477   H         1 RES1   0.0000
    13 C4       5.3359  -3.5789   2.0688   C.2       1 RES1   0.0000
    14 C5       5.2065  -5.0401   2.3064   C.3       1 RES1   0.0000
    15 H6       4.5700  -5.1921   3.0492   H         1 RES1   0.0000
    16 H7       6.0849  -5.4032   2.5803   H         1 RES1   0.0000
    17 C6       4.7172  -5.7980   1.0676   C.3       1 RES1   0.0000
    18 H8       3.7793  -5.5722   0.8954   H         1 RES1   0.0000
    19 H9       4.7984  -6.7627   1.2222   H         1 RES1   0.0000
    20 H10      5.2622  -5.5447   0.2936   H         1 RES1   0.0000
    21 N4       2.7512   2.4115   0.8674   N.pl3     1 RES1   0.0000
    22 N5       3.5738   1.7364   0.0239   N.2       1 RES1   0.0000
    23 N6       4.4030   1.0793   0.7729   N.2       1 RES1   0.0000
    24 C7       1.6994   3.2834   0.3486   C.3       1 RES1   0.0000
    25 H11      0.8663   3.1138   0.8559   H         1 RES1   0.0000
    26 H12      1.5285   3.0478  -0.5976   H         1 RES1   0.0000
    27 C8       2.0276   4.7631   0.4316   C.3       1 RES1   0.0000
    28 H13      2.2216   4.9967   1.3737   H         1 RES1   0.0000
    29 H14      1.2335   5.2835   0.1484   H         1 RES1   0.0000
    30 C9       4.1373   1.2930   2.0864   C.2       1 RES1   0.0000
    31 H15      4.5981   0.9073   2.8220   H         1 RES1   0.0000
    32 C10      3.0791   2.1672   2.1591   C.2       1 RES1   0.0000
    33 C11      2.3512   2.7778   3.3449   C.3       1 RES1   0.0000
    34 H16      1.3937   2.8901   3.1198   H         1 RES1   0.0000
    35 H17      2.7284   3.6746   3.5338   H         1 RES1   0.0000
    36 C12      2.4790   1.9019   4.5941   C.3       1 RES1   0.0000
    37 H18      1.9872   1.0656   4.4571   H         1 RES1   0.0000
    38 H19      2.1083   2.3782   5.3660   H         1 RES1   0.0000
    39 H20      3.4243   1.7015   4.7570   H         1 RES1   0.0000
    40 N7       7.0765   0.7874   1.3239   N.1       1 RES1   0.0000
    41 C13      7.6470   1.2311   2.2151   C.1       1 RES1   0.0000
    42 C14      8.3524   1.7843   3.3553   C.3       1 RES1   0.0000
    43 H21      8.2162   2.7549   3.3844   H         1 RES1   0.0000
    44 H22      9.3110   1.5924   3.2713   H         1 RES1   0.0000
    45 H23      8.0092   1.3815   4.1801   H         1 RES1   0.0000
    46 N1A      2.3711  -2.3087   7.3404   N.pl3     1 RES1   0.0000
    47 N2A      2.2373  -3.5606   7.8156   N.2       1 RES1   0.0000
    48 N3A      2.4035  -3.4561   9.1290   N.2       1 RES1   0.0000
    49 C1A      2.2085  -2.0823   5.8858   C.3       1 RES1   0.0000
    50 H1A      1.7380  -2.8574   5.4895   H         1 RES1   0.0000
    51 H2A      1.6426  -1.2814   5.7457   H         1 RES1   0.0000
    52 C2A      3.5298  -1.8848   5.1637   C.3       1 RES1   0.0000
    53 H3A      4.0096  -1.1207   5.5725   H         1 RES1   0.0000
    54 H4A      3.3493  -1.6559   4.2175   H         1 RES1   0.0000
    55 C3A      2.6348  -2.1607   9.4507   C.2       1 RES1   0.0000
    56 H5A      2.7842  -1.8271  10.3274   H         1 RES1   0.0000
    57 C4A      2.6160  -1.4126   8.3063   C.2       1 RES1   0.0000
    58 C5A      2.7453   0.0486   8.0687   C.3       1 RES1   0.0000
    59 H6A      3.3819   0.2005   7.3259   H         1 RES1   0.0000
    60 H7A      1.8670   0.4117   7.7948   H         1 RES1   0.0000
    61 C6A      3.2347   0.8065   9.3075   C.3       1 RES1   0.0000
    62 H8A      4.1726   0.5807   9.4797   H         1 RES1   0.0000
    63 H9A      3.1534   1.7712   9.1529   H         1 RES1   0.0000
    64 H10A     2.6897   0.5532  10.0815   H         1 RES1   0.0000
    65 N4A      2.4913   7.5141  -0.8674   N.pl3     1 RES1   0.0000
    66 N5A      1.6686   8.1892  -0.0239   N.2       1 RES1   0.0000
    67 N6A      0.8395   8.8463  -0.7729   N.2       1 RES1   0.0000
    68 C7A      3.5430   6.6422  -0.3486   C.3       1 RES1   0.0000
    69 H11A     4.3762   6.8118  -0.8559   H         1 RES1   0.0000
    70 H12A     3.7140   6.8778   0.5976   H         1 RES1   0.0000
    71 C8A      3.2148   5.1625  -0.4316   C.3       1 RES1   0.0000
    72 H13A     3.0208   4.9289  -1.3737   H         1 RES1   0.0000
    73 H14A     4.0089   4.6421  -0.1484   H         1 RES1   0.0000
    74 C9A      1.1052   8.6326  -2.0864   C.2       1 RES1   0.0000
    75 H15A     0.6443   9.0183  -2.8220   H         1 RES1   0.0000
    76 C10A     2.1634   7.7584  -2.1591   C.2       1 RES1   0.0000
    77 C11A     2.8913   7.1477  -3.3449   C.3       1 RES1   0.0000
    78 H16A     3.8488   7.0355  -3.1198   H         1 RES1   0.0000
    79 H17A     2.5140   6.2510  -3.5338   H         1 RES1   0.0000
    80 C12A     2.7635   8.0237  -4.5941   C.3       1 RES1   0.0000
    81 H18A     3.2553   8.8600  -4.4571   H         1 RES1   0.0000
    82 H19A     3.1341   7.5474  -5.3660   H         1 RES1   0.0000
    83 H20A     1.8182   8.2241  -4.7570   H         1 RES1   0.0000
    84 N7A      4.7225  -0.7874  -1.3239   N.1       1 RES1   0.0000
    85 C13A     4.1520  -1.2311  -2.2151   C.1       1 RES1   0.0000
    86 C14A     3.4466  -1.7843  -3.3553   C.3       1 RES1   0.0000
    87 H21A     3.5828  -2.7549  -3.3844   H         1 RES1   0.0000
    88 H22A     2.4880  -1.5924  -3.2713   H         1 RES1   0.0000
    89 H23A     3.7898  -1.3815  -4.1801   H         1 RES1   0.0000
    90 Fe1     -0.6570   9.9256   0.0000   Fe        1 RES1   2.0000
    91 Fe1      2.0524  -4.9915  10.3751   Fe        1 RES1   2.0000
    92 N3A      6.2506   1.5355  -1.2460   N.3       1 RES1   0.0000
    93 N6A      7.3960  -1.0793  -0.7729   N.3       1 RES1   0.0000
    94 Cl1      6.0002   5.1017   3.0679   Cl        2 RES2   0.0000
    95 O1       5.8226   4.7201   4.3088   O.2       2 RES2   0.0000
    96 O2       6.0187   4.0927   2.1943   O.2       2 RES2   0.0000
    97 O3       5.0513   5.9453   2.7131   O.2       2 RES2   0.0000
    98 O4       7.2588   5.7209   2.9216   O.3       2 RES2  -1.0000
    99 C15      0.5048  -0.0571   1.6040   C.1       3 RES3   0.0000
   100 C16      1.4838  -1.1266   1.4670   C.3       3 RES3   0.0000
   101 H24      2.3878  -0.7562   1.5552   H         3 RES3   0.0000
   102 H25      1.3884  -1.5465   0.5862   H         3 RES3   0.0000
   103 H26      1.3363  -1.7966   2.1663   H         3 RES3   0.0000
   104 N8      -0.2806   0.7828   1.7316   N.1       3 RES3   0.0000
   105 C17      9.3410  -1.6765   3.4248   C.3       4 RES4   0.0000
   106 H27      8.4571  -1.4333   3.7693   H         4 RES4   0.0000
   107 H28      9.4513  -2.6493   3.4663   H         4 RES4   0.0000
   108 H29      9.4224  -1.3771   2.4952   H         4 RES4   0.0000
   109 C18     10.3589  -1.0430   4.2227   C.1       4 RES4   0.0000
   110 N9      11.1471  -0.5366   4.8970   N.1       4 RES4   0.0000
@<TRIPOS>BOND
     1     1     4    1
     2     2     3    1
     3     3     4    2
     4     4    11    1
     5     5     2    1
     6     6     5    1
     7     7     5    1
     8     8     5    1
     9     9     8    1
    10    10     8    1
    11    11    12    1
    12    13     2    1
    13    14    13    1
    14    15    14    1
    15    16    14    1
    16    17    14    1
    17    18    17    1
    18    19    17    1
    19    20    17    1
    20    21    22    1
    21    22    23    2
    22    23     1    1
    23    24    21    1
    24    25    24    1
    25    26    24    1
    26    27    24    1
    27    28    27    1
    28    29    27    1
    29    30    23    1
    30    31    30    1
    31    32    21    1
    32    33    32    1
    33    34    33    1
    34    35    33    1
    35    36    33    1
    36    37    36    1
    37    38    36    1
    38    39    36    1
    39    40     1    1
    40    41    40    3
    41    42    41    1
    42    43    42    1
    43    44    42    1
    44    45    42    1
    45    46    47    1
    46    47    48    2
    47    48    55    1
    48    49    46    1
    49    50    49    1
    50    51    49    1
    51    52     8    1
    52    53    52    1
    53    54    52    1
    54    55    56    1
    55    57    46    1
    56    58    57    1
    57    59    58    1
    58    60    58    1
    59    61    58    1
    60    62    61    1
    61    63    61    1
    62    64    61    1
    63    65    66    1
    64    66    67    2
    65    67    74    1
    66    68    65    1
    67    69    68    1
    68    70    68    1
    69    71    27    1
    70    72    71    1
    71    73    71    1
    72    74    75    1
    73    76    65    1
    74    77    76    1
    75    78    77    1
    76    79    77    1
    77    80    77    1
    78    81    80    1
    79    82    80    1
    80    83    80    1
    81    84     1    1
    82    85    84    3
    83    86    85    1
    84    87    86    1
    85    88    86    1
    86    89    86    1
    87    90    67   un
    88    91    48   un
    89    92     1   un
    90    93     1   un
    91    11    13    2
    92    30    32    2
    93    49    52    1
    94    55    57    2
    95    68    71    1
    96    74    76    2
    97    94    95    2
    98    96    94    2
    99    97    94    2
   100    98    94    1
   101    99   100    1
   102   100   101    1
   103   102   100    1
   104   103   100    1
   105   104    99    3
   106   105   106    1
   107   107   105    1
   108   108   105    1
   109   109   105    1
   110   110   109    3
@<TRIPOS>SUBSTRUCTURE
     1 RES1        1 GROUP             0 ****  ****    0  
     2 RES2       94 GROUP             0 ****  ****    0  
     3 RES3       99 GROUP             0 ****  ****    0  
     4 RES4      105 GROUP             0 ****  ****    0  
@<TRIPOS>CRYSIN
   11.7990   11.2250   11.5730   64.3230   83.0750   62.1580     2     1
