@<TRIPOS>MOLECULE
FEYZIV05
   110   110     4     0     0
SMALL
USER_CHARGES
****
Generated from the CSD

@<TRIPOS>ATOM
     1 Fe1      5.8800   0.0000   0.0000   Fe        1 RES1   2.0000
     2 N1       5.5620  -2.6821   3.0248   N.pl3     1 RES1   0.0000
     3 N2       5.6963  -1.4253   2.5388   N.2       1 RES1   0.0000
     4 N3       5.5401  -1.5264   1.2544   N.2       1 RES1   0.0000
     5 C1       5.7294  -2.9187   4.4644   C.3       1 RES1   0.0000
     6 H1       6.2091  -2.1506   4.8635   H         1 RES1   0.0000
     7 H2       6.2890  -3.7249   4.5947   H         1 RES1   0.0000
     8 C2       4.4005  -3.1134   5.2007   C.3       1 RES1   0.0000
     9 H3       3.9212  -3.8825   4.8036   H         1 RES1   0.0000
    10 H4       4.5863  -3.3293   6.1490   H         1 RES1   0.0000
    11 C3       5.3032  -2.8278   0.8987   C.2       1 RES1   0.0000
    12 H5       5.1513  -3.1542   0.0186   H         1 RES1   0.0000
    13 C4       5.3276  -3.5769   2.0579   C.2       1 RES1   0.0000
    14 C5       5.2159  -5.0580   2.3009   C.3       1 RES1   0.0000
    15 H6       4.6023  -5.2200   3.0600   H         1 RES1   0.0000
    16 H7       6.1058  -5.4178   2.5450   H         1 RES1   0.0000
    17 C6       4.6935  -5.7979   1.0569   C.3       1 RES1   0.0000
    18 H8       3.7492  -5.5743   0.9162   H         1 RES1   0.0000
    19 H9       4.7841  -6.7642   1.1903   H         1 RES1   0.0000
    20 H10      5.2138  -5.5262   0.2720   H         1 RES1   0.0000
    21 N4       2.7182   2.4074   0.8718   N.pl3     1 RES1   0.0000
    22 N5       3.5454   1.7464   0.0217   N.2       1 RES1   0.0000
    23 N6       4.3831   1.0627   0.7694   N.2       1 RES1   0.0000
    24 C7       1.6742   3.2596   0.3392   C.3       1 RES1   0.0000
    25 H11      0.8355   3.0863   0.8345   H         1 RES1   0.0000
    26 H12      1.5188   3.0207  -0.6091   H         1 RES1   0.0000
    27 C8       2.0013   4.7481   0.4250   C.3       1 RES1   0.0000
    28 H13      2.1826   4.9815   1.3702   H         1 RES1   0.0000
    29 H14      1.2105   5.2682   0.1344   H         1 RES1   0.0000
    30 C9       4.1024   1.2870   2.0796   C.2       1 RES1   0.0000
    31 H15      4.5590   0.8961   2.8159   H         1 RES1   0.0000
    32 C10      3.0604   2.1645   2.1686   C.2       1 RES1   0.0000
    33 C11      2.3352   2.7735   3.3371   C.3       1 RES1   0.0000
    34 H16      1.3815   2.8994   3.1014   H         1 RES1   0.0000
    35 H17      2.7211   3.6629   3.5367   H         1 RES1   0.0000
    36 C12      2.4385   1.8843   4.5791   C.3       1 RES1   0.0000
    37 H18      1.9396   1.0551   4.4292   H         1 RES1   0.0000
    38 H19      2.0625   2.3569   5.3516   H         1 RES1   0.0000
    39 H20      3.3795   1.6729   4.7518   H         1 RES1   0.0000
    40 N7       7.0486   0.7891   1.3185   N.1       1 RES1   0.0000
    41 C13      7.6214   1.2468   2.1955   C.1       1 RES1   0.0000
    42 C14      8.3338   1.7900   3.3361   C.3       1 RES1   0.0000
    43 H21      8.1658   2.7534   3.3971   H         1 RES1   0.0000
    44 H22      9.2946   1.6310   3.2265   H         1 RES1   0.0000
    45 H23      8.0210   1.3522   4.1551   H         1 RES1   0.0000
    46 N1A      2.3461  -2.3205   7.3165   N.pl3     1 RES1   0.0000
    47 N2A      2.2117  -3.5773   7.8025   N.2       1 RES1   0.0000
    48 N3A      2.3679  -3.4762   9.0869   N.2       1 RES1   0.0000
    49 C1A      2.1786  -2.0839   5.8770   C.3       1 RES1   0.0000
    50 H1A      1.6990  -2.8520   5.4778   H         1 RES1   0.0000
    51 H2A      1.6191  -1.2777   5.7467   H         1 RES1   0.0000
    52 C2A      3.5076  -1.8893   5.1407   C.3       1 RES1   0.0000
    53 H3A      3.9868  -1.1202   5.5378   H         1 RES1   0.0000
    54 H4A      3.3217  -1.6733   4.1924   H         1 RES1   0.0000
    55 C3A      2.6048  -2.1748   9.4427   C.2       1 RES1   0.0000
    56 H5A      2.7567  -1.8484  10.3227   H         1 RES1   0.0000
    57 C4A      2.5804  -1.4257   8.2834   C.2       1 RES1   0.0000
    58 C5A      2.6921   0.0554   8.0404   C.3       1 RES1   0.0000
    59 H6A      3.3058   0.2174   7.2813   H         1 RES1   0.0000
    60 H7A      1.8022   0.4152   7.7963   H         1 RES1   0.0000
    61 C6A      3.2145   0.7953   9.2845   C.3       1 RES1   0.0000
    62 H8A      4.1588   0.5716   9.4251   H         1 RES1   0.0000
    63 H9A      3.1239   1.7615   9.1511   H         1 RES1   0.0000
    64 H10A     2.6943   0.5236  10.0694   H         1 RES1   0.0000
    65 N4A      2.4865   7.5019  -0.8718   N.pl3     1 RES1   0.0000
    66 N5A      1.6593   8.1629  -0.0217   N.2       1 RES1   0.0000
    67 N6A      0.8216   8.8466  -0.7694   N.2       1 RES1   0.0000
    68 C7A      3.5305   6.6497  -0.3392   C.3       1 RES1   0.0000
    69 H11A     4.3692   6.8230  -0.8345   H         1 RES1   0.0000
    70 H12A     3.6860   6.8886   0.6091   H         1 RES1   0.0000
    71 C8A      3.2034   5.1613  -0.4250   C.3       1 RES1   0.0000
    72 H13A     3.0221   4.9278  -1.3702   H         1 RES1   0.0000
    73 H14A     3.9942   4.6412  -0.1344   H         1 RES1   0.0000
    74 C9A      1.1023   8.6223  -2.0796   C.2       1 RES1   0.0000
    75 H15A     0.6457   9.0132  -2.8159   H         1 RES1   0.0000
    76 C10A     2.1443   7.7448  -2.1686   C.2       1 RES1   0.0000
    77 C11A     2.8695   7.1358  -3.3371   C.3       1 RES1   0.0000
    78 H16A     3.8232   7.0099  -3.1014   H         1 RES1   0.0000
    79 H17A     2.4836   6.2464  -3.5367   H         1 RES1   0.0000
    80 C12A     2.7662   8.0250  -4.5791   C.3       1 RES1   0.0000
    81 H18A     3.2651   8.8542  -4.4292   H         1 RES1   0.0000
    82 H19A     3.1422   7.5524  -5.3516   H         1 RES1   0.0000
    83 H20A     1.8252   8.2364  -4.7518   H         1 RES1   0.0000
    84 N7A      4.7114  -0.7891  -1.3185   N.1       1 RES1   0.0000
    85 C13A     4.1386  -1.2468  -2.1955   C.1       1 RES1   0.0000
    86 C14A     3.4262  -1.7900  -3.3361   C.3       1 RES1   0.0000
    87 H21A     3.5942  -2.7534  -3.3971   H         1 RES1   0.0000
    88 H22A     2.4654  -1.6310  -3.2265   H         1 RES1   0.0000
    89 H23A     3.7390  -1.3522  -4.1551   H         1 RES1   0.0000
    90 Fe1     -0.6753   9.9093   0.0000   Fe        1 RES1   2.0000
    91 Fe1      2.0280  -5.0026  10.3413   Fe        1 RES1   2.0000
    92 N3A      6.2199   1.5264  -1.2544   N.3       1 RES1   0.0000
    93 N6A      7.3769  -1.0627  -0.7694   N.3       1 RES1   0.0000
    94 Cl1      5.9666   5.1015   3.0476   Cl        2 RES2   0.0000
    95 O1       5.8137   4.7672   4.3061   O.2       2 RES2   0.0000
    96 O2       5.9617   4.0532   2.1831   O.2       2 RES2   0.0000
    97 O3       4.9970   5.9658   2.6950   O.2       2 RES2   0.0000
    98 O4       7.2422   5.7533   2.8925   O.3       2 RES2  -1.0000
    99 C15      0.4743  -0.0382   1.6153   C.1       3 RES3   0.0000
   100 C16      1.4428  -1.1158   1.5078   C.3       3 RES3   0.0000
   101 H24      2.2995  -0.8218   1.8832   H         3 RES3   0.0000
   102 H25      1.5634  -1.3538   0.5657   H         3 RES3   0.0000
   103 H26      1.1200  -1.8960   2.0042   H         3 RES3   0.0000
   104 N8      -0.2982   0.7962   1.7198   N.1       3 RES3   0.0000
   105 C17      9.2848  -1.6553   3.4116   C.3       4 RES4   0.0000
   106 H27      8.4037  -1.4380   3.7818   H         4 RES4   0.0000
   107 H28      9.4094  -2.6269   3.4126   H         4 RES4   0.0000
   108 H29      9.3443  -1.3191   2.4933   H         4 RES4   0.0000
   109 C18     10.3154  -1.0353   4.2213   C.1       4 RES4   0.0000
   110 N9      11.1121  -0.5454   4.8801   N.1       4 RES4   0.0000
@<TRIPOS>BOND
     1     1     4    1
     2     2     3    1
     3     3     4    2
     4     4    11    1
     5     5     2    1
     6     6     5    1
     7     7     5    1
     8     8     5    1
     9     9     8    1
    10    10     8    1
    11    11    12    1
    12    13     2    1
    13    14    13    1
    14    15    14    1
    15    16    14    1
    16    17    14    1
    17    18    17    1
    18    19    17    1
    19    20    17    1
    20    21    22    1
    21    22    23    2
    22    23     1    1
    23    24    21    1
    24    25    24    1
    25    26    24    1
    26    27    24    1
    27    28    27    1
    28    29    27    1
    29    30    23    1
    30    31    30    1
    31    32    21    1
    32    33    32    1
    33    34    33    1
    34    35    33    1
    35    36    33    1
    36    37    36    1
    37    38    36    1
    38    39    36    1
    39    40     1    1
    40    41    40    3
    41    42    41    1
    42    43    42    1
    43    44    42    1
    44    45    42    1
    45    46    47    1
    46    47    48    2
    47    48    55    1
    48    49    46    1
    49    50    49    1
    50    51    49    1
    51    52     8    1
    52    53    52    1
    53    54    52    1
    54    55    56    1
    55    57    46    1
    56    58    57    1
    57    59    58    1
    58    60    58    1
    59    61    58    1
    60    62    61    1
    61    63    61    1
    62    64    61    1
    63    65    66    1
    64    66    67    2
    65    67    74    1
    66    68    65    1
    67    69    68    1
    68    70    68    1
    69    71    27    1
    70    72    71    1
    71    73    71    1
    72    74    75    1
    73    76    65    1
    74    77    76    1
    75    78    77    1
    76    79    77    1
    77    80    77    1
    78    81    80    1
    79    82    80    1
    80    83    80    1
    81    84     1    1
    82    85    84    3
    83    86    85    1
    84    87    86    1
    85    88    86    1
    86    89    86    1
    87    90    67   un
    88    91    48   un
    89    92     1   un
    90    93     1   un
    91    11    13    2
    92    30    32    2
    93    49    52    1
    94    55    57    2
    95    68    71    1
    96    74    76    2
    97    94    95    2
    98    96    94    2
    99    97    94    2
   100    98    94    1
   101    99   100    1
   102   100   101    1
   103   102   100    1
   104   103   100    1
   105   104    99    3
   106   105   106    1
   107   107   105    1
   108   108   105    1
   109   109   105    1
   110   110   109    3
@<TRIPOS>SUBSTRUCTURE
     1 RES1        1 GROUP             0 ****  ****    0  
     2 RES2       94 GROUP             0 ****  ****    0  
     3 RES3       99 GROUP             0 ****  ****    0  
     4 RES4      105 GROUP             0 ****  ****    0  
@<TRIPOS>CRYSIN
   11.7600   11.1930   11.5260   64.4400   83.2600   62.2900     2     1
