@<TRIPOS>MOLECULE
FICYOJ
   165   179     2     0     0
SMALL
NO_CHARGES
****
Generated from the CSD

@<TRIPOS>ATOM
     1 Fe1     -3.2533   4.1027  11.1730   Fe        1 RES1   0.0000
     2 Se1     -1.5825   6.5006   7.3000   Se        1 RES1   0.0000
     3 N1       0.4717   5.8356  11.9536   N.pl3     1 RES1   0.0000
     4 N2      -1.6430   5.4130  11.7623   N.2       1 RES1   0.0000
     5 N3       1.8779   5.6321  11.8617   N.2       1 RES1   0.0000
     6 N4      -1.4244   3.0072  10.6262   N.ar      1 RES1   0.0000
     7 N5      -1.5239   6.6258  12.3737   N.2       1 RES1   0.0000
     8 N6       1.5746   8.3136  13.1980   N.ar      1 RES1   0.0000
     9 N7      -3.1357   5.0249   9.2738   N.2       1 RES1   0.0000
    10 C1      -0.4473   4.9412  11.4899   C.2       1 RES1   0.0000
    11 C2      -0.2401   6.8793  12.4863   C.2       1 RES1   0.0000
    12 C3      -0.2604   3.6793  10.7889   C.ar      1 RES1   0.0000
    13 C4       0.2692   8.1454  13.0431   C.ar      1 RES1   0.0000
    14 C5       2.4309   5.6715  13.0143   C.2       1 RES1   0.0000
    15 H1       1.9035   5.8000  13.7695   H         1 RES1   0.0000
    16 C6       3.8737   5.5189  13.1663   C.ar      1 RES1   0.0000
    17 C7      -2.5293   5.5985   8.4937   C.1       1 RES1   0.0000
    18 C8       4.4218   5.4992  14.4279   C.ar      1 RES1   0.0000
    19 H2       3.8734   5.6192  15.1696   H         1 RES1   0.0000
    20 C9       6.6135   5.1488  13.5234   C.ar      1 RES1   0.0000
    21 C10      5.7820   5.3031  14.6060   C.ar      1 RES1   0.0000
    22 H3       6.1350   5.2751  15.4660   H         1 RES1   0.0000
    23 C11      4.7073   5.4040  12.0698   C.ar      1 RES1   0.0000
    24 H4       4.3552   5.4494  11.2102   H         1 RES1   0.0000
    25 C12      8.0850   4.9453  13.6986   C.2       1 RES1   0.0000
    26 C13      8.9395   5.9119  12.9535   C.ar      1 RES1   0.0000
    27 C14      8.5510   3.9213  14.4467   C.2       1 RES1   0.0000
    28 C15     -1.3928   1.8454   9.9998   C.ar      1 RES1   0.0000
    29 H5      -2.1909   1.3808   9.8898   H         1 RES1   0.0000
    30 C16      1.9761   9.4861  13.7205   C.ar      1 RES1   0.0000
    31 H6       2.8883   9.6209  13.8399   H         1 RES1   0.0000
    32 C17      7.6750   2.8431  14.9674   C.ar      1 RES1   0.0000
    33 C18     -0.6434   9.1120  13.3875   C.ar      1 RES1   0.0000
    34 H7      -1.5535   8.9675  13.2648   H         1 RES1   0.0000
    35 C19      6.0608   5.2219  12.2525   C.ar      1 RES1   0.0000
    36 H8       6.6149   5.1469  11.5095   H         1 RES1   0.0000
    37 C20      1.1331  10.4815  14.0847   C.ar      1 RES1   0.0000
    38 H9       1.4621  11.2737  14.4431   H         1 RES1   0.0000
    39 C21     10.0083   3.7884  14.7841   C.ar      1 RES1   0.0000
    40 C22      0.9302   3.2025  10.3060   C.ar      1 RES1   0.0000
    41 H10      1.7181   3.6838  10.4198   H         1 RES1   0.0000
    42 C23     -0.1869  10.2993  13.9126   C.ar      1 RES1   0.0000
    43 H11     -0.7887  10.9690  14.1498   H         1 RES1   0.0000
    44 C24     10.0645   5.5222  12.2680   C.ar      1 RES1   0.0000
    45 H12     10.3384   4.6348  12.3128   H         1 RES1   0.0000
    46 C25      6.8557   2.1112  14.1070   C.ar      1 RES1   0.0000
    47 H13      6.8180   2.3397  13.2065   H         1 RES1   0.0000
    48 C26     -0.2424   1.2882   9.5015   C.ar      1 RES1   0.0000
    49 H14     -0.2560   0.4607   9.0780   H         1 RES1   0.0000
    50 C27      0.9314   1.9922   9.6490   C.ar      1 RES1   0.0000
    51 H15      1.7258   1.6504   9.3036   H         1 RES1   0.0000
    52 C28      8.5824   7.2125  12.8601   C.ar      1 RES1   0.0000
    53 H16      7.8217   7.5067  13.3059   H         1 RES1   0.0000
    54 C29     10.6932   2.6298  14.4802   C.ar      1 RES1   0.0000
    55 H17     10.2355   1.9213  14.0884   H         1 RES1   0.0000
    56 C30      7.7077   2.4903  16.2947   C.ar      1 RES1   0.0000
    57 H18      8.2407   2.9686  16.8876   H         1 RES1   0.0000
    58 C31      6.1619   0.7171  15.8813   C.ar      1 RES1   0.0000
    59 H19      5.6588  -0.0038  16.1847   H         1 RES1   0.0000
    60 C32      6.1116   1.0609  14.5696   C.ar      1 RES1   0.0000
    61 H20      5.5682   0.5835  13.9846   H         1 RES1   0.0000
    62 C33     10.7981   6.4141  11.5149   C.ar      1 RES1   0.0000
    63 H21     11.5477   6.1212  11.0504   H         1 RES1   0.0000
    64 C34     10.4338   7.6908  11.4523   C.ar      1 RES1   0.0000
    65 H22     10.9410   8.2925  10.9565   H         1 RES1   0.0000
    66 C35     10.6754   4.8313  15.4098   C.ar      1 RES1   0.0000
    67 H23     10.2356   5.6221  15.6236   H         1 RES1   0.0000
    68 C36      6.9413   1.4105  16.7595   C.ar      1 RES1   0.0000
    69 H24      6.9623   1.1714  17.6586   H         1 RES1   0.0000
    70 C37      9.3227   8.1224  12.1138   C.ar      1 RES1   0.0000
    71 H25      9.0623   9.0138  12.0669   H         1 RES1   0.0000
    72 C38     12.6900   3.4996  15.3562   C.ar      1 RES1   0.0000
    73 H26     13.5975   3.4126  15.5448   H         1 RES1   0.0000
    74 C39     12.0384   2.4952  14.7439   C.ar      1 RES1   0.0000
    75 H27     12.4898   1.7198  14.4998   H         1 RES1   0.0000
    76 C40     12.0275   4.6573  15.7093   C.ar      1 RES1   0.0000
    77 H28     12.4890   5.3318  16.1541   H         1 RES1   0.0000
    78 Se1B    -4.9240   1.7047  15.0460   Se        1 RES1   0.0000
    79 N1B     -6.9782   2.3697  10.3925   N.pl3     1 RES1   0.0000
    80 N2B     -4.8635   2.7923  10.5837   N.2       1 RES1   0.0000
    81 N3B     -8.3844   2.5732  10.4843   N.2       1 RES1   0.0000
    82 N4B     -5.0821   5.1981  11.7198   N.ar      1 RES1   0.0000
    83 N5B     -4.9826   1.5795   9.9724   N.2       1 RES1   0.0000
    84 N6B     -8.0811  -0.1083   9.1480   N.ar      1 RES1   0.0000
    85 N7B     -3.3708   3.1804  13.0722   N.2       1 RES1   0.0000
    86 C1B     -6.0592   3.2641  10.8561   C.2       1 RES1   0.0000
    87 C2B     -6.2664   1.3260   9.8597   C.2       1 RES1   0.0000
    88 C3B     -6.2461   4.5260  11.5571   C.ar      1 RES1   0.0000
    89 C4B     -6.7757   0.0599   9.3029   C.ar      1 RES1   0.0000
    90 C5B     -8.9374   2.5338   9.3317   C.2       1 RES1   0.0000
    91 H1B     -8.4100   2.4053   8.5765   H         1 RES1   0.0000
    92 C6B    -10.3802   2.6864   9.1797   C.ar      1 RES1   0.0000
    93 C7B     -3.9772   2.6068  13.8523   C.1       1 RES1   0.0000
    94 C8B    -10.9283   2.7061   7.9181   C.ar      1 RES1   0.0000
    95 H2B    -10.3799   2.5861   7.1764   H         1 RES1   0.0000
    96 C9B    -13.1200   3.0565   8.8227   C.ar      1 RES1   0.0000
    97 C10B   -12.2885   2.9022   7.7400   C.ar      1 RES1   0.0000
    98 H3B    -12.6415   2.9302   6.8800   H         1 RES1   0.0000
    99 C11B   -11.2138   2.8013  10.2763   C.ar      1 RES1   0.0000
   100 H4B    -10.8617   2.7559  11.1358   H         1 RES1   0.0000
   101 C12B   -14.5915   3.2600   8.6475   C.2       1 RES1   0.0000
   102 C13B   -15.4460   2.2934   9.3925   C.ar      1 RES1   0.0000
   103 C14B   -15.0575   4.2840   7.8993   C.2       1 RES1   0.0000
   104 C15B    -5.1137   6.3599  12.3462   C.ar      1 RES1   0.0000
   105 H5B     -4.3156   6.8245  12.4563   H         1 RES1   0.0000
   106 C16B    -8.4826  -1.2808   8.6256   C.ar      1 RES1   0.0000
   107 H6B     -9.3948  -1.4156   8.5061   H         1 RES1   0.0000
   108 C17B   -14.1815   5.3622   7.3787   C.ar      1 RES1   0.0000
   109 C18B    -5.8631  -0.9067   8.9585   C.ar      1 RES1   0.0000
   110 H7B     -4.9530  -0.7622   9.0812   H         1 RES1   0.0000
   111 C19B   -12.5673   2.9834  10.0935   C.ar      1 RES1   0.0000
   112 H8B    -13.1214   3.0584  10.8365   H         1 RES1   0.0000
   113 C20B    -7.6396  -2.2762   8.2613   C.ar      1 RES1   0.0000
   114 H9B     -7.9686  -3.0684   7.9029   H         1 RES1   0.0000
   115 C21B   -16.5148   4.4169   7.5619   C.ar      1 RES1   0.0000
   116 C22B    -7.4367   5.0028  12.0400   C.ar      1 RES1   0.0000
   117 H10B    -8.2246   4.5215  11.9262   H         1 RES1   0.0000
   118 C23B    -6.3196  -2.0940   8.4334   C.ar      1 RES1   0.0000
   119 H11B    -5.7178  -2.7637   8.1963   H         1 RES1   0.0000
   120 C24B   -16.5710   2.6831  10.0781   C.ar      1 RES1   0.0000
   121 H12B   -16.8449   3.5705  10.0332   H         1 RES1   0.0000
   122 C25B   -13.3622   6.0941   8.2390   C.ar      1 RES1   0.0000
   123 H13B   -13.3245   5.8656   9.1395   H         1 RES1   0.0000
   124 C26B    -6.2641   6.9171  12.8445   C.ar      1 RES1   0.0000
   125 H14B    -6.2505   7.7446  13.2680   H         1 RES1   0.0000
   126 C27B    -7.4379   6.2131  12.6970   C.ar      1 RES1   0.0000
   127 H15B    -8.2323   6.5549  13.0424   H         1 RES1   0.0000
   128 C28B   -15.0889   0.9928   9.4859   C.ar      1 RES1   0.0000
   129 H16B   -14.3282   0.6986   9.0401   H         1 RES1   0.0000
   130 C29B   -17.1997   5.5755   7.8658   C.ar      1 RES1   0.0000
   131 H17B   -16.7420   6.2840   8.2576   H         1 RES1   0.0000
   132 C30B   -14.2142   5.7150   6.0513   C.ar      1 RES1   0.0000
   133 H18B   -14.7472   5.2367   5.4585   H         1 RES1   0.0000
   134 C31B   -12.6684   7.4882   6.4647   C.ar      1 RES1   0.0000
   135 H19B   -12.1653   8.2091   6.1614   H         1 RES1   0.0000
   136 C32B   -12.6181   7.1444   7.7764   C.ar      1 RES1   0.0000
   137 H20B   -12.0747   7.6218   8.3615   H         1 RES1   0.0000
   138 C33B   -17.3046   1.7912  10.8311   C.ar      1 RES1   0.0000
   139 H21B   -18.0542   2.0841  11.2956   H         1 RES1   0.0000
   140 C34B   -16.9403   0.5145  10.8937   C.ar      1 RES1   0.0000
   141 H22B   -17.4475  -0.0872  11.3895   H         1 RES1   0.0000
   142 C35B   -17.1819   3.3740   6.9362   C.ar      1 RES1   0.0000
   143 H23B   -16.7421   2.5832   6.7224   H         1 RES1   0.0000
   144 C36B   -13.4478   6.7948   5.5865   C.ar      1 RES1   0.0000
   145 H24B   -13.4688   7.0339   4.6875   H         1 RES1   0.0000
   146 C37B   -15.8292   0.0829  10.2322   C.ar      1 RES1   0.0000
   147 H25B   -15.5688  -0.8085  10.2791   H         1 RES1   0.0000
   148 C38B   -19.1965   4.7057   6.9898   C.ar      1 RES1   0.0000
   149 H26B   -20.1040   4.7927   6.8012   H         1 RES1   0.0000
   150 C39B   -18.5449   5.7101   7.6021   C.ar      1 RES1   0.0000
   151 H27B   -18.9963   6.4855   7.8463   H         1 RES1   0.0000
   152 C40B   -18.5340   3.5480   6.6368   C.ar      1 RES1   0.0000
   153 H28B   -18.9955   2.8735   6.1919   H         1 RES1   0.0000
   154 N8      -1.3351   6.2738  16.0377   N.am      2 RES2   0.0000
   155 O1       0.7529   5.4959  15.7173   O.2       2 RES2   0.0000
   156 C41     -0.0363   6.4026  15.9930   C.2       2 RES2   0.0000
   157 H29      0.3204   7.2411  16.1809   H         2 RES2   0.0000
   158 C42     -2.2036   7.3708  16.3483   C.3       2 RES2   0.0000
   159 H30     -1.6780   8.1583  16.5109   H         2 RES2   0.0000
   160 H31     -2.7160   7.1611  17.1317   H         2 RES2   0.0000
   161 H32     -2.7956   7.5286  15.6098   H         2 RES2   0.0000
   162 C43     -1.8976   4.9970  15.7875   C.3       2 RES2   0.0000
   163 H33     -1.2386   4.4311  15.3791   H         2 RES2   0.0000
   164 H34     -2.6501   5.0890  15.1988   H         2 RES2   0.0000
   165 H35     -2.1854   4.6065  16.6161   H         2 RES2   0.0000
@<TRIPOS>BOND
     1     1     4    1
     2     2    17    2
     3     3     5    1
     4     4     7    1
     5     5    14    2
     6     6     1    1
     7     7    11    2
     8     8    13   ar
     9     9     1    1
    10    10     3    1
    11    11     3    1
    12    12     6   ar
    13    13    11    1
    14    14    15    1
    15    16    14    1
    16    17     9    2
    17    18    16   ar
    18    19    18    1
    19    20    21   ar
    20    21    18   ar
    21    22    21    1
    22    23    16   ar
    23    24    23    1
    24    25    20    1
    25    26    25    1
    26    27    25    2
    27    28     6   ar
    28    29    28    1
    29    30     8   ar
    30    31    30    1
    31    32    27    1
    32    33    13   ar
    33    34    33    1
    34    35    20   ar
    35    36    35    1
    36    37    30   ar
    37    38    37    1
    38    39    27    1
    39    40    12   ar
    40    41    40    1
    41    42    33   ar
    42    43    42    1
    43    44    26   ar
    44    45    44    1
    45    46    32   ar
    46    47    46    1
    47    48    28   ar
    48    49    48    1
    49    50    40   ar
    50    51    50    1
    51    52    26   ar
    52    53    52    1
    53    54    39   ar
    54    55    54    1
    55    56    32   ar
    56    57    56    1
    57    58    59    1
    58    60    46   ar
    59    61    60    1
    60    62    44   ar
    61    63    62    1
    62    64    62   ar
    63    65    64    1
    64    66    39   ar
    65    67    66    1
    66    68    56   ar
    67    69    68    1
    68    70    52   ar
    69    71    70    1
    70    72    73    1
    71    74    54   ar
    72    75    74    1
    73    76    66   ar
    74    77    76    1
    75    78    93    2
    76    79    81    1
    77    80     1    1
    78    81    90    2
    79    82     1    1
    80    83    80    1
    81    84    89   ar
    82    85     1    1
    83    86    79    1
    84    87    79    1
    85    88    82   ar
    86    89    87    1
    87    90    91    1
    88    92    90    1
    89    93    85    2
    90    94    92   ar
    91    95    94    1
    92    96    97   ar
    93    97    94   ar
    94    98    97    1
    95    99    92   ar
    96   100    99    1
    97   101    96    1
    98   102   101    1
    99   103   101    2
   100   104    82   ar
   101   105   104    1
   102   106    84   ar
   103   107   106    1
   104   108   103    1
   105   109    89   ar
   106   110   109    1
   107   111    96   ar
   108   112   111    1
   109   113   106   ar
   110   114   113    1
   111   115   103    1
   112   116    88   ar
   113   117   116    1
   114   118   109   ar
   115   119   118    1
   116   120   102   ar
   117   121   120    1
   118   122   108   ar
   119   123   122    1
   120   124   104   ar
   121   125   124    1
   122   126   116   ar
   123   127   126    1
   124   128   102   ar
   125   129   128    1
   126   130   115   ar
   127   131   130    1
   128   132   108   ar
   129   133   132    1
   130   134   135    1
   131   136   122   ar
   132   137   136    1
   133   138   120   ar
   134   139   138    1
   135   140   138   ar
   136   141   140    1
   137   142   115   ar
   138   143   142    1
   139   144   132   ar
   140   145   144    1
   141   146   128   ar
   142   147   146    1
   143   148   149    1
   144   150   130   ar
   145   151   150    1
   146   152   142   ar
   147   153   152    1
   148     4    10    2
   149    10    12    1
   150    23    35   ar
   151    37    42   ar
   152    48    50   ar
   153    58    60   ar
   154    58    68   ar
   155    64    70   ar
   156    72    74   ar
   157    72    76   ar
   158    80    86    2
   159    83    87    2
   160    86    88    1
   161    99   111   ar
   162   113   118   ar
   163   124   126   ar
   164   134   136   ar
   165   134   144   ar
   166   140   146   ar
   167   148   150   ar
   168   148   152   ar
   169   154   156   am
   170   155   156    2
   171   156   157    1
   172   158   154    1
   173   159   158    1
   174   160   158    1
   175   161   158    1
   176   162   154    1
   177   163   162    1
   178   164   162    1
   179   165   162    1
@<TRIPOS>SUBSTRUCTURE
     1 RES1        1 GROUP             0 ****  ****    0  
     2 RES2      154 GROUP             0 ****  ****    0  
@<TRIPOS>CRYSIN
   21.6110    8.2053   23.2740   90.0000  106.2340   90.0000   231     1
