@<TRIPOS>MOLECULE
FIKYOP
   128   129     8     0     0
SMALL
USER_CHARGES
****
Generated from the CSD

@<TRIPOS>ATOM
     1 Fe1      7.2147   5.9420   1.2606   Fe        1 RES1  -2.0000
     2 N1       7.0018   2.8767   1.6671   N.1       1 RES1   0.0000
     3 N2       5.7274   5.7219  -1.4462   N.1       1 RES1   0.0000
     4 N3       7.4003   9.0207   1.0382   N.1       1 RES1   0.0000
     5 N4       9.8309   5.6098  -0.3304   N.1       1 RES1   0.0000
     6 N5       8.9766   6.2654   3.7745   N.1       1 RES1   0.0000
     7 N6       5.5196   6.1101   2.2964   N.2       1 RES1   0.0000
     8 N7       3.3759   6.1111   2.7861   N.pl3     1 RES1   0.0000
     9 C1       7.1202   4.0012   1.4878   C.1       1 RES1   0.0000
    10 C2       6.2631   5.8030  -0.4273   C.1       1 RES1   0.0000
    11 C3       7.3481   7.8774   1.0815   C.1       1 RES1   0.0000
    12 C4       8.8449   5.7375   0.2597   C.1       1 RES1   0.0000
    13 C5       8.2948   6.1172   2.8611   C.1       1 RES1   0.0000
    14 C6       4.2918   6.0058   1.8208   C.2       1 RES1   0.0000
    15 H1       4.0901   5.8740   0.9238   H         1 RES1   0.0000
    16 C7       5.3607   6.2876   3.6465   C.2       1 RES1   0.0000
    17 H2       6.0533   6.3916   4.2596   H         1 RES1   0.0000
    18 C8       4.0399   6.2866   3.9539   C.2       1 RES1   0.0000
    19 H3       3.6630   6.3867   4.7988   H         1 RES1   0.0000
    20 C9       1.9232   6.0361   2.6169   C.3       1 RES1   0.0000
    21 H4       1.5516   6.9214   2.6505   H         1 RES1   0.0000
    22 H5       1.5459   5.5029   3.3224   H         1 RES1   0.0000
    23 H6       1.7206   5.6348   1.7687   H         1 RES1   0.0000
    24 P1       1.5477   1.2776   2.4315   P.3       2 RES2   1.0000
    25 C10      2.1266   2.0569   0.9206   C.ar      2 RES2   0.0000
    26 C11      1.2436   2.4477  -0.0605   C.ar      2 RES2   0.0000
    27 H7       0.3333   2.2876   0.0437   H         2 RES2   0.0000
    28 C12      1.7081   3.0793  -1.2043   C.ar      2 RES2   0.0000
    29 H8       1.1098   3.3350  -1.8695   H         2 RES2   0.0000
    30 C13      3.0474   3.3267  -1.3555   C.ar      2 RES2   0.0000
    31 H9       3.3583   3.7573  -2.1197   H         2 RES2   0.0000
    32 C14      3.9165   2.9443  -0.3947   C.ar      2 RES2   0.0000
    33 H10      4.8252   3.1055  -0.5039   H         2 RES2   0.0000
    34 C15      3.4678   2.3218   0.7407   C.ar      2 RES2   0.0000
    35 H11      4.0758   2.0727   1.3992   H         2 RES2   0.0000
    36 C16      2.0052  -0.4541   2.4369   C.ar      2 RES2   0.0000
    37 C17      2.1278  -1.1135   3.6533   C.ar      2 RES2   0.0000
    38 H12      2.0528  -0.6445   4.4511   H         2 RES2   0.0000
    39 C18      2.3639  -2.4709   3.6617   C.ar      2 RES2   0.0000
    40 H13      2.4340  -2.9248   4.4713   H         2 RES2   0.0000
    41 C19      2.4963  -3.1619   2.4741   C.ar      2 RES2   0.0000
    42 H14      2.6508  -4.0796   2.4859   H         2 RES2   0.0000
    43 C20      2.4019  -2.5037   1.2782   C.ar      2 RES2   0.0000
    44 H15      2.5051  -2.9736   0.4821   H         2 RES2   0.0000
    45 C21      2.1557  -1.1494   1.2498   C.ar      2 RES2   0.0000
    46 H16      2.0899  -0.7031   0.4367   H         2 RES2   0.0000
    47 C22     -0.2435   1.4333   2.4951   C.ar      2 RES2   0.0000
    48 C23     -1.0452   0.2966   2.4817   C.ar      2 RES2   0.0000
    49 H17     -0.6574  -0.5469   2.5296   H         2 RES2   0.0000
    50 C24     -2.4242   0.4238   2.3970   C.ar      2 RES2   0.0000
    51 H18     -2.9589  -0.3369   2.3851   H         2 RES2   0.0000
    52 C25     -3.0077   1.6733   2.3305   C.ar      2 RES2   0.0000
    53 H19     -3.9309   1.7529   2.2558   H         2 RES2   0.0000
    54 C26     -2.2190   2.8039   2.3767   C.ar      2 RES2   0.0000
    55 H20     -2.6132   3.6450   2.3616   H         2 RES2   0.0000
    56 C27     -0.8448   2.6904   2.4439   C.ar      2 RES2   0.0000
    57 H21     -0.3170   3.4570   2.4540   H         2 RES2   0.0000
    58 C28      2.3082   2.0627   3.8498   C.ar      2 RES2   0.0000
    59 C29      3.6462   1.9092   4.0094   C.ar      2 RES2   0.0000
    60 H22      4.1258   1.3696   3.4248   H         2 RES2   0.0000
    61 C30      4.2969   2.5610   5.0457   C.ar      2 RES2   0.0000
    62 H23      5.2201   2.4780   5.1314   H         2 RES2   0.0000
    63 C31      3.6025   3.3196   5.9426   C.ar      2 RES2   0.0000
    64 H24      4.0439   3.8061   6.6011   H         2 RES2   0.0000
    65 C32      2.2711   3.3450   5.8435   C.ar      2 RES2   0.0000
    66 H25      1.7785   3.7817   6.5020   H         2 RES2   0.0000
    67 C33      1.6030   2.7444   4.7971   C.ar      2 RES2   0.0000
    68 H26      0.6782   2.8052   4.7366   H         2 RES2   0.0000
    69 P2      -2.7323   0.6836  11.1469   P.3       3 RES3   1.0000
    70 C34     -2.4807  -1.0198  10.6526   C.ar      3 RES3   0.0000
    71 C35     -3.0544  -2.0486  11.4067   C.ar      3 RES3   0.0000
    72 H27     -3.5710  -1.8457  12.1540   H         3 RES3   0.0000
    73 C36     -2.8528  -3.3640  11.0421   C.ar      3 RES3   0.0000
    74 H28     -3.2203  -4.0503  11.5510   H         3 RES3   0.0000
    75 C37     -2.1020  -3.6633   9.9167   C.ar      3 RES3   0.0000
    76 H29     -1.9711  -4.5508   9.6698   H         3 RES3   0.0000
    77 C38     -1.5451  -2.6482   9.1592   C.ar      3 RES3   0.0000
    78 H30     -1.0490  -2.8564   8.4000   H         3 RES3   0.0000
    79 C39     -1.7225  -1.3286   9.5228   C.ar      3 RES3   0.0000
    80 H31     -1.3387  -0.6494   9.0181   H         3 RES3   0.0000
    81 C40     -2.0180   1.7847   9.9276   C.ar      3 RES3   0.0000
    82 C41     -2.8343   2.4668   9.0267   C.ar      3 RES3   0.0000
    83 H32     -3.7580   2.3633   9.0601   H         3 RES3   0.0000
    84 C42     -2.2596   3.2954   8.0862   C.ar      3 RES3   0.0000
    85 H33     -2.7989   3.7549   7.4846   H         3 RES3   0.0000
    86 C43     -0.8931   3.4473   8.0321   C.ar      3 RES3   0.0000
    87 H34     -0.5167   4.0112   7.3972   H         3 RES3   0.0000
    88 C44     -0.0748   2.7666   8.9207   C.ar      3 RES3   0.0000
    89 H35      0.8493   2.8686   8.8753   H         3 RES3   0.0000
    90 C45     -0.6356   1.9373   9.8731   C.ar      3 RES3   0.0000
    91 H36     -0.0921   1.4819  10.4744   H         3 RES3   0.0000
    92 C46     -1.9360   1.0273  12.7219   C.ar      3 RES3   0.0000
    93 C47     -1.5789   2.3455  13.0375   C.ar      3 RES3   0.0000
    94 H37     -1.7260   3.0249  12.4194   H         3 RES3   0.0000
    95 C48     -1.0107   2.6426  14.2603   C.ar      3 RES3   0.0000
    96 H38     -0.7676   3.5181  14.4602   H         3 RES3   0.0000
    97 C49     -0.8043   1.6384  15.1858   C.ar      3 RES3   0.0000
    98 H39     -0.4389   1.8384  16.0173   H         3 RES3   0.0000
    99 C50     -1.1395   0.3442  14.8768   C.ar      3 RES3   0.0000
   100 H40     -0.9877  -0.3271  15.5016   H         3 RES3   0.0000
   101 C51     -1.6988   0.0222  13.6543   C.ar      3 RES3   0.0000
   102 H41     -1.9136  -0.8594  13.4558   H         3 RES3   0.0000
   103 C52     -4.4992   1.0051  11.2401   C.ar      3 RES3   0.0000
   104 C53     -4.9364   2.2224  11.7660   C.ar      3 RES3   0.0000
   105 H42     -4.3233   2.8198  12.1305   H         3 RES3   0.0000
   106 C54     -6.2837   2.5400  11.7442   C.ar      3 RES3   0.0000
   107 H43     -6.5772   3.3496  12.0952   H         3 RES3   0.0000
   108 C55     -7.1882   1.6577  11.2067   C.ar      3 RES3   0.0000
   109 H44     -8.0897   1.8848  11.1798   H         3 RES3   0.0000
   110 C56     -6.7759   0.4395  10.7028   C.ar      3 RES3   0.0000
   111 H45     -7.4005  -0.1611  10.3652   H         3 RES3   0.0000
   112 C57     -5.4235   0.1145  10.7030   C.ar      3 RES3   0.0000
   113 H46     -5.1386  -0.6958  10.3450   H         3 RES3   0.0000
   114 O1      10.0521   6.0339   6.4153   O.3       4 RES4   0.0000
   115 H47     10.8500   5.8813   6.2483   H         4 RES4   0.0000
   116 H48      9.6655   6.1279   5.6571   H         4 RES4   0.0000
   117 O2       4.5962   5.5066  17.1243   O.3       5 RES5   0.0000
   118 H49      3.7888   5.5371  16.7849   H         5 RES5   0.0000
   119 H50      5.0223   5.7788  16.4624   H         5 RES5   0.0000
   120 O3      -0.4858   5.5356   5.4186   O.3       6 RES6   0.0000
   121 H51      0.2516   5.8472   5.6470   H         6 RES6   0.0000
   122 H52     -0.5834   5.8960   4.6560   H         6 RES6   0.0000
   123 O4      11.9383   6.4382   2.8821   O.3       7 RES7   0.0000
   124 H53     11.0627   6.3403   2.9243   H         7 RES7   0.0000
   125 H54     12.0461   6.2793   2.0593   H         7 RES7   0.0000
   126 O5       2.0963  23.9916   6.9824   O.3       8 RES8   0.0000
   127 H55      2.8596  23.6328   6.8782   H         8 RES8   0.0000
   128 H56      2.3701  24.7509   7.2444   H         8 RES8   0.0000
@<TRIPOS>BOND
     1     1     7    1
     2     2     9    3
     3     3    10    3
     4     4    11    3
     5     5    12    3
     6     6    13    3
     7     7    14    2
     8     8    14    1
     9     9     1    1
    10    10     1    1
    11    11     1    1
    12    12     1    1
    13    13     1    1
    14    14    15    1
    15    16     7    1
    16    17    16    1
    17    18     8    1
    18    19    18    1
    19    20     8    1
    20    21    20    1
    21    22    20    1
    22    23    20    1
    23    16    18    2
    24    24    25    1
    25    25    26   ar
    26    26    27    1
    27    28    26   ar
    28    29    28    1
    29    30    28   ar
    30    31    30    1
    31    32    30   ar
    32    33    32    1
    33    34    25   ar
    34    35    34    1
    35    36    24    1
    36    37    36   ar
    37    38    37    1
    38    39    37   ar
    39    40    39    1
    40    41    39   ar
    41    42    41    1
    42    43    41   ar
    43    44    43    1
    44    45    36   ar
    45    46    45    1
    46    47    24    1
    47    48    47   ar
    48    49    48    1
    49    50    48   ar
    50    51    50    1
    51    52    50   ar
    52    53    52    1
    53    54    52   ar
    54    55    54    1
    55    56    47   ar
    56    57    56    1
    57    58    24    1
    58    59    58   ar
    59    60    59    1
    60    61    59   ar
    61    62    61    1
    62    63    61   ar
    63    64    63    1
    64    65    63   ar
    65    66    65    1
    66    67    58   ar
    67    68    67    1
    68    32    34   ar
    69    43    45   ar
    70    54    56   ar
    71    65    67   ar
    72    69    70    1
    73    70    71   ar
    74    71    72    1
    75    73    71   ar
    76    74    73    1
    77    75    73   ar
    78    76    75    1
    79    77    75   ar
    80    78    77    1
    81    79    70   ar
    82    80    79    1
    83    81    69    1
    84    82    81   ar
    85    83    82    1
    86    84    82   ar
    87    85    84    1
    88    86    84   ar
    89    87    86    1
    90    88    86   ar
    91    89    88    1
    92    90    81   ar
    93    91    90    1
    94    92    69    1
    95    93    92   ar
    96    94    93    1
    97    95    93   ar
    98    96    95    1
    99    97    95   ar
   100    98    97    1
   101    99    97   ar
   102   100    99    1
   103   101    92   ar
   104   102   101    1
   105   103    69    1
   106   104   103   ar
   107   105   104    1
   108   106   104   ar
   109   107   106    1
   110   108   106   ar
   111   109   108    1
   112   110   108   ar
   113   111   110    1
   114   112   103   ar
   115   113   112    1
   116    77    79   ar
   117    88    90   ar
   118    99   101   ar
   119   110   112   ar
   120   114   115    1
   121   116   114    1
   122   117   118    1
   123   119   117    1
   124   120   121    1
   125   122   120    1
   126   123   124    1
   127   125   123    1
   128   126   127    1
   129   128   126    1
@<TRIPOS>SUBSTRUCTURE
     1 RES1        1 GROUP             0 ****  ****    0  
     2 RES2       24 GROUP             0 ****  ****    0  
     3 RES3       69 GROUP             0 ****  ****    0  
     4 RES4      114 GROUP             0 ****  ****    0  
     5 RES5      117 GROUP             0 ****  ****    0  
     6 RES6      120 GROUP             0 ****  ****    0  
     7 RES7      123 GROUP             0 ****  ****    0  
     8 RES8      126 GROUP             0 ****  ****    0  
@<TRIPOS>CRYSIN
   13.1180   24.4140   18.6110   90.0000  115.5100   90.0000    14     1
