@<TRIPOS>MOLECULE
FINXOR
   148   160     1     0     0
SMALL
NO_CHARGES
****
Generated from the CSD

@<TRIPOS>ATOM
     1 Se1      7.3950   3.1734   6.9979   Se        1 RES1   0.0000
     2 Fe1      9.9797   7.1852   6.0567   Fe        1 RES1   0.0000
     3 O1       6.0793   0.4560  11.7427   O.3       1 RES1   0.0000
     4 N1       9.0842   5.5223   6.5085   N.1       1 RES1   0.0000
     5 C1       8.4227   4.6117   6.7060   C.1       1 RES1   0.0000
     6 O2       5.4085   5.0165  10.5759   O.3       1 RES1   0.0000
     7 N2      10.0696   7.7431   7.9682   N.ar      1 RES1   0.0000
     8 C2       9.6805   8.9851   8.3522   C.ar      1 RES1   0.0000
     9 H1       9.3173   9.5684   7.6968   H         1 RES1   0.0000
    10 N3      11.8013   6.3847   6.3498   N.ar      1 RES1   0.0000
    11 C3       9.7864   9.4377   9.6386   C.ar      1 RES1   0.0000
    12 H2       9.4850  10.3084   9.8663   H         1 RES1   0.0000
    13 N4      11.1171   5.7004   8.4895   N.pl3     1 RES1   0.0000
    14 C4      10.3385   8.6138  10.6040   C.ar      1 RES1   0.0000
    15 H3      10.4255   8.9116  11.5016   H         1 RES1   0.0000
    16 N5      11.1642   3.3920   8.5885   N.ar      1 RES1   0.0000
    17 C5      10.7576   7.3522  10.2394   C.ar      1 RES1   0.0000
    18 H4      11.1425   6.7649  10.8778   H         1 RES1   0.0000
    19 N6       9.5766   4.6583   9.8490   N.ar      1 RES1   0.0000
    20 C6      10.6041   6.9608   8.9203   C.ar      1 RES1   0.0000
    21 N7       9.5953   2.2617   9.9972   N.ar      1 RES1   0.0000
    22 C7      12.1075   5.7120   7.4727   C.ar      1 RES1   0.0000
    23 N8      11.2340   1.1006   8.8549   N.pl3     1 RES1   0.0000
    24 C8      13.3464   5.1169   7.6835   C.ar      1 RES1   0.0000
    25 H5      13.5154   4.6214   8.4757   H         1 RES1   0.0000
    26 N9      13.4624   1.8314   9.0160   N.ar      1 RES1   0.0000
    27 C9      14.3325   5.2585   6.7169   C.ar      1 RES1   0.0000
    28 H6      15.1899   4.8663   6.8344   H         1 RES1   0.0000
    29 N10     11.2439  -1.0441   9.7561   N.ar      1 RES1   0.0000
    30 C10     14.0329   5.9874   5.5746   C.ar      1 RES1   0.0000
    31 H7      14.6903   6.1076   4.8986   H         1 RES1   0.0000
    32 N11      8.0883   3.5336  11.1903   N.pl3     1 RES1   0.0000
    33 C11     12.7837   6.5352   5.4256   C.ar      1 RES1   0.0000
    34 H8      12.5993   7.0410   4.6431   H         1 RES1   0.0000
    35 C12      8.6469  -1.5374   8.8525   C.ar      1 RES1   0.0000
    36 H9       7.7679  -1.7104   8.5363   H         1 RES1   0.0000
    37 C13     10.5931   4.5217   9.0063   C.ar      1 RES1   0.0000
    38 C14      9.3234  -2.4743   9.5611   C.ar      1 RES1   0.0000
    39 H10      8.9126  -3.3059   9.7670   H         1 RES1   0.0000
    40 C15     10.6261   2.3059   9.1613   C.ar      1 RES1   0.0000
    41 C16     10.5902  -2.2199   9.9778   C.ar      1 RES1   0.0000
    42 H11     11.0498  -2.9027  10.4514   H         1 RES1   0.0000
    43 C17      9.1013   3.4773  10.3036   C.ar      1 RES1   0.0000
    44 C18     12.5744   1.0752   8.3679   C.ar      1 RES1   0.0000
    45 C19     12.8714   0.3046   7.2595   C.ar      1 RES1   0.0000
    46 H12     12.2056  -0.2310   6.8428   H         1 RES1   0.0000
    47 C20     14.1644   0.3361   6.7750   C.ar      1 RES1   0.0000
    48 H13     14.4062  -0.1851   6.0191   H         1 RES1   0.0000
    49 C21     15.0993   1.1307   7.4013   C.ar      1 RES1   0.0000
    50 H14     15.9934   1.1753   7.0827   H         1 RES1   0.0000
    51 C22     14.7022   1.8617   8.5024   C.ar      1 RES1   0.0000
    52 H15     15.3450   2.4209   8.9215   H         1 RES1   0.0000
    53 C23     10.5463  -0.1342   9.0887   C.ar      1 RES1   0.0000
    54 C24      9.2646  -0.3215   8.5969   C.ar      1 RES1   0.0000
    55 H16      8.8234   0.3595   8.1014   H         1 RES1   0.0000
    56 C25      7.5962   2.3111  11.8227   C.3       1 RES1   0.0000
    57 H17      7.2782   2.5286  12.7348   H         1 RES1   0.0000
    58 H18      8.3463   1.6714  11.9087   H         1 RES1   0.0000
    59 C26      6.4763   1.6495  11.0607   C.3       1 RES1   0.0000
    60 H19      5.7071   2.2680  10.9917   H         1 RES1   0.0000
    61 H20      6.7799   1.4277  10.1449   H         1 RES1   0.0000
    62 C27      5.2496   0.6632  12.8717   C.3       1 RES1   0.0000
    63 H21      5.3783   1.5831  13.2145   H         1 RES1   0.0000
    64 H22      5.4995   0.0295  13.5900   H         1 RES1   0.0000
    65 C28      7.6210   4.8407  11.6446   C.3       1 RES1   0.0000
    66 H23      8.4072   5.4145  11.8311   H         1 RES1   0.0000
    67 H24      7.1246   4.7259  12.4925   H         1 RES1   0.0000
    68 C29      6.7295   5.5446  10.6477   C.3       1 RES1   0.0000
    69 H25      6.6756   6.5034  10.8887   H         1 RES1   0.0000
    70 H26      7.1445   5.4844   9.7501   H         1 RES1   0.0000
    71 C30      4.6415   5.3148  11.7306   C.3       1 RES1   0.0000
    72 H27      4.7962   6.2507  12.0153   H         1 RES1   0.0000
    73 H28      4.8918   4.7127  12.4756   H         1 RES1   0.0000
    74 O1A      2.3702   5.3199  12.4840   O.3       1 RES1   0.0000
    75 O2A      3.0410   0.7594  13.6508   O.3       1 RES1   0.0000
    76 N2A     -1.6201  -1.9672  16.2586   N.ar      1 RES1   0.0000
    77 C2A     -1.2310  -3.2093  15.8746   C.ar      1 RES1   0.0000
    78 H1A     -0.8678  -3.7925  16.5299   H         1 RES1   0.0000
    79 N3A     -3.3518  -0.6088  17.8769   N.ar      1 RES1   0.0000
    80 C3A     -1.3368  -3.6618  14.5881   C.ar      1 RES1   0.0000
    81 H2A     -1.0355  -4.5325  14.3604   H         1 RES1   0.0000
    82 N4A     -2.6675   0.0755  15.7372   N.pl3     1 RES1   0.0000
    83 C4A     -1.8890  -2.8379  13.6227   C.ar      1 RES1   0.0000
    84 H3A     -1.9760  -3.1357  12.7251   H         1 RES1   0.0000
    85 N5A     -2.7147   2.3838  15.6382   N.ar      1 RES1   0.0000
    86 C5A     -2.3081  -1.5763  13.9873   C.ar      1 RES1   0.0000
    87 H4A     -2.6930  -0.9890  13.3489   H         1 RES1   0.0000
    88 N6A     -1.1271   1.1175  14.3777   N.ar      1 RES1   0.0000
    89 C6A     -2.1546  -1.1849  15.3065   C.ar      1 RES1   0.0000
    90 N7A     -1.1457   3.5142  14.2296   N.ar      1 RES1   0.0000
    91 C7A     -3.6580   0.0639  16.7540   C.ar      1 RES1   0.0000
    92 N8A     -2.7845   4.6752  15.3719   N.pl3     1 RES1   0.0000
    93 C8A     -4.8969   0.6589  16.5432   C.ar      1 RES1   0.0000
    94 H5A     -5.0659   1.1544  15.7510   H         1 RES1   0.0000
    95 N9A     -5.0129   3.9444  15.2108   N.ar      1 RES1   0.0000
    96 C9A     -5.8830   0.5174  17.5099   C.ar      1 RES1   0.0000
    97 H6A     -6.7404   0.9096  17.3924   H         1 RES1   0.0000
    98 N10A    -2.7944   6.8200  14.4706   N.ar      1 RES1   0.0000
    99 C10A    -5.5833  -0.2116  18.6522   C.ar      1 RES1   0.0000
   100 H7A     -6.2407  -0.3317  19.3281   H         1 RES1   0.0000
   101 N11A     0.3612   2.2422  13.0364   N.pl3     1 RES1   0.0000
   102 C11A    -4.3341  -0.7593  18.8012   C.ar      1 RES1   0.0000
   103 H8A     -4.1498  -1.2652  19.5837   H         1 RES1   0.0000
   104 C12A    -0.1974   7.3133  15.3743   C.ar      1 RES1   0.0000
   105 H9A      0.6817   7.4863  15.6904   H         1 RES1   0.0000
   106 C13A    -2.1436   1.2541  15.2205   C.ar      1 RES1   0.0000
   107 C14A    -0.8739   8.2501  14.6657   C.ar      1 RES1   0.0000
   108 H10A    -0.4631   9.0817  14.4597   H         1 RES1   0.0000
   109 C15A    -2.1765   3.4700  15.0654   C.ar      1 RES1   0.0000
   110 C16A    -2.1407   7.9958  14.2490   C.ar      1 RES1   0.0000
   111 H11A    -2.6003   8.6786  13.7753   H         1 RES1   0.0000
   112 C17A    -0.6518   2.2986  13.9231   C.ar      1 RES1   0.0000
   113 C18A    -4.1249   4.7006  15.8588   C.ar      1 RES1   0.0000
   114 C19A    -4.4218   5.4712  16.9672   C.ar      1 RES1   0.0000
   115 H12A    -3.7561   6.0069  17.3839   H         1 RES1   0.0000
   116 C20A    -5.7149   5.4398  17.4517   C.ar      1 RES1   0.0000
   117 H13A    -5.9567   5.9610  18.2076   H         1 RES1   0.0000
   118 C21A    -6.6498   4.6452  16.8255   C.ar      1 RES1   0.0000
   119 H14A    -7.5439   4.6006  17.1441   H         1 RES1   0.0000
   120 C22A    -6.2527   3.9142  15.7244   C.ar      1 RES1   0.0000
   121 H15A    -6.8955   3.3550  15.3052   H         1 RES1   0.0000
   122 C23A    -2.0968   5.9101  15.1381   C.ar      1 RES1   0.0000
   123 C24A    -0.8151   6.0974  15.6299   C.ar      1 RES1   0.0000
   124 H16A    -0.3738   5.4164  16.1253   H         1 RES1   0.0000
   125 C25A     0.8533   3.4648  12.4041   C.3       1 RES1   0.0000
   126 H17A     1.1713   3.2473  11.4920   H         1 RES1   0.0000
   127 H18A     0.1032   4.1045  12.3181   H         1 RES1   0.0000
   128 C26A     1.9732   4.1264  13.1660   C.3       1 RES1   0.0000
   129 H19A     2.7424   3.5079  13.2351   H         1 RES1   0.0000
   130 H20A     1.6697   4.3482  14.0818   H         1 RES1   0.0000
   131 C27A     3.1999   5.1127  11.3551   C.3       1 RES1   0.0000
   132 H21A     3.0712   4.1928  11.0123   H         1 RES1   0.0000
   133 H22A     2.9500   5.7464  10.6368   H         1 RES1   0.0000
   134 C28A     0.8285   0.9352  12.5822   C.3       1 RES1   0.0000
   135 H23A     0.0423   0.3614  12.3956   H         1 RES1   0.0000
   136 H24A     1.3249   1.0499  11.7342   H         1 RES1   0.0000
   137 C29A     1.7200   0.2313  13.5791   C.3       1 RES1   0.0000
   138 H25A     1.7739  -0.7275  13.3380   H         1 RES1   0.0000
   139 H26A     1.3050   0.2914  14.4767   H         1 RES1   0.0000
   140 C30A     3.8080   0.4611  12.4962   C.3       1 RES1   0.0000
   141 H27A     3.6534  -0.4748  12.2115   H         1 RES1   0.0000
   142 H28A     3.5577   1.0632  11.7512   H         1 RES1   0.0000
   143 Se1A    12.5644  11.1970   5.1155   Se        1 RES1   0.0000
   144 N1A     10.8753   8.8480   5.6049   N.1       1 RES1   0.0000
   145 C1A     11.5367   9.7586   5.4074   C.1       1 RES1   0.0000
   146 Fe1     -1.5302  -1.4093  18.1701   Fe        1 RES1   0.0000
   147 N2A      9.8899   6.6272   4.1452   N.3       1 RES1   0.0000
   148 N3A      8.1582   7.9856   5.7635   N.3       1 RES1   0.0000
@<TRIPOS>BOND
     1     1     5    1
     2     2     4    1
     3     3    59    1
     4     4     5    3
     5     6    68    1
     6     7     2    1
     7     8     7   ar
     8     9     8    1
     9    10     2    1
    10    11     8   ar
    11    12    11    1
    12    13    20    1
    13    14    11   ar
    14    15    14    1
    15    16    37   ar
    16    17    14   ar
    17    18    17    1
    18    19    37   ar
    19    20     7   ar
    20    21    40   ar
    21    22    10   ar
    22    23    40    1
    23    24    22   ar
    24    25    24    1
    25    26    44   ar
    26    27    24   ar
    27    28    27    1
    28    29    41   ar
    29    30    27   ar
    30    31    30    1
    31    32    43    1
    32    33    10   ar
    33    34    33    1
    34    35    36    1
    35    37    13    1
    36    38    35   ar
    37    39    38    1
    38    40    16   ar
    39    41    38   ar
    40    42    41    1
    41    43    19   ar
    42    44    23    1
    43    45    44   ar
    44    46    45    1
    45    47    45   ar
    46    48    47    1
    47    49    47   ar
    48    50    49    1
    49    51    26   ar
    50    52    51    1
    51    53    23    1
    52    54    35   ar
    53    55    54    1
    54    56    32    1
    55    57    56    1
    56    58    56    1
    57    59    56    1
    58    60    59    1
    59    61    59    1
    60    62     3    1
    61    63    62    1
    62    64    62    1
    63    65    32    1
    64    66    65    1
    65    67    65    1
    66    68    65    1
    67    69    68    1
    68    70    68    1
    69    71     6    1
    70    72    71    1
    71    73    71    1
    72    74   128    1
    73    75   137    1
    74    76    77   ar
    75    77    78    1
    76    79    91   ar
    77    80    77   ar
    78    81    80    1
    79    82    89    1
    80    83    80   ar
    81    84    83    1
    82    85   106   ar
    83    86    83   ar
    84    87    86    1
    85    88   106   ar
    86    89    76   ar
    87    90   109   ar
    88    91    82    1
    89    92   109    1
    90    93    91   ar
    91    94    93    1
    92    95   113   ar
    93    96    93   ar
    94    97    96    1
    95    98   110   ar
    96    99    96   ar
    97   100    99    1
    98   101   112    1
    99   102    79   ar
   100   103   102    1
   101   104   105    1
   102   106    82    1
   103   107   104   ar
   104   108   107    1
   105   109    85   ar
   106   110   107   ar
   107   111   110    1
   108   112    88   ar
   109   113    92    1
   110   114   113   ar
   111   115   114    1
   112   116   114   ar
   113   117   116    1
   114   118   116   ar
   115   119   118    1
   116   120    95   ar
   117   121   120    1
   118   122    92    1
   119   123   104   ar
   120   124   123    1
   121   125   101    1
   122   126   125    1
   123   127   125    1
   124   128   125    1
   125   129   128    1
   126   130   128    1
   127   131    71    1
   128   132   131    1
   129   133   131    1
   130   134   101    1
   131   135   134    1
   132   136   134    1
   133   137   134    1
   134   138   137    1
   135   139   137    1
   136   140    62    1
   137   141   140    1
   138   142   140    1
   139   143   145    1
   140   144     2    1
   141   145   144    3
   142   146    76   un
   143   147     2   un
   144   148     2   un
   145    13    22    1
   146    17    20   ar
   147    21    43   ar
   148    29    53   ar
   149    30    33   ar
   150    49    51   ar
   151    53    54   ar
   152    74   131    1
   153    75   140    1
   154    79   146   un
   155    86    89   ar
   156    90   112   ar
   157    98   122   ar
   158    99   102   ar
   159   118   120   ar
   160   122   123   ar
@<TRIPOS>SUBSTRUCTURE
     1 RES1        1 GROUP             0 ****  ****    0  
@<TRIPOS>CRYSIN
   10.6200   12.5700   13.1500   70.6500   71.2600   65.9900     2     1
