@<TRIPOS>MOLECULE
FINXUX
   148   160     1     0     0
SMALL
NO_CHARGES
****
Generated from the CSD

@<TRIPOS>ATOM
     1 Fe1      7.7139   5.6989   0.0000   Fe        1 RES1   0.0000
     2 S1       5.2544   1.7772   0.9836   S.2       1 RES1   0.0000
     3 O1       3.8793  -1.0544   5.7199   O.3       1 RES1   0.0000
     4 N1       6.8302   4.0176   0.4566   N.2       1 RES1   0.0000
     5 C1       6.1723   3.0944   0.6716   C.1       1 RES1   0.0000
     6 O2       3.1878   3.5338   4.5317   O.3       1 RES1   0.0000
     7 N2       7.8010   6.2585   1.9293   N.ar      1 RES1   0.0000
     8 C2       7.3895   7.4943   2.3007   C.ar      1 RES1   0.0000
     9 H1       7.0207   8.0673   1.6386   H         1 RES1   0.0000
    10 N3       9.5453   4.9166   0.3066   N.ar      1 RES1   0.0000
    11 C3       7.4784   7.9604   3.5971   C.ar      1 RES1   0.0000
    12 H2       7.1653   8.8286   3.8204   H         1 RES1   0.0000
    13 N4       8.8756   4.2404   2.4577   N.pl3     1 RES1   0.0000
    14 C4       8.0345   7.1385   4.5692   C.ar      1 RES1   0.0000
    15 H3       8.1073   7.4367   5.4687   H         1 RES1   0.0000
    16 N5       8.9347   1.9378   2.5431   N.ar      1 RES1   0.0000
    17 C5       8.4797   5.8820   4.2083   C.ar      1 RES1   0.0000
    18 H4       8.8682   5.2997   4.8511   H         1 RES1   0.0000
    19 N6       7.3372   3.1780   3.7985   N.ar      1 RES1   0.0000
    20 C6       8.3448   5.4881   2.8763   C.ar      1 RES1   0.0000
    21 N7       7.3627   0.7833   3.9289   N.ar      1 RES1   0.0000
    22 C7       9.8636   4.2570   1.4360   C.ar      1 RES1   0.0000
    23 N8       9.0133  -0.3556   2.7950   N.pl3     1 RES1   0.0000
    24 C8      11.1049   3.6696   1.6509   C.ar      1 RES1   0.0000
    25 H5      11.2822   3.1891   2.4511   H         1 RES1   0.0000
    26 N9      11.2397   0.4027   2.9329   N.ar      1 RES1   0.0000
    27 C9      12.0799   3.7999   0.6726   C.ar      1 RES1   0.0000
    28 H6      12.9361   3.4042   0.7858   H         1 RES1   0.0000
    29 N10      8.9880  -2.4964   3.7020   N.ar      1 RES1   0.0000
    30 C10     11.7767   4.5204  -0.4750   C.ar      1 RES1   0.0000
    31 H7      12.4325   4.6397  -1.1525   H         1 RES1   0.0000
    32 N11      5.8496   2.0393   5.1262   N.pl3     1 RES1   0.0000
    33 C11     10.5230   5.0598  -0.6224   C.ar      1 RES1   0.0000
    34 H8      10.3325   5.5551  -1.4107   H         1 RES1   0.0000
    35 C12      8.3564   3.0561   2.9624   C.ar      1 RES1   0.0000
    36 C13      8.3979   0.8412   3.1013   C.ar      1 RES1   0.0000
    37 C14      6.8638   1.9924   4.2424   C.ar      1 RES1   0.0000
    38 C15     10.3509  -0.3697   2.2997   C.ar      1 RES1   0.0000
    39 C16     10.6440  -1.1470   1.1922   C.ar      1 RES1   0.0000
    40 H9       9.9824  -1.6986   0.7906   H         1 RES1   0.0000
    41 C17     11.9324  -1.0934   0.6888   C.ar      1 RES1   0.0000
    42 H10     12.1740  -1.6136  -0.0682   H         1 RES1   0.0000
    43 C18     12.8697  -0.2709   1.3018   C.ar      1 RES1   0.0000
    44 H11     13.7578  -0.2130   0.9722   H         1 RES1   0.0000
    45 C19     12.4703   0.4581   2.4028   C.ar      1 RES1   0.0000
    46 H12     13.1066   1.0351   2.8105   H         1 RES1   0.0000
    47 C20      8.3258  -1.5891   3.0081   C.ar      1 RES1   0.0000
    48 C21      7.0528  -1.7751   2.4704   C.ar      1 RES1   0.0000
    49 H13      6.6334  -1.0942   1.9577   H         1 RES1   0.0000
    50 C22      6.4161  -2.9858   2.7070   C.ar      1 RES1   0.0000
    51 H14      5.5465  -3.1533   2.3634   H         1 RES1   0.0000
    52 C23      7.0750  -3.9411   3.4537   C.ar      1 RES1   0.0000
    53 H15      6.6606  -4.7733   3.6475   H         1 RES1   0.0000
    54 C24      8.3385  -3.6690   3.9118   C.ar      1 RES1   0.0000
    55 H16      8.7875  -4.3443   4.4064   H         1 RES1   0.0000
    56 C25      5.3747   0.8156   5.7687   C.3       1 RES1   0.0000
    57 H17      5.0635   1.0332   6.6833   H         1 RES1   0.0000
    58 H18      6.1312   0.1829   5.8513   H         1 RES1   0.0000
    59 C26      4.2511   0.1407   5.0177   C.3       1 RES1   0.0000
    60 H19      3.4738   0.7503   4.9534   H         1 RES1   0.0000
    61 H20      4.5467  -0.0842   4.1006   H         1 RES1   0.0000
    62 C27      3.0565  -0.8431   6.8543   C.3       1 RES1   0.0000
    63 H21      3.1938   0.0752   7.1987   H         1 RES1   0.0000
    64 H22      3.3043  -1.4814   7.5690   H         1 RES1   0.0000
    65 C28      5.4013   3.3468   5.5997   C.3       1 RES1   0.0000
    66 H23      6.1928   3.9101   5.7867   H         1 RES1   0.0000
    67 H24      4.9066   3.2296   6.4494   H         1 RES1   0.0000
    68 C29      4.5090   4.0651   4.6038   C.3       1 RES1   0.0000
    69 H25      4.4554   5.0213   4.8547   H         1 RES1   0.0000
    70 H26      4.9238   4.0122   3.7071   H         1 RES1   0.0000
    71 C30      2.4273   3.8223   5.7022   C.3       1 RES1   0.0000
    72 H27      2.5872   4.7530   5.9987   H         1 RES1   0.0000
    73 H28      2.6779   3.2086   6.4373   H         1 RES1   0.0000
    74 O1A      0.1572   3.8415   6.4626   O.3       1 RES1   0.0000
    75 O2A      0.8487  -0.7467   7.6509   O.3       1 RES1   0.0000
    76 N2A     -3.7645  -3.4714  10.2532   N.ar      1 RES1   0.0000
    77 C2A     -3.3530  -4.7072   9.8819   C.ar      1 RES1   0.0000
    78 H1A     -2.9842  -5.2801  10.5440   H         1 RES1   0.0000
    79 N3A     -5.5088  -2.1295  11.8759   N.ar      1 RES1   0.0000
    80 C3A     -3.4418  -5.1732   8.5854   C.ar      1 RES1   0.0000
    81 H2A     -3.1287  -6.0414   8.3621   H         1 RES1   0.0000
    82 N4A     -4.8391  -1.4532   9.7248   N.pl3     1 RES1   0.0000
    83 C4A     -3.9980  -4.3514   7.6134   C.ar      1 RES1   0.0000
    84 H3A     -4.0708  -4.6496   6.7138   H         1 RES1   0.0000
    85 N5A     -4.8982   0.8493   9.6394   N.ar      1 RES1   0.0000
    86 C5A     -4.4432  -3.0948   7.9742   C.ar      1 RES1   0.0000
    87 H4A     -4.8317  -2.5125   7.3314   H         1 RES1   0.0000
    88 N6A     -3.3007  -0.3909   8.3840   N.ar      1 RES1   0.0000
    89 C6A     -4.3083  -2.7010   9.3062   C.ar      1 RES1   0.0000
    90 N7A     -3.3262   2.0039   8.2537   N.ar      1 RES1   0.0000
    91 C7A     -5.8271  -1.4699  10.7466   C.ar      1 RES1   0.0000
    92 N8A     -4.9768   3.1427   9.3875   N.pl3     1 RES1   0.0000
    93 C8A     -7.0684  -0.8825  10.5317   C.ar      1 RES1   0.0000
    94 H5A     -7.2456  -0.4020   9.7314   H         1 RES1   0.0000
    95 N9A     -7.2032   2.3844   9.2496   N.ar      1 RES1   0.0000
    96 C9A     -8.0434  -1.0128  11.5099   C.ar      1 RES1   0.0000
    97 H6A     -8.8995  -0.6171  11.3968   H         1 RES1   0.0000
    98 N10A    -4.9514   5.2835   8.4805   N.ar      1 RES1   0.0000
    99 C10A    -7.7402  -1.7333  12.6575   C.ar      1 RES1   0.0000
   100 H7A     -8.3959  -1.8525  13.3350   H         1 RES1   0.0000
   101 N11A    -1.8131   0.7478   7.0564   N.pl3     1 RES1   0.0000
   102 C11A    -6.4865  -2.2727  12.8049   C.ar      1 RES1   0.0000
   103 H8A     -6.2959  -2.7680  13.5933   H         1 RES1   0.0000
   104 C12A    -4.3198  -0.2690   9.2201   C.ar      1 RES1   0.0000
   105 C13A    -4.3614   1.9460   9.0812   C.ar      1 RES1   0.0000
   106 C14A    -2.8273   0.7947   7.9401   C.ar      1 RES1   0.0000
   107 C15A    -6.3144   3.1569   9.8828   C.ar      1 RES1   0.0000
   108 C16A    -6.6075   3.9341  10.9904   C.ar      1 RES1   0.0000
   109 H9A     -5.9458   4.4858  11.3919   H         1 RES1   0.0000
   110 C17A    -7.8959   3.8806  11.4937   C.ar      1 RES1   0.0000
   111 H10A    -8.1374   4.4007  12.2508   H         1 RES1   0.0000
   112 C18A    -8.8331   3.0581  10.8807   C.ar      1 RES1   0.0000
   113 H11A    -9.7213   3.0001  11.2104   H         1 RES1   0.0000
   114 C19A    -8.4338   2.3291   9.7798   C.ar      1 RES1   0.0000
   115 H12A    -9.0701   1.7521   9.3720   H         1 RES1   0.0000
   116 C20A    -4.2893   4.3762   9.1744   C.ar      1 RES1   0.0000
   117 C21A    -3.0163   4.5623   9.7122   C.ar      1 RES1   0.0000
   118 H13A    -2.5969   3.8814  10.2248   H         1 RES1   0.0000
   119 C22A    -2.3796   5.7730   9.4756   C.ar      1 RES1   0.0000
   120 H14A    -1.5100   5.9405   9.8191   H         1 RES1   0.0000
   121 C23A    -3.0385   6.7282   8.7288   C.ar      1 RES1   0.0000
   122 H15A    -2.6241   7.5604   8.5351   H         1 RES1   0.0000
   123 C24A    -4.3019   6.4561   8.2707   C.ar      1 RES1   0.0000
   124 H16A    -4.7510   7.1314   7.7761   H         1 RES1   0.0000
   125 C25A    -1.3382   1.9715   6.4139   C.3       1 RES1   0.0000
   126 H17A    -1.0270   1.7539   5.4992   H         1 RES1   0.0000
   127 H18A    -2.0947   2.6042   6.3313   H         1 RES1   0.0000
   128 C26A    -0.2146   2.6464   7.1648   C.3       1 RES1   0.0000
   129 H19A     0.5627   2.0369   7.2291   H         1 RES1   0.0000
   130 H20A    -0.5102   2.8714   8.0819   H         1 RES1   0.0000
   131 C27A     0.9800   3.6302   5.3283   C.3       1 RES1   0.0000
   132 H21A     0.8427   2.7120   4.9839   H         1 RES1   0.0000
   133 H22A     0.7322   4.2685   4.6135   H         1 RES1   0.0000
   134 C28A    -1.3647  -0.5597   6.5828   C.3       1 RES1   0.0000
   135 H23A    -2.1563  -1.1229   6.3958   H         1 RES1   0.0000
   136 H24A    -0.8701  -0.4425   5.7331   H         1 RES1   0.0000
   137 C29A    -0.4725  -1.2780   7.5788   C.3       1 RES1   0.0000
   138 H25A    -0.4189  -2.2341   7.3278   H         1 RES1   0.0000
   139 H26A    -0.8873  -1.2250   8.4754   H         1 RES1   0.0000
   140 C30A     1.6092  -1.0352   6.4804   C.3       1 RES1   0.0000
   141 H27A     1.4494  -1.9658   6.1839   H         1 RES1   0.0000
   142 H28A     1.3586  -0.4215   5.7453   H         1 RES1   0.0000
   143 S1A     10.1733   9.6206  -0.9836   S.2       1 RES1   0.0000
   144 N1A      8.5975   7.3803  -0.4566   N.2       1 RES1   0.0000
   145 C1A      9.2554   8.3034  -0.6716   C.1       1 RES1   0.0000
   146 Fe1     -3.6773  -2.9118  12.1825   Fe        1 RES1   0.0000
   147 N2A      7.6267   5.1393  -1.9293   N.3       1 RES1   0.0000
   148 N3A      5.8825   6.4812  -0.3066   N.3       1 RES1   0.0000
@<TRIPOS>BOND
     1     1     4    1
     2     2     5    2
     3     3    59    1
     4     4     5    2
     5     6    68    1
     6     7     1    1
     7     8     7   ar
     8     9     8    1
     9    10     1    1
    10    11     8   ar
    11    12    11    1
    12    13    20    1
    13    14    11   ar
    14    15    14    1
    15    16    35   ar
    16    17    14   ar
    17    18    17    1
    18    19    35   ar
    19    20     7   ar
    20    21    36   ar
    21    22    10   ar
    22    23    36    1
    23    24    22   ar
    24    25    24    1
    25    26    38   ar
    26    27    24   ar
    27    28    27    1
    28    29    47   ar
    29    30    27   ar
    30    31    30    1
    31    32    37    1
    32    33    10   ar
    33    34    33    1
    34    35    13    1
    35    36    16   ar
    36    37    19   ar
    37    38    23    1
    38    39    38   ar
    39    40    39    1
    40    41    39   ar
    41    42    41    1
    42    43    41   ar
    43    44    43    1
    44    45    26   ar
    45    46    45    1
    46    47    23    1
    47    48    47   ar
    48    49    48    1
    49    50    48   ar
    50    51    50    1
    51    52    50   ar
    52    53    52    1
    53    54    29   ar
    54    55    54    1
    55    56    32    1
    56    57    56    1
    57    58    56    1
    58    59    56    1
    59    60    59    1
    60    61    59    1
    61    62     3    1
    62    63    62    1
    63    64    62    1
    64    65    32    1
    65    66    65    1
    66    67    65    1
    67    68    65    1
    68    69    68    1
    69    70    68    1
    70    71     6    1
    71    72    71    1
    72    73    71    1
    73    74   128    1
    74    75   137    1
    75    76    77   ar
    76    77    78    1
    77    79    91   ar
    78    80    77   ar
    79    81    80    1
    80    82    89    1
    81    83    80   ar
    82    84    83    1
    83    85   104   ar
    84    86    83   ar
    85    87    86    1
    86    88   104   ar
    87    89    76   ar
    88    90   105   ar
    89    91    82    1
    90    92   105    1
    91    93    91   ar
    92    94    93    1
    93    95   107   ar
    94    96    93   ar
    95    97    96    1
    96    98   116   ar
    97    99    96   ar
    98   100    99    1
    99   101   106    1
   100   102    79   ar
   101   103   102    1
   102   104    82    1
   103   105    85   ar
   104   106    88   ar
   105   107    92    1
   106   108   107   ar
   107   109   108    1
   108   110   108   ar
   109   111   110    1
   110   112   110   ar
   111   113   112    1
   112   114    95   ar
   113   115   114    1
   114   116    92    1
   115   117   116   ar
   116   118   117    1
   117   119   117   ar
   118   120   119    1
   119   121   119   ar
   120   122   121    1
   121   123    98   ar
   122   124   123    1
   123   125   101    1
   124   126   125    1
   125   127   125    1
   126   128   125    1
   127   129   128    1
   128   130   128    1
   129   131    71    1
   130   132   131    1
   131   133   131    1
   132   134   101    1
   133   135   134    1
   134   136   134    1
   135   137   134    1
   136   138   137    1
   137   139   137    1
   138   140    62    1
   139   141   140    1
   140   142   140    1
   141   143   145    2
   142   144     1    1
   143   145   144    2
   144   146    76   un
   145   147     1   un
   146   148     1   un
   147    13    22    1
   148    17    20   ar
   149    21    37   ar
   150    30    33   ar
   151    43    45   ar
   152    52    54   ar
   153    74   131    1
   154    75   140    1
   155    79   146   un
   156    86    89   ar
   157    90   106   ar
   158    99   102   ar
   159   112   114   ar
   160   121   123   ar
@<TRIPOS>SUBSTRUCTURE
     1 RES1        1 GROUP             0 ****  ****    0  
@<TRIPOS>CRYSIN
   10.4860   12.4230   13.1330   71.5200   72.1000   66.5600     2     1
