@<TRIPOS>MOLECULE
FITQEH
   148   158     3     0     0
SMALL
USER_CHARGES
****
Generated from the CSD

@<TRIPOS>ATOM
     1 Fe1      0.5406   3.8399   8.8129   Fe        1 RES1   2.0000
     2 N1       1.6376   2.1691  11.2653   N.pl3     1 RES1   0.0000
     3 N2       2.9925   3.3234  10.0863   N.pl3     1 RES1   0.0000
     4 N3       2.2877   4.4247   8.2577   N.ar      1 RES1   0.0000
     5 N4       1.1775   5.4063   6.5694   N.pl3     1 RES1   0.0000
     6 N5      -0.9478   5.2333   6.4034   N.pl3     1 RES1   0.0000
     7 N6       0.3336   5.4433   9.8923   N.1       1 RES1   0.0000
     8 N7      -1.2337   3.3030   9.3622   N.1       1 RES1   0.0000
     9 N8       0.6960   2.2198   7.7850   N.1       1 RES1   0.0000
    10 C1       1.6531   3.0100  10.2181   C.3       1 RES1   0.0000
    11 C2       2.9187   1.9769  11.7958   C.2       1 RES1   0.0000
    12 H1       3.1434   1.4362  12.5444   H         1 RES1   0.0000
    13 C3       3.7700   2.6985  11.0519   C.2       1 RES1   0.0000
    14 H2       4.7104   2.7687  11.1631   H         1 RES1   0.0000
    15 C4       3.3665   4.0925   8.9808   C.ar      1 RES1   0.0000
    16 C5       4.6473   4.4749   8.6140   C.ar      1 RES1   0.0000
    17 H3       5.4021   4.2433   9.1404   H         1 RES1   0.0000
    18 C6       4.7790   5.2109   7.4441   C.ar      1 RES1   0.0000
    19 H4       5.6448   5.4755   7.1560   H         1 RES1   0.0000
    20 C7       3.6653   5.5713   6.6824   C.ar      1 RES1   0.0000
    21 H5       3.7511   6.0774   5.8822   H         1 RES1   0.0000
    22 C8       2.4309   5.1567   7.1489   C.ar      1 RES1   0.0000
    23 C9       0.8286   6.1234   5.4268   C.2       1 RES1   0.0000
    24 H6       1.4103   6.5924   4.8399   H         1 RES1   0.0000
    25 C10     -0.5100   6.0089   5.3317   C.2       1 RES1   0.0000
    26 H7      -1.0586   6.3884   4.6540   H         1 RES1   0.0000
    27 C11      0.0730   4.8519   7.1884   C.3       1 RES1   0.0000
    28 C12      0.4479   1.4863  11.7825   C.3       1 RES1   0.0000
    29 H8       0.6707   0.5400  11.9649   H         1 RES1   0.0000
    30 H9      -0.2618   1.5031  11.0920   H         1 RES1   0.0000
    31 C13     -0.0713   2.1182  13.0360   C.2       1 RES1   0.0000
    32 H10      0.5523   2.3908  13.6997   H         1 RES1   0.0000
    33 C14     -1.3556   2.3126  13.2585   C.2       1 RES1   0.0000
    34 H11     -1.9950   2.0481  12.6081   H         1 RES1   0.0000
    35 H12     -1.6415   2.7169  14.0696   H         1 RES1   0.0000
    36 C15     -2.3502   4.8414   6.6401   C.3       1 RES1   0.0000
    37 H13     -2.3772   3.8972   6.9337   H         1 RES1   0.0000
    38 H14     -2.8530   4.9088   5.7893   H         1 RES1   0.0000
    39 C16     -3.0227   5.6957   7.6755   C.2       1 RES1   0.0000
    40 H15     -2.5205   5.9721   8.4334   H         1 RES1   0.0000
    41 C17     -4.2820   6.0791   7.5753   C.2       1 RES1   0.0000
    42 H16     -4.8002   5.8133   6.8243   H         1 RES1   0.0000
    43 H17     -4.6684   6.6208   8.2530   H         1 RES1   0.0000
    44 C18      0.2198   6.3946  10.5259   C.1       1 RES1   0.0000
    45 C19      0.0732   7.6014  11.3269   C.3       1 RES1   0.0000
    46 H18     -0.8771   7.8313  11.4000   H         1 RES1   0.0000
    47 H19      0.5561   8.3395  10.8971   H         1 RES1   0.0000
    48 H20      0.4414   7.4467  12.2218   H         1 RES1   0.0000
    49 C20     -2.3139   3.0706   9.6618   C.1       1 RES1   0.0000
    50 C21     -3.7033   2.8145  10.0222   C.3       1 RES1   0.0000
    51 H21     -4.2690   3.5378   9.6780   H         1 RES1   0.0000
    52 H22     -3.7855   2.7720  10.9973   H         1 RES1   0.0000
    53 H23     -3.9900   1.9628   9.6324   H         1 RES1   0.0000
    54 C22      0.8076   1.2464   7.1906   C.1       1 RES1   0.0000
    55 C23      0.9425   0.0209   6.4189   C.3       1 RES1   0.0000
    56 H24      1.0262   0.2408   5.4686   H         1 RES1   0.0000
    57 H25      0.1510  -0.5400   6.5546   H         1 RES1   0.0000
    58 H26      1.7408  -0.4648   6.7132   H         1 RES1   0.0000
    59 C24     -5.9322   7.9652  10.6234   C.ar      2 RES2   0.0000
    60 C25     -6.5366   6.7101  10.8154   C.ar      2 RES2   0.0000
    61 H27     -6.2888   6.1961  11.5749   H         2 RES2   0.0000
    62 C26     -7.4833   6.1926   9.9358   C.ar      2 RES2   0.0000
    63 H28     -7.8558   5.3334  10.0953   H         2 RES2   0.0000
    64 C27     -7.8844   6.9244   8.8290   C.ar      2 RES2   0.0000
    65 H29     -8.5284   6.5740   8.2238   H         2 RES2   0.0000
    66 C28     -7.3268   8.1852   8.6185   C.ar      2 RES2   0.0000
    67 H30     -7.5997   8.7057   7.8721   H         2 RES2   0.0000
    68 C29     -6.3721   8.6821   9.4979   C.ar      2 RES2   0.0000
    69 H31     -6.0022   9.5416   9.3317   H         2 RES2   0.0000
    70 C30     -5.8923   9.3412  12.8002   C.ar      2 RES2   0.0000
    71 C31     -6.3756  10.6498  12.6107   C.ar      2 RES2   0.0000
    72 H32     -6.0251  11.1668  11.8956   H         2 RES2   0.0000
    73 C32     -7.3452  11.2136  13.4285   C.ar      2 RES2   0.0000
    74 H33     -7.6379  12.1030  13.2678   H         2 RES2   0.0000
    75 C33     -7.8905  10.4891  14.4801   C.ar      2 RES2   0.0000
    76 H34     -8.5609  10.8692  15.0372   H         2 RES2   0.0000
    77 C34     -7.4334   9.1927  14.7008   C.ar      2 RES2   0.0000
    78 H35     -7.7908   8.6806  15.4162   H         2 RES2   0.0000
    79 C35     -6.4581   8.6447  13.8810   C.ar      2 RES2   0.0000
    80 H36     -6.1608   7.7611  14.0587   H         2 RES2   0.0000
    81 C36     -3.9437   7.4668  12.4341   C.ar      2 RES2   0.0000
    82 C37     -3.4028   7.6622  13.7126   C.ar      2 RES2   0.0000
    83 H37     -3.6957   8.4114  14.2190   H         2 RES2   0.0000
    84 C38     -2.4565   6.8126  14.2762   C.ar      2 RES2   0.0000
    85 H38     -2.1116   6.9920  15.1429   H         2 RES2   0.0000
    86 C39     -2.0177   5.7034  13.5694   C.ar      2 RES2   0.0000
    87 H39     -1.3739   5.1144  13.9439   H         2 RES2   0.0000
    88 C40     -2.5354   5.4700  12.3069   C.ar      2 RES2   0.0000
    89 H40     -2.2472   4.7098  11.8136   H         2 RES2   0.0000
    90 C41     -3.4702   6.3309  11.7519   C.ar      2 RES2   0.0000
    91 H41     -3.8027   6.1476  10.8807   H         2 RES2   0.0000
    92 C42     -3.7953   9.6025  11.0374   C.ar      2 RES2   0.0000
    93 C43     -3.1914   9.2900   9.8092   C.ar      2 RES2   0.0000
    94 H42     -3.5352   8.5602   9.3081   H         2 RES2   0.0000
    95 C44     -2.1135  10.0003   9.2924   C.ar      2 RES2   0.0000
    96 H43     -1.7370   9.7523   8.4552   H         2 RES2   0.0000
    97 C45     -1.5857  11.0745  10.0011   C.ar      2 RES2   0.0000
    98 H44     -0.8465  11.5630   9.6597   H         2 RES2   0.0000
    99 C46     -2.1574  11.4184  11.2147   C.ar      2 RES2   0.0000
   100 H45     -1.8058  12.1482  11.7116   H         2 RES2   0.0000
   101 C47     -3.2432  10.7035  11.7136   C.ar      2 RES2   0.0000
   102 H46     -3.6250  10.9695  12.5425   H         2 RES2   0.0000
   103 B1      -4.8969   8.6047  11.7234   B         2 RES2  -1.0000
   104 C48      4.3290  15.7288   7.1317   C.ar      3 RES3   0.0000
   105 C49      3.8281  14.4146   7.1060   C.ar      3 RES3   0.0000
   106 H47      4.0989  13.8385   6.4016   H         3 RES3   0.0000
   107 C50      2.9460  13.9189   8.0753   C.ar      3 RES3   0.0000
   108 H48      2.6218  13.0293   8.0088   H         3 RES3   0.0000
   109 C51      2.5455  14.7221   9.1311   C.ar      3 RES3   0.0000
   110 H49      1.9415  14.3952   9.7873   H         3 RES3   0.0000
   111 C52      3.0454  16.0172   9.2109   C.ar      3 RES3   0.0000
   112 H50      2.7938  16.5771   9.9349   H         3 RES3   0.0000
   113 C53      3.9124  16.4967   8.2364   C.ar      3 RES3   0.0000
   114 H51      4.2403  17.3846   8.3186   H         3 RES3   0.0000
   115 C54      6.1357  15.2778   5.0974   C.ar      3 RES3   0.0000
   116 C55      7.5336  15.3235   4.9797   C.ar      3 RES3   0.0000
   117 H52      8.0048  16.0086   5.4412   H         3 RES3   0.0000
   118 C56      8.2647  14.4113   4.2189   C.ar      3 RES3   0.0000
   119 H53      9.2106  14.4788   4.1802   H         3 RES3   0.0000
   120 C57      7.6171  13.4086   3.5188   C.ar      3 RES3   0.0000
   121 H54      8.1118  12.7852   2.9994   H         3 RES3   0.0000
   122 C58      6.2368  13.3312   3.5880   C.ar      3 RES3   0.0000
   123 H55      5.7748  12.6564   3.1033   H         3 RES3   0.0000
   124 C59      5.5242  14.2397   4.3656   C.ar      3 RES3   0.0000
   125 H56      4.5785  14.1561   4.4044   H         3 RES3   0.0000
   126 C60      4.2940  17.2507   4.9523   C.ar      3 RES3   0.0000
   127 C61      3.5896  18.3960   5.3791   C.ar      3 RES3   0.0000
   128 H57      3.7454  18.7238   6.2576   H         3 RES3   0.0000
   129 C62      2.6795  19.0654   4.5731   C.ar      3 RES3   0.0000
   130 H58      2.2396  19.8407   4.9000   H         3 RES3   0.0000
   131 C63      2.4076  18.6043   3.2866   C.ar      3 RES3   0.0000
   132 H59      1.7561  19.0348   2.7443   H         3 RES3   0.0000
   133 C64      3.1022  17.5078   2.8145   C.ar      3 RES3   0.0000
   134 H60      2.9447  17.1890   1.9334   H         3 RES3   0.0000
   135 C65      4.0355  16.8685   3.6294   C.ar      3 RES3   0.0000
   136 H61      4.5212  16.1357   3.2691   H         3 RES3   0.0000
   137 C66      6.3620  17.3918   6.7584   C.ar      3 RES3   0.0000
   138 C67      7.0983  16.8618   7.8317   C.ar      3 RES3   0.0000
   139 H62      6.9710  15.9484   8.0598   H         3 RES3   0.0000
   140 C68      8.0031  17.6082   8.5773   C.ar      3 RES3   0.0000
   141 H63      8.4768  17.2057   9.2953   H         3 RES3   0.0000
   142 C69      8.2133  18.9479   8.2670   C.ar      3 RES3   0.0000
   143 H64      8.8227  19.4712   8.7741   H         3 RES3   0.0000
   144 C70      7.5192  19.5033   7.2074   C.ar      3 RES3   0.0000
   145 H65      7.6589  20.4158   6.9810   H         3 RES3   0.0000
   146 C71      6.6114  18.7350   6.4641   C.ar      3 RES3   0.0000
   147 H66      6.1512  19.1401   5.7383   H         3 RES3   0.0000
   148 B2       5.2990  16.4055   5.9690   B         3 RES3  -1.0000
@<TRIPOS>BOND
     1     1     4    1
     2     2    10    1
     3     3    10    1
     4     4    15   ar
     5     5    22    1
     6     6    25    1
     7     7     1    1
     8     8     1    1
     9     9     1    1
    10    10     1    1
    11    11     2    1
    12    12    11    1
    13    13     3    1
    14    14    13    1
    15    15     3    1
    16    16    15   ar
    17    17    16    1
    18    18    16   ar
    19    19    18    1
    20    20    18   ar
    21    21    20    1
    22    22     4   ar
    23    23     5    1
    24    24    23    1
    25    25    23    2
    26    26    25    1
    27    27     1    1
    28    28     2    1
    29    29    28    1
    30    30    28    1
    31    31    28    1
    32    32    31    1
    33    33    31    2
    34    34    33    1
    35    35    33    1
    36    36     6    1
    37    37    36    1
    38    38    36    1
    39    39    36    1
    40    40    39    1
    41    41    39    2
    42    42    41    1
    43    43    41    1
    44    44     7    3
    45    45    44    1
    46    46    45    1
    47    47    45    1
    48    48    45    1
    49    49     8    3
    50    50    49    1
    51    51    50    1
    52    52    50    1
    53    53    50    1
    54    54     9    3
    55    55    54    1
    56    56    55    1
    57    57    55    1
    58    58    55    1
    59     5    27    1
    60     6    27    1
    61    11    13    2
    62    20    22   ar
    63    59    60   ar
    64    60    61    1
    65    62    60   ar
    66    63    62    1
    67    64    62   ar
    68    65    64    1
    69    66    64   ar
    70    67    66    1
    71    68    59   ar
    72    69    68    1
    73    70    71   ar
    74    71    72    1
    75    73    71   ar
    76    74    73    1
    77    75    73   ar
    78    76    75    1
    79    77    75   ar
    80    78    77    1
    81    79    70   ar
    82    80    79    1
    83    81    82   ar
    84    82    83    1
    85    84    82   ar
    86    85    84    1
    87    86    84   ar
    88    87    86    1
    89    88    86   ar
    90    89    88    1
    91    90    81   ar
    92    91    90    1
    93    92    93   ar
    94    93    94    1
    95    95    93   ar
    96    96    95    1
    97    97    95   ar
    98    98    97    1
    99    99    97   ar
   100   100    99    1
   101   101    92   ar
   102   102   101    1
   103   103    59    1
   104    66    68   ar
   105    70   103    1
   106    77    79   ar
   107    81   103    1
   108    88    90   ar
   109    92   103    1
   110    99   101   ar
   111   104   105   ar
   112   105   106    1
   113   107   105   ar
   114   108   107    1
   115   109   107   ar
   116   110   109    1
   117   111   109   ar
   118   112   111    1
   119   113   104   ar
   120   114   113    1
   121   115   116   ar
   122   116   117    1
   123   118   116   ar
   124   119   118    1
   125   120   118   ar
   126   121   120    1
   127   122   120   ar
   128   123   122    1
   129   124   115   ar
   130   125   124    1
   131   126   127   ar
   132   127   128    1
   133   129   127   ar
   134   130   129    1
   135   131   129   ar
   136   132   131    1
   137   133   131   ar
   138   134   133    1
   139   135   126   ar
   140   136   135    1
   141   137   138   ar
   142   138   139    1
   143   140   138   ar
   144   141   140    1
   145   142   140   ar
   146   143   142    1
   147   144   142   ar
   148   145   144    1
   149   146   137   ar
   150   147   146    1
   151   148   104    1
   152   111   113   ar
   153   115   148    1
   154   122   124   ar
   155   126   148    1
   156   133   135   ar
   157   137   148    1
   158   144   146   ar
@<TRIPOS>SUBSTRUCTURE
     1 RES1        1 GROUP             0 ****  ****    0  
     2 RES2       59 GROUP             0 ****  ****    0  
     3 RES3      104 GROUP             0 ****  ****    0  
@<TRIPOS>CRYSIN
   19.1091   16.7192   18.2225   90.0000   90.0000   90.0000    29     1
