@<TRIPOS>MOLECULE
FIWPAD
   119   128     5     0     0
SMALL
USER_CHARGES
****
Generated from the CSD

@<TRIPOS>ATOM
     1 C1      10.7185   0.8330   8.5524   C.3       1 RES1   0.0000
     2 H1      10.8152   0.0523   9.1008   H         1 RES1   0.0000
     3 H2      11.2362   0.7268   7.7494   H         1 RES1   0.0000
     4 H3       9.7947   0.9511   8.3211   H         1 RES1   0.0000
     5 O1      11.1116   1.8065   9.1605   O.3       1 RES1   0.0000
     6 H4      10.6644   1.9023   9.8414   H         1 RES1   0.0000
     7 C2       8.4189  14.0276  24.4852   C.3       2 RES2   0.0000
     8 H5       7.8768  14.6422  24.9868   H         2 RES2   0.0000
     9 H6       8.7233  14.4598  23.6796   H         2 RES2   0.0000
    10 H7       9.1808  13.7734  25.0154   H         2 RES2   0.0000
    11 O2       7.5281  12.6802  24.0954   O.3       2 RES2   0.0000
    12 H8       7.5989  12.1239  24.6931   H         2 RES2   0.0000
    13 C3       0.6940   2.2372  11.4526   C.ar      3 RES3   0.0000
    14 H9       0.4326   1.7048  10.7354   H         3 RES3   0.0000
    15 C4      -0.1654   2.3389  12.5883   C.ar      3 RES3   0.0000
    16 H10     -0.9438   1.8290  12.6090   H         3 RES3   0.0000
    17 C5       0.1077   3.1480  13.6407   C.ar      3 RES3   0.0000
    18 H11     -0.4532   3.1899  14.3814   H         3 RES3   0.0000
    19 C6       1.2980   3.9301  13.5602   C.ar      3 RES3   0.0000
    20 C7       2.1265   3.7417  12.4245   C.ar      3 RES3   0.0000
    21 C8       3.3656   4.4535  12.3024   C.ar      3 RES3   0.0000
    22 C9       3.7278   5.3957  13.3003   C.ar      3 RES3   0.0000
    23 C10      4.9534   6.0881  13.1132   C.ar      3 RES3   0.0000
    24 H12      5.2433   6.7192  13.7343   H         3 RES3   0.0000
    25 C11      5.7314   5.7905  11.9490   C.ar      3 RES3   0.0000
    26 H13      6.5458   6.2167  11.7982   H         3 RES3   0.0000
    27 C12      5.2540   4.8693  11.0628   C.ar      3 RES3   0.0000
    28 H14      5.7653   4.7003  10.3040   H         3 RES3   0.0000
    29 C13      1.7098   4.8095  14.5321   C.ar      3 RES3   0.0000
    30 H15      1.1905   4.8902  15.2987   H         3 RES3   0.0000
    31 C14      2.8554   5.5871  14.4386   C.ar      3 RES3   0.0000
    32 H16      3.0570   6.2167  15.0908   H         3 RES3   0.0000
    33 C15      4.9454   1.3743  12.0945   C.ar      3 RES3   0.0000
    34 H17      5.1794   2.2073  12.4349   H         3 RES3   0.0000
    35 C16      5.4640   0.2198  12.7208   C.ar      3 RES3   0.0000
    36 H18      6.0967   0.2886  13.3991   H         3 RES3   0.0000
    37 C17      5.0111  -1.0109  12.3050   C.ar      3 RES3   0.0000
    38 H19      5.2384  -1.7736  12.7832   H         3 RES3   0.0000
    39 C18      4.1656  -1.1261  11.0914   C.ar      3 RES3   0.0000
    40 C19      3.7219   0.0583  10.6236   C.ar      3 RES3   0.0000
    41 C20      2.8299   0.1406   9.5036   C.ar      3 RES3   0.0000
    42 C21      2.3957  -1.0962   8.8929   C.ar      3 RES3   0.0000
    43 C22      1.4816  -1.0379   7.9079   C.ar      3 RES3   0.0000
    44 H20      1.0760  -1.8110   7.5883   H         3 RES3   0.0000
    45 C23      1.1692   0.1705   7.3960   C.ar      3 RES3   0.0000
    46 H21      0.6629   0.2243   6.6164   H         3 RES3   0.0000
    47 C24      1.5954   1.3280   8.0145   C.ar      3 RES3   0.0000
    48 H22      1.2667   2.1385   7.7026   H         3 RES3   0.0000
    49 C25      3.6841  -2.3614  10.6002   C.ar      3 RES3   0.0000
    50 H23      3.9297  -3.1719  10.9848   H         3 RES3   0.0000
    51 C26      2.8506  -2.3015   9.5425   C.ar      3 RES3   0.0000
    52 H24      2.5421  -3.1091   9.1995   H         3 RES3   0.0000
    53 C27      5.8823   2.1939   8.5888   C.ar      3 RES3   0.0000
    54 H25      6.0695   1.5658   9.2489   H         3 RES3   0.0000
    55 C28      6.7776   2.3539   7.5857   C.ar      3 RES3   0.0000
    56 H26      7.5861   1.8933   7.5909   H         3 RES3   0.0000
    57 C29      6.4639   3.2108   6.5592   C.ar      3 RES3   0.0000
    58 H27      7.0559   3.3200   5.8497   H         3 RES3   0.0000
    59 C30      5.2768   3.9077   6.5748   C.ar      3 RES3   0.0000
    60 C31      4.4273   3.7566   7.6793   C.ar      3 RES3   0.0000
    61 C32      3.2441   4.4954   7.7806   C.ar      3 RES3   0.0000
    62 C33      2.8704   5.4092   6.8243   C.ar      3 RES3   0.0000
    63 C34      1.6925   6.1045   7.0062   C.ar      3 RES3   0.0000
    64 H28      1.4220   6.7386   6.3825   H         3 RES3   0.0000
    65 C35      0.9658   5.8683   8.0483   C.ar      3 RES3   0.0000
    66 H29      0.1718   6.3393   8.1600   H         3 RES3   0.0000
    67 C36      1.3485   4.8962   9.0462   C.ar      3 RES3   0.0000
    68 H30      0.8044   4.7407   9.7842   H         3 RES3   0.0000
    69 C37      4.8617   4.8962   5.5405   C.ar      3 RES3   0.0000
    70 H31      5.4020   5.0517   4.7999   H         3 RES3   0.0000
    71 C38      3.7210   5.5527   5.6834   C.ar      3 RES3   0.0000
    72 H32      3.4584   6.1360   5.0078   H         3 RES3   0.0000
    73 N1       1.8800   2.8967  11.3850   N.ar      3 RES3   0.0000
    74 N2       4.1150   4.1918  11.1927   N.ar      3 RES3   0.0000
    75 N3       4.1573   1.3205  11.0680   N.ar      3 RES3   0.0000
    76 N4       2.4803   1.3504   9.0722   N.ar      3 RES3   0.0000
    77 N5       4.7495   2.8893   8.6824   N.ar      3 RES3   0.0000
    78 N6       2.5061   4.2128   8.8981   N.ar      3 RES3   0.0000
    79 Fe1      3.2870   2.8173  10.0381   Fe        3 RES3   2.0000
    80 C39      9.9448  13.0226   1.9880   C.1       4 RES4   0.0000
    81 C40      8.7519  11.1892   0.9979   C.1       4 RES4   0.0000
    82 C41      8.7256  12.3437   1.7879   C.2       4 RES4   0.0000
    83 C42      7.4926  12.7908   2.3493   C.2       4 RES4  -1.0000
    84 C43      7.5156  13.9663   3.1263   C.2       4 RES4   0.0000
    85 H33      8.3174  14.4164   3.2666   H         4 RES4   0.0000
    86 C44      6.3159  14.4583   3.6928   C.2       4 RES4   0.0000
    87 H34      6.3285  15.2285   4.2151   H         4 RES4   0.0000
    88 C45      5.1295  13.7973   3.4693   C.2       4 RES4   0.0000
    89 C46      5.1188  12.6099   2.7547   C.2       4 RES4   0.0000
    90 H35      4.3296  12.1268   2.6637   H         4 RES4   0.0000
    91 C47      6.2920  12.1403   2.1725   C.2       4 RES4   0.0000
    92 H36      6.2640  11.3701   1.6502   H         4 RES4   0.0000
    93 C48      3.8451  14.3716   4.0306   C.2       4 RES4   0.0000
    94 C49      2.7994  13.3262   4.2619   C.1       4 RES4   0.0000
    95 C50      4.0640  15.0520   5.3898   C.1       4 RES4   0.0000
    96 N7      10.9466  13.5476   2.1050   N.1       4 RES4   0.0000
    97 N8       8.6620  10.3652   0.1377   N.1       4 RES4   0.0000
    98 N9       1.9549  12.5725   4.3867   N.1       4 RES4   0.0000
    99 N10      4.2525  15.6248   6.3071   N.1       4 RES4   0.0000
   100 C51      2.9152  14.8411   1.8165   C.1       5 RES5   0.0000
   101 C52      4.1942  16.5475   2.8924   C.1       5 RES5   0.0000
   102 C53      3.1622  15.5066   3.0535   C.2       5 RES5   0.0000
   103 C54      1.8747  16.1168   3.5888   C.2       5 RES5  -1.0000
   104 C55      0.6417  15.4648   3.4225   C.2       5 RES5   0.0000
   105 H37      0.6031  14.6901   2.9080   H         5 RES5   0.0000
   106 C56     -0.4730  15.9299   3.9839   C.2       5 RES5   0.0000
   107 H38     -1.2564  15.4408   3.8695   H         5 RES5   0.0000
   108 C57     -0.5402  17.1038   4.7245   C.2       5 RES5   0.0000
   109 C58      0.7126  17.7828   4.8726   C.2       5 RES5   0.0000
   110 H39      0.7323  18.5933   5.3300   H         5 RES5   0.0000
   111 C59      1.8667  17.2863   4.3711   C.2       5 RES5   0.0000
   112 H40      2.6674  17.7244   4.5478   H         5 RES5   0.0000
   113 C60     -1.7612  17.6377   5.3560   C.2       5 RES5   0.0000
   114 C61     -2.9707  16.9677   5.1767   C.1       5 RES5   0.0000
   115 C62     -1.7600  18.7414   6.1746   C.1       5 RES5   0.0000
   116 N11      2.6899  14.2983   0.7978   N.1       5 RES5   0.0000
   117 N12      4.9839  17.3610   2.7962   N.1       5 RES5   0.0000
   118 N13     -3.9674  16.3740   4.9740   N.1       5 RES5   0.0000
   119 N14     -1.8445  19.7299   6.7203   N.1       5 RES5   0.0000
@<TRIPOS>BOND
     1     1     2    1
     2     3     1    1
     3     4     1    1
     4     5     1    1
     5     6     5    1
     6     7     8    1
     7     9     7    1
     8    10     7    1
     9    11     7    1
    10    12    11    1
    11    13    14    1
    12    15    13   ar
    13    16    15    1
    14    17    15   ar
    15    18    17    1
    16    19    17   ar
    17    20    19   ar
    18    21    20   ar
    19    22    21   ar
    20    23    22   ar
    21    24    23    1
    22    25    23   ar
    23    26    25    1
    24    27    25   ar
    25    28    27    1
    26    29    19   ar
    27    30    29    1
    28    31    22   ar
    29    32    31    1
    30    33    34    1
    31    35    33   ar
    32    36    35    1
    33    37    35   ar
    34    38    37    1
    35    39    37   ar
    36    40    39   ar
    37    41    40   ar
    38    42    41   ar
    39    43    42   ar
    40    44    43    1
    41    45    43   ar
    42    46    45    1
    43    47    45   ar
    44    48    47    1
    45    49    39   ar
    46    50    49    1
    47    51    42   ar
    48    52    51    1
    49    53    54    1
    50    55    53   ar
    51    56    55    1
    52    57    55   ar
    53    58    57    1
    54    59    57   ar
    55    60    59   ar
    56    61    60   ar
    57    62    61   ar
    58    63    62   ar
    59    64    63    1
    60    65    63   ar
    61    66    65    1
    62    67    65   ar
    63    68    67    1
    64    69    59   ar
    65    70    69    1
    66    71    62   ar
    67    72    71    1
    68    73    13   ar
    69    74    21   ar
    70    75    33   ar
    71    76    41   ar
    72    77    53   ar
    73    78    61   ar
    74    79    73    1
    75    20    73   ar
    76    27    74   ar
    77    29    31   ar
    78    40    75   ar
    79    47    76   ar
    80    49    51   ar
    81    60    77   ar
    82    67    78   ar
    83    69    71   ar
    84    74    79    1
    85    75    79    1
    86    76    79    1
    87    77    79    1
    88    78    79    1
    89    80    82    1
    90    81    82    1
    91    82    83    2
    92    83    84    1
    93    84    85    1
    94    86    84    2
    95    87    86    1
    96    88    86    1
    97    89    88    1
    98    90    89    1
    99    91    83    1
   100    92    91    1
   101    93    88    2
   102    94    93    1
   103    95    93    1
   104    96    80    3
   105    97    81    3
   106    98    94    3
   107    99    95    3
   108    89    91    2
   109   100   102    1
   110   101   102    1
   111   102   103    2
   112   103   104    1
   113   104   105    1
   114   106   104    2
   115   107   106    1
   116   108   106    1
   117   109   108    1
   118   110   109    1
   119   111   103    1
   120   112   111    1
   121   113   108    2
   122   114   113    1
   123   115   113    1
   124   116   100    3
   125   117   101    3
   126   118   114    3
   127   119   115    3
   128   109   111    2
@<TRIPOS>SUBSTRUCTURE
     1 RES1        1 GROUP             0 ****  ****    0  
     2 RES2        7 GROUP             0 ****  ****    0  
     3 RES3       13 GROUP             0 ****  ****    0  
     4 RES4       80 GROUP             0 ****  ****    0  
     5 RES5      100 GROUP             0 ****  ****    0  
@<TRIPOS>CRYSIN
   12.8558   14.9548   25.9990   90.0000   91.7180   90.0000     9     1
