@<TRIPOS>MOLECULE
FIWXEP
   115   128     1     0     0
SMALL
NO_CHARGES
****
Generated from the CSD

@<TRIPOS>ATOM
     1 Fe1      4.9200   1.9089  13.5866   Fe        1 RES1   0.0000
     2 B1       4.9278   1.8726  10.3595   B         1 RES1   0.0000
     3 C1       2.3501   2.1686  10.3064   C.ar      1 RES1   0.0000
     4 H1       2.2644   2.2613   9.3856   H         1 RES1   0.0000
     5 C2       1.3218   2.1867  11.1928   C.ar      1 RES1   0.0000
     6 H2       0.4177   2.2945  11.0069   H         1 RES1   0.0000
     7 C3       1.9081   2.0096  12.4310   C.ar      1 RES1   0.0000
     8 C4       1.2109   1.8988  13.7493   C.3       1 RES1   0.0000
     9 H3       1.8611   1.8173  14.4507   H         1 RES1   0.0000
    10 H4       0.6427   1.1236  13.7478   H         1 RES1   0.0000
    11 H5       0.6792   2.6841  13.8964   H         1 RES1   0.0000
    12 C5       6.3889  -0.3242  10.2917   C.ar      1 RES1   0.0000
    13 H6       6.5133  -0.3906   9.3729   H         1 RES1   0.0000
    14 C6       6.9508  -1.1347  11.2113   C.ar      1 RES1   0.0000
    15 H7       7.5123  -1.8585  11.0540   H         1 RES1   0.0000
    16 C7       6.5155  -0.6645  12.4384   C.ar      1 RES1   0.0000
    17 C8       6.8280  -1.2051  13.8013   C.3       1 RES1   0.0000
    18 H8       6.8468  -0.4843  14.4344   H         1 RES1   0.0000
    19 H9       7.6831  -1.6380  13.7859   H         1 RES1   0.0000
    20 H10      6.1540  -1.8384  14.0576   H         1 RES1   0.0000
    21 C9       6.7719   3.7573  10.2867   C.ar      1 RES1   0.0000
    22 H11      7.0397   3.6657   9.4001   H         1 RES1   0.0000
    23 C10      7.3106   4.6232  11.1798   C.ar      1 RES1   0.0000
    24 H12      7.9868   5.2434  11.0287   H         1 RES1   0.0000
    25 C11      6.6404   4.3876  12.3613   C.ar      1 RES1   0.0000
    26 C12      6.8456   5.0662  13.6840   C.3       1 RES1   0.0000
    27 H13      6.1830   5.7508  13.7985   H         1 RES1   0.0000
    28 H14      7.7215   5.4618  13.7080   H         1 RES1   0.0000
    29 H15      6.7661   4.4218  14.3909   H         1 RES1   0.0000
    30 C13      4.7758   1.8485   8.7418   C.ar      1 RES1   0.0000
    31 C14      4.4456   0.6725   8.0735   C.ar      1 RES1   0.0000
    32 H16      4.3173  -0.1017   8.5722   H         1 RES1   0.0000
    33 C15      4.3003   0.6071   6.6984   C.ar      1 RES1   0.0000
    34 H17      4.0856  -0.2024   6.2933   H         1 RES1   0.0000
    35 C16      4.4748   1.7387   5.9241   C.ar      1 RES1   0.0000
    36 C17      4.7126   2.9408   6.5683   C.ar      1 RES1   0.0000
    37 H18      4.7825   3.7251   6.0723   H         1 RES1   0.0000
    38 C18      4.8463   2.9831   7.9482   C.ar      1 RES1   0.0000
    39 H19      4.9892   3.8057   8.3585   H         1 RES1   0.0000
    40 C19      4.4142   1.6683   4.4798   C.1       1 RES1   0.0000
    41 C20      4.3798   1.6068   3.3014   C.1       1 RES1   0.0000
    42 C21      4.3513   1.5142   1.8653   C.ar      1 RES1   0.0000
    43 C22      3.2210   1.8394   1.1579   C.ar      1 RES1   0.0000
    44 H20      2.4685   2.1414   1.6105   H         1 RES1   0.0000
    45 C23      3.1865   1.7246  -0.2083   C.ar      1 RES1   0.0000
    46 H21      2.4140   1.9532  -0.6739   H         1 RES1   0.0000
    47 C24      4.2626   1.2857  -0.8761   C.ar      1 RES1   0.0000
    48 H22      4.2395   1.2222  -1.8043   H         1 RES1   0.0000
    49 C25      5.3933   0.9313  -0.2047   C.ar      1 RES1   0.0000
    50 H23      6.1304   0.6111  -0.6685   H         1 RES1   0.0000
    51 C26      5.4363   1.0511   1.1806   C.ar      1 RES1   0.0000
    52 H24      6.2088   0.8145   1.6413   H         1 RES1   0.0000
    53 N1       3.2255   1.9049  12.2935   N.ar      1 RES1   0.0000
    54 N2       3.4982   1.9992  10.9553   N.ar      1 RES1   0.0000
    55 N3       5.7237   0.3921  12.2587   N.ar      1 RES1   0.0000
    56 N4       5.6242   0.5930  10.9035   N.ar      1 RES1   0.0000
    57 N5       5.7258   3.4324  12.1953   N.ar      1 RES1   0.0000
    58 N6       5.7990   3.0544  10.8736   N.ar      1 RES1   0.0000
    59 B1B      4.9123   1.8726  16.8137   B         1 RES1   0.0000
    60 C1B      7.4900   2.1686  16.8667   C.ar      1 RES1   0.0000
    61 H1B      7.5756   2.2613  17.7876   H         1 RES1   0.0000
    62 C2B      8.5182   2.1867  15.9804   C.ar      1 RES1   0.0000
    63 H2B      9.4224   2.2945  16.1662   H         1 RES1   0.0000
    64 C3B      7.9319   2.0096  14.7422   C.ar      1 RES1   0.0000
    65 C4B      8.6292   1.8988  13.4239   C.3       1 RES1   0.0000
    66 H3B      7.9789   1.8173  12.7225   H         1 RES1   0.0000
    67 H4B      9.1973   1.1236  13.4254   H         1 RES1   0.0000
    68 H5B      9.1608   2.6841  13.2768   H         1 RES1   0.0000
    69 C5B      3.4512  -0.3242  16.8814   C.ar      1 RES1   0.0000
    70 H6B      3.3267  -0.3906  17.8002   H         1 RES1   0.0000
    71 C6B      2.8893  -1.1347  15.9619   C.ar      1 RES1   0.0000
    72 H7B      2.3277  -1.8585  16.1191   H         1 RES1   0.0000
    73 C7B      3.3246  -0.6645  14.7347   C.ar      1 RES1   0.0000
    74 C8B      3.0121  -1.2051  13.3719   C.3       1 RES1   0.0000
    75 H8B      2.9933  -0.4843  12.7388   H         1 RES1   0.0000
    76 H9B      2.1570  -1.6380  13.3873   H         1 RES1   0.0000
    77 H10B     3.6861  -1.8384  13.1156   H         1 RES1   0.0000
    78 C9B      3.0682   3.7573  16.8865   C.ar      1 RES1   0.0000
    79 H11B     2.8003   3.6657  17.7731   H         1 RES1   0.0000
    80 C10B     2.5295   4.6232  15.9934   C.ar      1 RES1   0.0000
    81 H12B     1.8533   5.2434  16.1445   H         1 RES1   0.0000
    82 C11B     3.1996   4.3876  14.8119   C.ar      1 RES1   0.0000
    83 C12B     2.9945   5.0662  13.4891   C.3       1 RES1   0.0000
    84 H13B     3.6570   5.7508  13.3746   H         1 RES1   0.0000
    85 H14B     2.1186   5.4618  13.4652   H         1 RES1   0.0000
    86 H15B     3.0739   4.4218  12.7823   H         1 RES1   0.0000
    87 C13B     5.0643   1.8485  18.4314   C.ar      1 RES1   0.0000
    88 C14B     5.3944   0.6725  19.0997   C.ar      1 RES1   0.0000
    89 H16B     5.5228  -0.1017  18.6009   H         1 RES1   0.0000
    90 C15B     5.5397   0.6071  20.4748   C.ar      1 RES1   0.0000
    91 H17B     5.7545  -0.2024  20.8799   H         1 RES1   0.0000
    92 C16B     5.3652   1.7387  21.2491   C.ar      1 RES1   0.0000
    93 C17B     5.1275   2.9408  20.6049   C.ar      1 RES1   0.0000
    94 H18B     5.0576   3.7251  21.1009   H         1 RES1   0.0000
    95 C18B     4.9938   2.9831  19.2250   C.ar      1 RES1   0.0000
    96 H19B     4.8509   3.8057  18.8147   H         1 RES1   0.0000
    97 C19B     5.4259   1.6683  22.6934   C.1       1 RES1   0.0000
    98 C20B     5.4602   1.6068  23.8718   C.1       1 RES1   0.0000
    99 C21B     5.4887   1.5142  25.3078   C.ar      1 RES1   0.0000
   100 C22B     6.6190   1.8394  26.0152   C.ar      1 RES1   0.0000
   101 H20B     7.3715   2.1414  25.5627   H         1 RES1   0.0000
   102 C23B     6.6536   1.7246  27.3815   C.ar      1 RES1   0.0000
   103 H21B     7.4261   1.9532  27.8471   H         1 RES1   0.0000
   104 C24B     5.5775   1.2857  28.0492   C.ar      1 RES1   0.0000
   105 H22B     5.6006   1.2222  28.9775   H         1 RES1   0.0000
   106 C25B     4.4468   0.9313  27.3779   C.ar      1 RES1   0.0000
   107 H23B     3.7097   0.6111  27.8416   H         1 RES1   0.0000
   108 C26B     4.4038   1.0511  25.9926   C.ar      1 RES1   0.0000
   109 H24B     3.6312   0.8145  25.5319   H         1 RES1   0.0000
   110 N1B      6.6146   1.9049  14.8797   N.ar      1 RES1   0.0000
   111 N2B      6.3418   1.9992  16.2179   N.ar      1 RES1   0.0000
   112 N3B      4.1164   0.3921  14.9144   N.ar      1 RES1   0.0000
   113 N4B      4.2159   0.5930  16.2697   N.ar      1 RES1   0.0000
   114 N5B      4.1143   3.4324  14.9779   N.ar      1 RES1   0.0000
   115 N6B      4.0411   3.0544  16.2996   N.ar      1 RES1   0.0000
@<TRIPOS>BOND
     1     1    53    1
     2     2    30    1
     3     3     4    1
     4     5     3   ar
     5     6     5    1
     6     7     5   ar
     7     8     7    1
     8     9     8    1
     9    10     8    1
    10    11     8    1
    11    12    13    1
    12    14    12   ar
    13    15    14    1
    14    16    14   ar
    15    17    16    1
    16    18    17    1
    17    19    17    1
    18    20    17    1
    19    21    22    1
    20    23    21   ar
    21    24    23    1
    22    25    23   ar
    23    26    25    1
    24    27    26    1
    25    28    26    1
    26    29    26    1
    27    30    31   ar
    28    31    32    1
    29    33    31   ar
    30    34    33    1
    31    35    33   ar
    32    36    35   ar
    33    37    36    1
    34    38    30   ar
    35    39    38    1
    36    40    35    1
    37    41    40    3
    38    42    41    1
    39    43    42   ar
    40    44    43    1
    41    45    43   ar
    42    46    45    1
    43    47    45   ar
    44    48    47    1
    45    49    47   ar
    46    50    49    1
    47    51    42   ar
    48    52    51    1
    49    53     7   ar
    50    54     2    1
    51    55     1    1
    52    56     2    1
    53    57     1    1
    54    58     2    1
    55    59    87    1
    56    60    61    1
    57    62    60   ar
    58    63    62    1
    59    64    62   ar
    60    65    64    1
    61    66    65    1
    62    67    65    1
    63    68    65    1
    64    69    70    1
    65    71    69   ar
    66    72    71    1
    67    73    71   ar
    68    74    73    1
    69    75    74    1
    70    76    74    1
    71    77    74    1
    72    78    79    1
    73    80    78   ar
    74    81    80    1
    75    82    80   ar
    76    83    82    1
    77    84    83    1
    78    85    83    1
    79    86    83    1
    80    87    88   ar
    81    88    89    1
    82    90    88   ar
    83    91    90    1
    84    92    90   ar
    85    93    92   ar
    86    94    93    1
    87    95    87   ar
    88    96    95    1
    89    97    92    1
    90    98    97    3
    91    99    98    1
    92   100    99   ar
    93   101   100    1
    94   102   100   ar
    95   103   102    1
    96   104   102   ar
    97   105   104    1
    98   106   104   ar
    99   107   106    1
   100   108    99   ar
   101   109   108    1
   102   110     1    1
   103   111    59    1
   104   112     1    1
   105   113    59    1
   106   114     1    1
   107   115    59    1
   108     3    54   ar
   109    12    56   ar
   110    16    55   ar
   111    21    58   ar
   112    25    57   ar
   113    36    38   ar
   114    49    51   ar
   115    53    54   ar
   116    55    56   ar
   117    57    58   ar
   118    60   111   ar
   119    64   110   ar
   120    69   113   ar
   121    73   112   ar
   122    78   115   ar
   123    82   114   ar
   124    93    95   ar
   125   106   108   ar
   126   110   111   ar
   127   112   113   ar
   128   114   115   ar
@<TRIPOS>SUBSTRUCTURE
     1 RES1        1 GROUP             0 ****  ****    0  
@<TRIPOS>CRYSIN
   25.9570   10.0679   21.0622   90.0000  120.6730   90.0000    15     1
