@<TRIPOS>MOLECULE
FIWZUK
   128   128     5     0     0
SMALL
USER_CHARGES
****
Generated from the CSD

@<TRIPOS>ATOM
     1 Fe1      7.6947  14.1350  14.3817   Fe        1 RES1   0.0000
     2 Cl1      8.4054   9.5014  19.6927   Cl        1 RES1   0.0000
     3 Cl2     11.1997  11.5030  19.5331   Cl        1 RES1   0.0000
     4 P1       7.2030  14.0154  16.6660   P.3       1 RES1   0.0000
     5 P2       5.8414  12.9623  15.3615   P.3       1 RES1   0.0000
     6 O1       6.2156  16.7034  14.4673   O.2       1 RES1   0.0000
     7 O2       6.9893  14.0547  11.5088   O.2       1 RES1   0.0000
     8 O3      10.2794  15.5828  14.3366   O.2       1 RES1   0.0000
     9 O4       8.8119  11.4104  14.4038   O.2       1 RES1   0.0000
    10 N1       7.6601  11.4883  18.0188   N.pl3     1 RES1   1.0000
    11 N2       9.4418  12.7462  17.8852   N.pl3     1 RES1   0.0000
    12 C1       8.1479  12.6266  17.4536   C.2       1 RES1   0.0000
    13 C2       8.6374  10.9107  18.8106   C.2       1 RES1   0.0000
    14 C3       9.7342  11.6931  18.7326   C.2       1 RES1   0.0000
    15 C4       6.2588  11.1293  18.1049   C.ar      1 RES1   0.0000
    16 C5       5.7493  10.1492  17.2399   C.ar      1 RES1   0.0000
    17 C6       4.3795   9.9213  17.3313   C.ar      1 RES1   0.0000
    18 H1       3.9843   9.2848  16.7810   H         1 RES1   0.0000
    19 C7       3.5944  10.6260  18.2270   C.ar      1 RES1   0.0000
    20 H2       2.6745  10.4944  18.2249   H         1 RES1   0.0000
    21 C8       4.1465  11.5207  19.1215   C.ar      1 RES1   0.0000
    22 H3       3.6020  11.9505  19.7423   H         1 RES1   0.0000
    23 C9       5.5173  11.7822  19.1007   C.ar      1 RES1   0.0000
    24 C10      6.6264   9.3297  16.2998   C.3       1 RES1   0.0000
    25 H4       7.5246   9.7230  16.3006   H         1 RES1   0.0000
    26 C11      6.1192   9.2982  14.8553   C.3       1 RES1   0.0000
    27 H5       5.2695   8.8517  14.8251   H         1 RES1   0.0000
    28 H6       6.7481   8.8250  14.3053   H         1 RES1   0.0000
    29 H7       6.0210  10.1962  14.5311   H         1 RES1   0.0000
    30 C12      6.7363   7.8854  16.8212   C.3       1 RES1   0.0000
    31 H8       7.3206   7.3822  16.2507   H         1 RES1   0.0000
    32 H9       5.8660   7.4805  16.8256   H         1 RES1   0.0000
    33 H10      7.0898   7.8920  17.7130   H         1 RES1   0.0000
    34 C13      6.1556  12.6269  20.1934   C.3       1 RES1   0.0000
    35 H11      7.0990  12.7519  19.9576   H         1 RES1   0.0000
    36 C14      5.5314  14.0147  20.3669   C.3       1 RES1   0.0000
    37 H12      4.5980  13.9231  20.5719   H         1 RES1   0.0000
    38 H13      5.6326  14.5145  19.5533   H         1 RES1   0.0000
    39 H14      5.9727  14.4779  21.0839   H         1 RES1   0.0000
    40 C15      6.1074  11.8822  21.5344   C.3       1 RES1   0.0000
    41 H15      6.6030  11.0625  21.4645   H         1 RES1   0.0000
    42 H16      5.1944  11.6856  21.7586   H         1 RES1   0.0000
    43 H17      6.4933  12.4320  22.2206   H         1 RES1   0.0000
    44 C16     10.3422  13.8560  17.6211   C.ar      1 RES1   0.0000
    45 C17     10.0924  15.0828  18.2640   C.ar      1 RES1   0.0000
    46 C18     10.9772  16.1288  18.0060   C.ar      1 RES1   0.0000
    47 H18     10.8255  16.9603  18.3929   H         1 RES1   0.0000
    48 C19     12.0813  15.9557  17.1834   C.ar      1 RES1   0.0000
    49 H19     12.6538  16.6687  17.0146   H         1 RES1   0.0000
    50 C20     12.3251  14.7253  16.6177   C.ar      1 RES1   0.0000
    51 H20     13.0820  14.6162  16.0879   H         1 RES1   0.0000
    52 C21     11.4722  13.6359  16.8114   C.ar      1 RES1   0.0000
    53 C22      8.9560  15.3042  19.2564   C.3       1 RES1   0.0000
    54 H21      8.2891  14.5995  19.1175   H         1 RES1   0.0000
    55 C23      8.2649  16.6604  19.0493   C.3       1 RES1   0.0000
    56 H22      7.4841  16.7120  19.6058   H         1 RES1   0.0000
    57 H23      8.0074  16.7520  18.1278   H         1 RES1   0.0000
    58 H24      8.8705  17.3685  19.2829   H         1 RES1   0.0000
    59 C24      9.4709  15.1943  20.6835   C.3       1 RES1   0.0000
    60 H25      9.7570  14.2930  20.8502   H         1 RES1   0.0000
    61 H26      8.7692  15.4259  21.2965   H         1 RES1   0.0000
    62 H27     10.2124  15.7924  20.8030   H         1 RES1   0.0000
    63 C25     11.8369  12.3095  16.1593   C.3       1 RES1   0.0000
    64 H28     11.1402  11.6539  16.3741   H         1 RES1   0.0000
    65 C26     11.9450  12.4270  14.6414   C.3       1 RES1   0.0000
    66 H29     11.1390  12.8135  14.2922   H         1 RES1   0.0000
    67 H30     12.0731  11.5557  14.2607   H         1 RES1   0.0000
    68 H31     12.6925  12.9868  14.4156   H         1 RES1   0.0000
    69 C27     13.1828  11.7956  16.7119   C.3       1 RES1   0.0000
    70 H32     13.1640  11.8189  17.6710   H         1 RES1   0.0000
    71 H33     13.8939  12.3537  16.3924   H         1 RES1   0.0000
    72 H34     13.3262  10.8926  16.4161   H         1 RES1   0.0000
    73 C28      4.3429  14.0069  14.9926   C.ar      1 RES1   0.0000
    74 C29      3.7576  14.9957  15.8099   C.ar      1 RES1   0.0000
    75 C30      2.7027  15.7641  15.2956   C.ar      1 RES1   0.0000
    76 H35      2.3623  16.4671  15.7991   H         1 RES1   0.0000
    77 C31      2.1631  15.4958  14.0551   C.ar      1 RES1   0.0000
    78 H36      1.4686  16.0190  13.7251   H         1 RES1   0.0000
    79 C32      2.6563  14.4462  13.3009   C.ar      1 RES1   0.0000
    80 H37      2.2543  14.2380  12.4886   H         1 RES1   0.0000
    81 C33      3.7478  13.6899  13.7406   C.ar      1 RES1   0.0000
    82 C34      4.1181  15.2309  17.2756   C.3       1 RES1   0.0000
    83 H38      4.8110  14.5862  17.5266   H         1 RES1   0.0000
    84 C35      2.8777  14.9710  18.1527   C.3       1 RES1   0.0000
    85 H39      2.5397  14.0897  17.9755   H         1 RES1   0.0000
    86 H40      2.2004  15.6208  17.9492   H         1 RES1   0.0000
    87 H41      3.1194  15.0410  19.0781   H         1 RES1   0.0000
    88 C36      4.6569  16.6287  17.5281   C.3       1 RES1   0.0000
    89 H42      5.5065  16.7270  17.0934   H         1 RES1   0.0000
    90 H43      4.7612  16.7654  18.4717   H         1 RES1   0.0000
    91 H44      4.0410  17.2768  17.1774   H         1 RES1   0.0000
    92 C37      4.1497  12.4720  12.9215   C.3       1 RES1   0.0000
    93 H45      5.1006  12.3004  13.0872   H         1 RES1   0.0000
    94 C38      3.3634  11.2491  13.4159   C.3       1 RES1   0.0000
    95 H46      3.5182  11.1275  14.3552   H         1 RES1   0.0000
    96 H47      3.6529  10.4677  12.9402   H         1 RES1   0.0000
    97 H48      2.4256  11.3890  13.2631   H         1 RES1   0.0000
    98 C39      3.9641  12.6469  11.4009   C.3       1 RES1   0.0000
    99 H49      3.0278  12.6752  11.1943   H         1 RES1   0.0000
   100 H50      4.3715  11.9089  10.9423   H         1 RES1   0.0000
   101 H51      4.3783  13.4666  11.1208   H         1 RES1   0.0000
   102 C40      6.7809  15.7208  14.4450   C.1       1 RES1   0.0000
   103 C41      7.2959  14.0589  12.6083   C.1       1 RES1   0.0000
   104 C42      9.3007  15.0087  14.3523   C.1       1 RES1   0.0000
   105 C43      8.4084  12.4680  14.3749   C.1       1 RES1   0.0000
   106 Cl3      9.2662   8.3015  11.2904   Cl        2 RES2   0.0000
   107 Cl4      7.3308  10.4826  11.3253   Cl        2 RES2   0.0000
   108 C44      9.0450  10.0512  11.2437   C.3       2 RES2   0.0000
   109 H52      9.4265  10.4028  10.4225   H         2 RES2   0.0000
   110 H53      9.5149  10.4561  11.9898   H         2 RES2   0.0000
   111 Cl5     -0.1536   9.8486  11.7459   Cl        3 RES3   0.0000
   112 Cl6      0.3964   7.8505   9.7024   Cl        3 RES3   0.0000
   113 C45      0.2065   8.1469  11.4201   C.3       3 RES3   0.0000
   114 H54      1.0217   7.8954  11.8822   H         3 RES3   0.0000
   115 H55     -0.5142   7.5938  11.7640   H         3 RES3   0.0000
   116 Cl7      1.2424  10.5237   7.2309   Cl        4 RES4   0.0000
   117 Cl8      2.1670  13.0999   8.2327   Cl        4 RES4   0.0000
   118 C46      1.2335  11.6173   8.6016   C.3       4 RES4   0.0000
   119 H56      1.6207  11.1741   9.3724   H         4 RES4   0.0000
   120 H57      0.3186  11.8555   8.8184   H         4 RES4   0.0000
   121 S1      10.4469  13.4853  10.6026   S.o2      5 RES5   0.0000
   122 F1      12.1219  14.8702  12.0783   F         5 RES5   0.0000
   123 F2      12.7798  14.5605  10.0573   F         5 RES5   0.0000
   124 F3      12.8687  12.9503  11.4781   F         5 RES5   0.0000
   125 O5       9.9342  12.9066  11.8257   O.3       5 RES5  -1.0000
   126 O6       9.8255  14.7156  10.1904   O.2       5 RES5   0.0000
   127 O7      10.6806  12.5270   9.5522   O.2       5 RES5   0.0000
   128 C47     12.1349  14.0031  11.0793   C.3       5 RES5   0.0000
@<TRIPOS>BOND
     1     1     4   un
     2     2    13    1
     3     3    14    1
     4     4     5    2
     5     5     1   un
     6     6   102    3
     7     7   103    3
     8     8   104    3
     9     9   105    3
    10    10    12    2
    11    11    12    1
    12    12     4    1
    13    13    10    1
    14    14    11    1
    15    15    10    1
    16    16    15   ar
    17    17    16   ar
    18    18    17    1
    19    19    17   ar
    20    20    19    1
    21    21    19   ar
    22    22    21    1
    23    23    15   ar
    24    24    16    1
    25    25    24    1
    26    26    24    1
    27    27    26    1
    28    28    26    1
    29    29    26    1
    30    30    24    1
    31    31    30    1
    32    32    30    1
    33    33    30    1
    34    34    23    1
    35    35    34    1
    36    36    34    1
    37    37    36    1
    38    38    36    1
    39    39    36    1
    40    40    34    1
    41    41    40    1
    42    42    40    1
    43    43    40    1
    44    44    11    1
    45    45    44   ar
    46    46    45   ar
    47    47    46    1
    48    48    46   ar
    49    49    48    1
    50    50    48   ar
    51    51    50    1
    52    52    44   ar
    53    53    45    1
    54    54    53    1
    55    55    53    1
    56    56    55    1
    57    57    55    1
    58    58    55    1
    59    59    53    1
    60    60    59    1
    61    61    59    1
    62    62    59    1
    63    63    52    1
    64    64    63    1
    65    65    63    1
    66    66    65    1
    67    67    65    1
    68    68    65    1
    69    69    63    1
    70    70    69    1
    71    71    69    1
    72    72    69    1
    73    73     5    1
    74    74    73   ar
    75    75    74   ar
    76    76    75    1
    77    77    75   ar
    78    78    77    1
    79    79    77   ar
    80    80    79    1
    81    81    73   ar
    82    82    74    1
    83    83    82    1
    84    84    82    1
    85    85    84    1
    86    86    84    1
    87    87    84    1
    88    88    82    1
    89    89    88    1
    90    90    88    1
    91    91    88    1
    92    92    81    1
    93    93    92    1
    94    94    92    1
    95    95    94    1
    96    96    94    1
    97    97    94    1
    98    98    92    1
    99    99    98    1
   100   100    98    1
   101   101    98    1
   102   102     1    1
   103   103     1    1
   104   104     1    1
   105   105     1    1
   106    13    14    2
   107    21    23   ar
   108    50    52   ar
   109    79    81   ar
   110   106   108    1
   111   107   108    1
   112   108   109    1
   113   110   108    1
   114   111   113    1
   115   112   113    1
   116   113   114    1
   117   115   113    1
   118   116   118    1
   119   117   118    1
   120   118   119    1
   121   120   118    1
   122   121   125    1
   123   122   128    1
   124   123   128    1
   125   124   128    1
   126   126   121    2
   127   127   121    2
   128   128   121    1
@<TRIPOS>SUBSTRUCTURE
     1 RES1        1 GROUP             0 ****  ****    0  
     2 RES2      106 GROUP             0 ****  ****    0  
     3 RES3      111 GROUP             0 ****  ****    0  
     4 RES4      116 GROUP             0 ****  ****    0  
     5 RES5      121 GROUP             0 ****  ****    0  
@<TRIPOS>CRYSIN
   12.8324   16.6604   26.3310   90.0000   94.4082   90.0000    14     1
