@<TRIPOS>MOLECULE
FOHNAS
   165   185     3     0     0
SMALL
USER_CHARGES
****
Generated from the CSD

@<TRIPOS>ATOM
     1 Fe1      1.5833   8.3352   6.9331   Fe        1 RES1   0.0000
     2 N1      -0.0478   8.9971   5.9846   N.2       1 RES1   0.0000
     3 N2       0.8520   6.4841   6.9240   N.2       1 RES1   0.0000
     4 C1      -1.1370   8.2475   5.5877   C.2       1 RES1   0.0000
     5 C2      -2.0951   9.0694   4.8965   C.2       1 RES1   0.0000
     6 H1      -2.9368   8.7920   4.5537   H         1 RES1   0.0000
     7 C3      -1.5634  10.3178   4.8287   C.2       1 RES1   0.0000
     8 H2      -1.9503  11.0754   4.4053   H         1 RES1   0.0000
     9 C4      -0.2975  10.2733   5.5217   C.2       1 RES1   0.0000
    10 C5       0.5579  11.3680   5.6710   C.2       1 RES1   0.0000
    11 C6       1.4089   5.3563   7.4792   C.2       1 RES1   0.0000
    12 C7       0.5976   4.1896   7.1920   C.2       1 RES1   0.0000
    13 H3       0.7760   3.2949   7.4559   H         1 RES1   0.0000
    14 C8      -0.4665   4.6254   6.4720   C.2       1 RES1   0.0000
    15 H4      -1.1714   4.0924   6.1234   H         1 RES1   0.0000
    16 C9      -0.3204   6.0568   6.3374   C.2       1 RES1   0.0000
    17 C10     -1.2784   6.8694   5.7393   C.2       1 RES1   0.0000
    18 C11      0.2324  12.6392   4.9596   C.ar      1 RES1   0.0000
    19 C12      1.1297  13.1180   3.9954   C.ar      1 RES1   0.0000
    20 H5       1.9515  12.6607   3.8590   H         1 RES1   0.0000
    21 C13      0.8449  14.2464   3.2339   C.ar      1 RES1   0.0000
    22 H6       1.4564  14.5366   2.5680   H         1 RES1   0.0000
    23 C14     -0.3365  14.9494   3.4481   C.ar      1 RES1   0.0000
    24 H7      -0.5415  15.7153   2.9244   H         1 RES1   0.0000
    25 C15     -1.2129  14.5176   4.4367   C.ar      1 RES1   0.0000
    26 H8      -2.0052  15.0116   4.6105   H         1 RES1   0.0000
    27 C16     -0.9412  13.3624   5.1793   C.ar      1 RES1   0.0000
    28 H9      -1.5599  13.0691   5.8377   H         1 RES1   0.0000
    29 C17     -2.5283   6.2156   5.2334   C.ar      1 RES1   0.0000
    30 C18     -2.5789   5.6605   3.9472   C.ar      1 RES1   0.0000
    31 H10     -1.8225   5.7275   3.3764   H         1 RES1   0.0000
    32 C19     -3.7285   5.0104   3.4961   C.ar      1 RES1   0.0000
    33 H11     -3.7561   4.6437   2.6207   H         1 RES1   0.0000
    34 C20     -4.8271   4.9020   4.3288   C.ar      1 RES1   0.0000
    35 H12     -5.6006   4.4364   4.0323   H         1 RES1   0.0000
    36 C21     -4.8040   5.4664   5.5883   C.ar      1 RES1   0.0000
    37 H13     -5.5682   5.4051   6.1497   H         1 RES1   0.0000
    38 C22     -3.6497   6.1325   6.0417   C.ar      1 RES1   0.0000
    39 H14     -3.6400   6.5269   6.9054   H         1 RES1   0.0000
    40 N3       2.4589   8.0038   5.1484   N.2       1 RES1   0.0000
    41 N4       2.8048   7.8639   2.9713   N.pl3     1 RES1   0.0000
    42 H15      2.6616   7.9251   2.1049   H         1 RES1   0.0000
    43 C23      1.9451   8.2221   3.9477   C.2       1 RES1   0.0000
    44 H16      1.0810   8.5856   3.7938   H         1 RES1   0.0000
    45 C24      3.9386   7.3889   3.5686   C.2       1 RES1   0.0000
    46 C25      3.7200   7.4869   4.9123   C.2       1 RES1   0.0000
    47 H17      4.3420   7.2366   5.5853   H         1 RES1   0.0000
    48 C26      5.0739   6.8456   2.7667   C.3       1 RES1   0.0000
    49 H18      5.9109   6.9666   3.2614   H         1 RES1   0.0000
    50 H19      5.1279   7.3226   1.9122   H         1 RES1   0.0000
    51 H20      4.9280   5.8909   2.5999   H         1 RES1   0.0000
    52 N1A      3.2143   7.6733   7.8817   N.2       1 RES1   0.0000
    53 N2A      2.3145  10.1862   6.9423   N.2       1 RES1   0.0000
    54 C1A      4.3035   8.4228   8.2786   C.2       1 RES1   0.0000
    55 C2A      5.2616   7.6010   8.9698   C.2       1 RES1   0.0000
    56 H1A      6.1033   7.8784   9.3126   H         1 RES1   0.0000
    57 C3A      4.7299   6.3526   9.0376   C.2       1 RES1   0.0000
    58 H2A      5.1168   5.5950   9.4610   H         1 RES1   0.0000
    59 C4A      3.4640   6.3971   8.3446   C.2       1 RES1   0.0000
    60 C5A      2.6086   5.3024   8.1953   C.2       1 RES1   0.0000
    61 C6A      1.7577  11.3141   6.3871   C.2       1 RES1   0.0000
    62 C7A      2.5689  12.4807   6.6743   C.2       1 RES1   0.0000
    63 H3A      2.3905  13.3755   6.4104   H         1 RES1   0.0000
    64 C8A      3.6330  12.0450   7.3943   C.2       1 RES1   0.0000
    65 H4A      4.3379  12.5779   7.7429   H         1 RES1   0.0000
    66 C9A      3.4870  10.6136   7.5288   C.2       1 RES1   0.0000
    67 C10A     4.4449   9.8010   8.1270   C.2       1 RES1   0.0000
    68 C11A     2.9341   4.0312   8.9067   C.ar      1 RES1   0.0000
    69 C12A     2.0368   3.5524   9.8709   C.ar      1 RES1   0.0000
    70 H5A      1.2150   4.0097  10.0073   H         1 RES1   0.0000
    71 C13A     2.3216   2.4240  10.6324   C.ar      1 RES1   0.0000
    72 H6A      1.7101   2.1338  11.2983   H         1 RES1   0.0000
    73 C14A     3.5030   1.7209  10.4182   C.ar      1 RES1   0.0000
    74 H7A      3.7080   0.9550  10.9419   H         1 RES1   0.0000
    75 C15A     4.3794   2.1527   9.4296   C.ar      1 RES1   0.0000
    76 H8A      5.1717   1.6588   9.2557   H         1 RES1   0.0000
    77 C16A     4.1077   3.3080   8.6870   C.ar      1 RES1   0.0000
    78 H9A      4.7264   3.6012   8.0286   H         1 RES1   0.0000
    79 C17A     5.6948  10.4548   8.6329   C.ar      1 RES1   0.0000
    80 C18A     5.7454  11.0098   9.9191   C.ar      1 RES1   0.0000
    81 H10A     4.9890  10.9429  10.4898   H         1 RES1   0.0000
    82 C19A     6.8950  11.6599  10.3702   C.ar      1 RES1   0.0000
    83 H11A     6.9226  12.0266  11.2456   H         1 RES1   0.0000
    84 C20A     7.9936  11.7684   9.5375   C.ar      1 RES1   0.0000
    85 H12A     8.7671  12.2340   9.8340   H         1 RES1   0.0000
    86 C21A     7.9705  11.2040   8.2780   C.ar      1 RES1   0.0000
    87 H13A     8.7347  11.2652   7.7166   H         1 RES1   0.0000
    88 C22A     6.8162  10.5379   7.8246   C.ar      1 RES1   0.0000
    89 H14A     6.8065  10.1434   6.9609   H         1 RES1   0.0000
    90 N3A      0.7076   8.6666   8.7179   N.2       1 RES1   0.0000
    91 N4A      0.3617   8.8065  10.8950   N.pl3     1 RES1   0.0000
    92 H15A     0.5049   8.7453  11.7614   H         1 RES1   0.0000
    93 C23A     1.2215   8.4483   9.9186   C.2       1 RES1   0.0000
    94 H16A     2.0855   8.0847  10.0725   H         1 RES1   0.0000
    95 C24A    -0.7721   9.2815  10.2977   C.2       1 RES1   0.0000
    96 C25A    -0.5535   9.1834   8.9540   C.2       1 RES1   0.0000
    97 H17A    -1.1755   9.4337   8.2809   H         1 RES1   0.0000
    98 C26A    -1.9073   9.8248  11.0995   C.3       1 RES1   0.0000
    99 H18A    -2.7444   9.7037  10.6049   H         1 RES1   0.0000
   100 H19A    -1.9614   9.3477  11.9541   H         1 RES1   0.0000
   101 H20A    -1.7615  10.7795  11.2664   H         1 RES1   0.0000
   102 Cl1      3.1295   8.2190  -0.1933   Cl        2 RES2  -1.0000
   103 K1       3.8544   1.9744   1.7150   K         3 RES3   1.0000
   104 N5       5.3252   0.1491   3.6979   N.3       3 RES3   0.0000
   105 N6       2.4251   3.7153  -0.2783   N.3       3 RES3   0.0000
   106 O1       6.6839   2.0117   1.9047   O.3       3 RES3   0.0000
   107 O2       5.3659   3.4094  -0.2138   O.3       3 RES3   0.0000
   108 O3       2.4608   4.2480   2.5786   O.3       3 RES3   0.0000
   109 O4       3.5376   2.4031   4.4344   O.3       3 RES3   0.0000
   110 O5       3.3788  -0.8251   1.8041   O.3       3 RES3   0.0000
   111 O6       1.7977   0.8360   0.1599   O.3       3 RES3   0.0000
   112 C27      6.7471   0.5018   3.7418   C.3       3 RES3   0.0000
   113 H21      7.2551  -0.2553   4.1280   H         3 RES3   0.0000
   114 H22      6.8679   1.2838   4.3374   H         3 RES3   0.0000
   115 C28      7.3112   0.8292   2.3800   C.3       3 RES3   0.0000
   116 H23      8.2897   0.9669   2.4432   H         3 RES3   0.0000
   117 H24      7.1418   0.0813   1.7541   H         3 RES3   0.0000
   118 C29      7.3529   2.5216   0.7550   C.3       3 RES3   0.0000
   119 H25      7.3501   1.8411   0.0361   H         3 RES3   0.0000
   120 H26      8.2938   2.7326   0.9803   H         3 RES3   0.0000
   121 C30      6.6547   3.7557   0.2877   C.3       3 RES3   0.0000
   122 H27      6.5619   4.3938   1.0400   H         3 RES3   0.0000
   123 H28      7.1861   4.1925  -0.4243   H         3 RES3   0.0000
   124 C31      4.7172   4.5295  -0.8198   C.3       3 RES3   0.0000
   125 H29      5.2692   4.8777  -1.5641   H         3 RES3   0.0000
   126 H30      4.6010   5.2526  -0.1539   H         3 RES3   0.0000
   127 C32      3.3708   4.0881  -1.3409   C.3       3 RES3   0.0000
   128 H31      2.9782   4.8225  -1.8761   H         3 RES3   0.0000
   129 H32      3.4989   3.3117  -1.9427   H         3 RES3   0.0000
   130 C33      1.8974   4.9344   0.3607   C.3       3 RES3   0.0000
   131 H33      1.1637   5.2975  -0.1969   H         3 RES3   0.0000
   132 H34      2.6151   5.6157   0.3952   H         3 RES3   0.0000
   133 C34      1.3795   4.6986   1.7576   C.3       3 RES3   0.0000
   134 H35      1.0043   5.5375   2.1243   H         3 RES3   0.0000
   135 H36      0.6608   4.0168   1.7402   H         3 RES3   0.0000
   136 C35      2.1223   4.2719   3.9592   C.3       3 RES3   0.0000
   137 H37      1.3340   3.6954   4.1224   H         3 RES3   0.0000
   138 H38      1.8944   5.1952   4.2348   H         3 RES3   0.0000
   139 C36      3.2924   3.7754   4.7541   C.3       3 RES3   0.0000
   140 H39      4.0944   4.3164   4.5440   H         3 RES3   0.0000
   141 H40      3.1032   3.8654   5.7212   H         3 RES3   0.0000
   142 C37      4.4740   1.8351   5.3360   C.3       3 RES3   0.0000
   143 H41      4.1344   1.9154   6.2620   H         3 RES3   0.0000
   144 H42      5.3315   2.3252   5.2775   H         3 RES3   0.0000
   145 C38      4.6976   0.3773   5.0012   C.3       3 RES3   0.0000
   146 H43      5.2684  -0.0260   5.7032   H         3 RES3   0.0000
   147 H44      3.8251  -0.0899   5.0196   H         3 RES3   0.0000
   148 C39      5.1787  -1.2578   3.3067   C.3       3 RES3   0.0000
   149 H45      5.4562  -1.8297   4.0656   H         3 RES3   0.0000
   150 H46      5.7914  -1.4435   2.5514   H         3 RES3   0.0000
   151 C40      3.7776  -1.6385   2.8999   C.3       3 RES3   0.0000
   152 H47      3.7505  -2.5929   2.6388   H         3 RES3   0.0000
   153 H48      3.1577  -1.5065   3.6607   H         3 RES3   0.0000
   154 C41      2.1196  -1.2462   1.2872   C.3       3 RES3   0.0000
   155 H49      1.4003  -1.0134   1.9260   H         3 RES3   0.0000
   156 H50      2.1190  -2.2291   1.1662   H         3 RES3   0.0000
   157 C42      1.8678  -0.5756  -0.0219   C.3       3 RES3   0.0000
   158 H51      2.5975  -0.7945  -0.6545   H         3 RES3   0.0000
   159 H52      1.0173  -0.9049  -0.4063   H         3 RES3   0.0000
   160 C43      1.6517   1.4947  -1.0961   C.3       3 RES3   0.0000
   161 H53      0.9305   1.0640  -1.6210   H         3 RES3   0.0000
   162 H54      2.4935   1.4269  -1.6126   H         3 RES3   0.0000
   163 C44      1.3139   2.9474  -0.8521   C.3       3 RES3   0.0000
   164 H55      1.0460   3.3632  -1.7097   H         3 RES3   0.0000
   165 H56      0.5392   2.9977  -0.2385   H         3 RES3   0.0000
@<TRIPOS>BOND
     1     1     2    1
     2     2     4    1
     3     3     1    1
     4     4     5    1
     5     5     6    1
     6     7     5    2
     7     8     7    1
     8     9     2    1
     9    10     9    2
    10    11     3    1
    11    12    11    1
    12    13    12    1
    13    14    12    2
    14    15    14    1
    15    16     3    2
    16    17     4    2
    17    18    10    1
    18    19    18   ar
    19    20    19    1
    20    21    19   ar
    21    22    21    1
    22    23    21   ar
    23    24    23    1
    24    25    23   ar
    25    26    25    1
    26    27    18   ar
    27    28    27    1
    28    29    17    1
    29    30    29   ar
    30    31    30    1
    31    32    30   ar
    32    33    32    1
    33    34    32   ar
    34    35    34    1
    35    36    34   ar
    36    37    36    1
    37    38    29   ar
    38    39    38    1
    39    40     1    1
    40    41    42    1
    41    43    40    2
    42    44    43    1
    43    45    41    1
    44    46    40    1
    45    47    46    1
    46    48    45    1
    47    49    48    1
    48    50    48    1
    49    51    48    1
    50    52     1    1
    51    53     1    1
    52    54    52    1
    53    55    54    2
    54    56    55    1
    55    57    55    1
    56    58    57    1
    57    59    52    1
    58    60    11    2
    59    61    10    1
    60    62    61    1
    61    63    62    1
    62    64    62    2
    63    65    64    1
    64    66    53    1
    65    67    54    1
    66    68    60    1
    67    69    68   ar
    68    70    69    1
    69    71    69   ar
    70    72    71    1
    71    73    71   ar
    72    74    73    1
    73    75    73   ar
    74    76    75    1
    75    77    68   ar
    76    78    77    1
    77    79    67    1
    78    80    79   ar
    79    81    80    1
    80    82    80   ar
    81    83    82    1
    82    84    82   ar
    83    85    84    1
    84    86    84   ar
    85    87    86    1
    86    88    79   ar
    87    89    88    1
    88    90     1    1
    89    91    92    1
    90    93    90    2
    91    94    93    1
    92    95    91    1
    93    96    90    1
    94    97    96    1
    95    98    95    1
    96    99    98    1
    97   100    98    1
    98   101    98    1
    99     7     9    1
   100    14    16    1
   101    16    17    1
   102    25    27   ar
   103    36    38   ar
   104    41    43    1
   105    45    46    2
   106    53    61    2
   107    57    59    2
   108    59    60    1
   109    64    66    1
   110    66    67    2
   111    75    77   ar
   112    86    88   ar
   113    91    93    1
   114    95    96    2
   115   103   104    1
   116   104   112    1
   117   105   103    1
   118   106   103    1
   119   107   103    1
   120   108   103    1
   121   109   103    1
   122   110   103    1
   123   111   103    1
   124   112   113    1
   125   114   112    1
   126   115   106    1
   127   116   115    1
   128   117   115    1
   129   118   106    1
   130   119   118    1
   131   120   118    1
   132   121   107    1
   133   122   121    1
   134   123   121    1
   135   124   107    1
   136   125   124    1
   137   126   124    1
   138   127   105    1
   139   128   127    1
   140   129   127    1
   141   130   105    1
   142   131   130    1
   143   132   130    1
   144   133   108    1
   145   134   133    1
   146   135   133    1
   147   136   108    1
   148   137   136    1
   149   138   136    1
   150   139   109    1
   151   140   139    1
   152   141   139    1
   153   142   109    1
   154   143   142    1
   155   144   142    1
   156   145   104    1
   157   146   145    1
   158   147   145    1
   159   148   104    1
   160   149   148    1
   161   150   148    1
   162   151   110    1
   163   152   151    1
   164   153   151    1
   165   154   110    1
   166   155   154    1
   167   156   154    1
   168   157   111    1
   169   158   157    1
   170   159   157    1
   171   160   111    1
   172   161   160    1
   173   162   160    1
   174   163   105    1
   175   164   163    1
   176   165   163    1
   177   112   115    1
   178   118   121    1
   179   124   127    1
   180   130   133    1
   181   136   139    1
   182   142   145    1
   183   148   151    1
   184   154   157    1
   185   160   163    1
@<TRIPOS>SUBSTRUCTURE
     1 RES1        1 GROUP             0 ****  ****    0  
     2 RES2      102 GROUP             0 ****  ****    0  
     3 RES3      103 GROUP             0 ****  ****    0  
@<TRIPOS>CRYSIN
   12.4441   12.7433   14.5723   73.5040   81.8360   85.0610     2     1
