@<TRIPOS>MOLECULE
FOJTAC07
   113   113     4     0     0
SMALL
USER_CHARGES
****
Generated from the CSD

@<TRIPOS>ATOM
     1 Fe1      8.4061  11.2331   5.1719   Fe        1 RES1   2.0000
     2 N1       7.7056   7.3556   4.2591   N.pl3     1 RES1   0.0000
     3 N2       8.0769   9.4469   4.3560   N.2       1 RES1   0.0000
     4 N3       7.9055   8.3719   5.1098   N.2       1 RES1   0.0000
     5 C1       7.4611   6.0090   4.7883   C.3       1 RES1   0.0000
     6 H1       7.7532   5.9748   5.7337   H         1 RES1   0.0000
     7 H2       8.0054   5.3574   4.2791   H         1 RES1   0.0000
     8 C2       5.9949   5.6058   4.7053   C.3       1 RES1   0.0000
     9 H3       5.6782   5.7259   3.7750   H         1 RES1   0.0000
    10 H4       5.9095   4.6462   4.9332   H         1 RES1   0.0000
    11 C3       7.9859   9.1046   3.0443   C.2       1 RES1   0.0000
    12 H5       8.0708   9.6983   2.3074   H         1 RES1   0.0000
    13 C4       7.7501   7.7542   2.9653   C.2       1 RES1   0.0000
    14 C5       7.5888   6.8139   1.8118   C.3       1 RES1   0.0000
    15 H6       6.6249   6.7257   1.6017   H         1 RES1   0.0000
    16 H7       7.9226   5.9204   2.0761   H         1 RES1   0.0000
    17 C6       8.3259   7.2674   0.5639   C.3       1 RES1   0.0000
    18 H8       8.0066   8.1554   0.3005   H         1 RES1   0.0000
    19 H9       8.1589   6.6312  -0.1629   H         1 RES1   0.0000
    20 H10      9.2872   7.3068   0.7491   H         1 RES1   0.0000
    21 N4      10.9436  12.0424   2.0972   N.pl3     1 RES1   0.0000
    22 N5       9.7685  11.6206   2.5952   N.2       1 RES1   0.0000
    23 N6       9.9197  11.5986   3.9110   N.2       1 RES1   0.0000
    24 C7      11.0959  12.2206   0.6442   C.3       1 RES1   0.0000
    25 H11     11.5301  13.0937   0.4732   H         1 RES1   0.0000
    26 H12     10.1974  12.2451   0.2293   H         1 RES1   0.0000
    27 C8      11.9166  11.1243  -0.0234   C.3       1 RES1   0.0000
    28 H13     12.7962  11.0616   0.4258   H         1 RES1   0.0000
    29 H14     12.0763  11.3721  -0.9685   H         1 RES1   0.0000
    30 C9      11.1752  12.0026   4.2347   C.2       1 RES1   0.0000
    31 H15     11.5287  12.0694   5.1139   H         1 RES1   0.0000
    32 C10     11.8460  12.2977   3.0740   C.2       1 RES1   0.0000
    33 C11     13.1992  12.8725   2.8154   C.3       1 RES1   0.0000
    34 H16     13.0987  13.7639   2.3977   H         1 RES1   0.0000
    35 H17     13.6820  12.2900   2.1763   H         1 RES1   0.0000
    36 C12     14.0228  13.0066   4.0884   C.3       1 RES1   0.0000
    37 H18     13.4997  13.4825   4.7669   H         1 RES1   0.0000
    38 H19     14.8419  13.5086   3.8958   H         1 RES1   0.0000
    39 H20     14.2564  12.1153   4.4219   H         1 RES1   0.0000
    40 N7       7.1638  12.0190   3.9224   N.1       1 RES1   0.0000
    41 C13      6.4263  12.4674   3.1757   C.1       1 RES1   0.0000
    42 C14      5.4761  13.0484   2.2384   C.3       1 RES1   0.0000
    43 H21      4.7197  12.4370   2.1191   H         1 RES1   0.0000
    44 H22      5.9167  13.1959   1.3760   H         1 RES1   0.0000
    45 H23      5.1521  13.9039   2.5906   H         1 RES1   0.0000
    46 N1A      3.4031   4.6685   6.0846   N.pl3     1 RES1   0.0000
    47 N2A      3.0318   2.5772   5.9878   N.2       1 RES1   0.0000
    48 N3A      3.2032   3.6522   5.2339   N.2       1 RES1   0.0000
    49 C1A      3.6476   6.0150   5.5554   C.3       1 RES1   0.0000
    50 H1A      3.3555   6.0492   4.6101   H         1 RES1   0.0000
    51 H2A      3.1033   6.6667   6.0646   H         1 RES1   0.0000
    52 C2A      5.1139   6.4183   5.6385   C.3       1 RES1   0.0000
    53 H3A      5.4305   6.2982   6.5688   H         1 RES1   0.0000
    54 H4A      5.1993   7.3779   5.4106   H         1 RES1   0.0000
    55 C3A      3.1229   2.9194   7.2995   C.2       1 RES1   0.0000
    56 H5A      3.0380   2.3258   8.0363   H         1 RES1   0.0000
    57 C4A      3.3587   4.2699   7.3784   C.2       1 RES1   0.0000
    58 C5A      3.5199   5.2102   8.5319   C.3       1 RES1   0.0000
    59 H6A      4.4839   5.2983   8.7420   H         1 RES1   0.0000
    60 H7A      3.1861   6.1037   8.2676   H         1 RES1   0.0000
    61 C6A      2.7829   4.7567   9.7798   C.3       1 RES1   0.0000
    62 H8A      3.1021   3.8687  10.0432   H         1 RES1   0.0000
    63 H9A      2.9498   5.3928  10.5067   H         1 RES1   0.0000
    64 H10A     1.8216   4.7172   9.5947   H         1 RES1   0.0000
    65 N4A     12.2098   8.8420  -2.0972   N.pl3     1 RES1   0.0000
    66 N5A     13.3849   9.2638  -2.5952   N.2       1 RES1   0.0000
    67 N6A     13.2337   9.2859  -3.9110   N.2       1 RES1   0.0000
    68 C7A     12.0574   8.6639  -0.6442   C.3       1 RES1   0.0000
    69 H11A    11.6232   7.7907  -0.4732   H         1 RES1   0.0000
    70 H12A    12.9559   8.6394  -0.2293   H         1 RES1   0.0000
    71 C8A     11.2367   9.7602   0.0234   C.3       1 RES1   0.0000
    72 H13A    10.3571   9.8229  -0.4258   H         1 RES1   0.0000
    73 H14A    11.0770   9.5124   0.9685   H         1 RES1   0.0000
    74 C9A     11.9781   8.8819  -4.2347   C.2       1 RES1   0.0000
    75 H15A    11.6246   8.8150  -5.1139   H         1 RES1   0.0000
    76 C10A    11.3073   8.5868  -3.0740   C.2       1 RES1   0.0000
    77 C11A     9.9541   8.0120  -2.8154   C.3       1 RES1   0.0000
    78 H16A    10.0546   7.1205  -2.3977   H         1 RES1   0.0000
    79 H17A     9.4714   8.5944  -2.1763   H         1 RES1   0.0000
    80 C12A     9.1305   7.8779  -4.0884   C.3       1 RES1   0.0000
    81 H18A     9.6537   7.4020  -4.7669   H         1 RES1   0.0000
    82 H19A     8.3114   7.3758  -3.8958   H         1 RES1   0.0000
    83 H20A     8.8969   8.7692  -4.4219   H         1 RES1   0.0000
    84 N7A      9.6483  10.4472   6.4213   N.1       1 RES1   0.0000
    85 C13A    10.3859   9.9989   7.1680   C.1       1 RES1   0.0000
    86 C14A    11.3361   9.4179   8.1053   C.3       1 RES1   0.0000
    87 H21A    12.0925  10.0293   8.2246   H         1 RES1   0.0000
    88 H22A    10.8954   9.2703   8.9677   H         1 RES1   0.0000
    89 H23A    11.6601   8.5624   7.7532   H         1 RES1   0.0000
    90 Fe1      2.7026   0.7909   5.1719   Fe        1 RES1   2.0000
    91 Fe1     14.7472   9.6513  -5.1719   Fe        1 RES1   2.0000
    92 N2A      8.7353  13.0194   5.9878   N.3       1 RES1   0.0000
    93 N6A      6.8925  10.8677   6.4328   N.3       1 RES1   0.0000
    94 S1      15.1821   9.2089   2.5297   S.o2      2 RES2   0.0000
    95 C15     15.8633   9.0872   0.8492   C.3       2 RES2   0.0000
    96 F1      15.3893   8.0132   0.2083   F         2 RES2   0.0000
    97 F2      17.1925   9.0192   0.8496   F         2 RES2   0.0000
    98 F3      15.5325  10.1477   0.1124   F         2 RES2   0.0000
    99 O1      15.8357  10.3645   3.0665   O.3       2 RES2  -1.0000
   100 O2      15.5847   7.9709   3.1230   O.2       2 RES2   0.0000
   101 O3      13.7811   9.3615   2.2807   O.2       2 RES2   0.0000
   102 C16      3.6321   5.0364   1.5847   C.1       3 RES3   0.0000
   103 N8       4.7035   4.8964   1.1678   N.1       3 RES3   0.0000
   104 C17      2.2914   5.2199   2.0884   C.3       3 RES3   0.0000
   105 H24      2.2041   6.1226   2.4608   H         3 RES3   0.0000
   106 H25      2.1122   4.5589   2.7888   H         3 RES3   0.0000
   107 H26      1.6492   5.1048   1.3574   H         3 RES3   0.0000
   108 N9      10.6834   5.7886   3.3214   N.1       4 RES4   0.0000
   109 C18     11.0062   6.8260   3.6596   C.1       4 RES4   0.0000
   110 C19     11.4200   8.1502   4.1106   C.3       4 RES4   0.0000
   111 H27     10.6525   8.7590   4.0856   H         4 RES4   0.0000
   112 H28     12.1258   8.4904   3.5216   H         4 RES4   0.0000
   113 H29     11.7607   8.0919   5.0279   H         4 RES4   0.0000
@<TRIPOS>BOND
     1     1     3    1
     2     2     4    1
     3     3     4    2
     4     5     2    1
     5     6     5    1
     6     7     5    1
     7     8     5    1
     8     9     8    1
     9    10     8    1
    10    11     3    1
    11    12    11    1
    12    13     2    1
    13    14    13    1
    14    15    14    1
    15    16    14    1
    16    17    14    1
    17    18    17    1
    18    19    17    1
    19    20    17    1
    20    21    22    1
    21    22    23    2
    22    23     1    1
    23    24    21    1
    24    25    24    1
    25    26    24    1
    26    27    24    1
    27    28    27    1
    28    29    27    1
    29    30    23    1
    30    31    30    1
    31    32    21    1
    32    33    32    1
    33    34    33    1
    34    35    33    1
    35    36    33    1
    36    37    36    1
    37    38    36    1
    38    39    36    1
    39    40     1    1
    40    41    40    3
    41    42    41    1
    42    43    42    1
    43    44    42    1
    44    45    42    1
    45    46    48    1
    46    47    48    2
    47    49    46    1
    48    50    49    1
    49    51    49    1
    50    52     8    1
    51    53    52    1
    52    54    52    1
    53    55    47    1
    54    56    55    1
    55    57    46    1
    56    58    57    1
    57    59    58    1
    58    60    58    1
    59    61    58    1
    60    62    61    1
    61    63    61    1
    62    64    61    1
    63    65    66    1
    64    66    67    2
    65    67    74    1
    66    68    65    1
    67    69    68    1
    68    70    68    1
    69    71    27    1
    70    72    71    1
    71    73    71    1
    72    74    75    1
    73    76    65    1
    74    77    76    1
    75    78    77    1
    76    79    77    1
    77    80    77    1
    78    81    80    1
    79    82    80    1
    80    83    80    1
    81    84     1    1
    82    85    84    3
    83    86    85    1
    84    87    86    1
    85    88    86    1
    86    89    86    1
    87    90    47   un
    88    91    67   un
    89    92     1   un
    90    93     1   un
    91    11    13    2
    92    30    32    2
    93    49    52    1
    94    55    57    2
    95    68    71    1
    96    74    76    2
    97    94    95    1
    98    95    96    1
    99    97    95    1
   100    98    95    1
   101    99    94    1
   102   100    94    2
   103   101    94    2
   104   102   103    3
   105   104   102    1
   106   105   104    1
   107   106   104    1
   108   107   104    1
   109   108   109    3
   110   109   110    1
   111   110   111    1
   112   112   110    1
   113   113   110    1
@<TRIPOS>SUBSTRUCTURE
     1 RES1        1 GROUP             0 ****  ****    0  
     2 RES2       94 GROUP             0 ****  ****    0  
     3 RES3      102 GROUP             0 ****  ****    0  
     4 RES4      108 GROUP             0 ****  ****    0  
@<TRIPOS>CRYSIN
   11.7464   11.8983   11.7776   70.2530   62.6810   61.3570     2     1
