@<TRIPOS>MOLECULE
FOJTAC03
   113   113     4     0     0
SMALL
USER_CHARGES
****
Generated from the CSD

@<TRIPOS>ATOM
     1 Fe1      8.4998  11.3230   5.2199   Fe        1 RES1   2.0000
     2 N1       7.7742   7.3890   4.2828   N.pl3     1 RES1   0.0000
     3 N2       8.1518   9.4768   4.3726   N.2       1 RES1   0.0000
     4 N3       7.9591   8.4108   5.1253   N.2       1 RES1   0.0000
     5 C1       7.5116   6.0492   4.8180   C.3       1 RES1   0.0000
     6 H1       7.8127   6.0131   5.7601   H         1 RES1   0.0000
     7 H2       8.0411   5.3877   4.3054   H         1 RES1   0.0000
     8 C2       6.0425   5.6663   4.7512   C.3       1 RES1   0.0000
     9 H3       5.9482   4.7096   4.9857   H         1 RES1   0.0000
    10 H4       5.7206   5.7849   3.8231   H         1 RES1   0.0000
    11 C3       8.0864   9.1223   3.0610   C.2       1 RES1   0.0000
    12 H5       8.1892   9.7108   2.3225   H         1 RES1   0.0000
    13 C4       7.8508   7.7785   2.9837   C.2       1 RES1   0.0000
    14 C5       7.7049   6.8346   1.8343   C.3       1 RES1   0.0000
    15 H6       6.7435   6.7388   1.6182   H         1 RES1   0.0000
    16 H7       8.0434   5.9448   2.1048   H         1 RES1   0.0000
    17 C6       8.4419   7.2819   0.5940   C.3       1 RES1   0.0000
    18 H8       8.1297   8.1727   0.3318   H         1 RES1   0.0000
    19 H9       8.2709   6.6481  -0.1337   H         1 RES1   0.0000
    20 H10      9.4037   7.3141   0.7797   H         1 RES1   0.0000
    21 N4      11.0948  12.1126   2.0929   N.pl3     1 RES1   0.0000
    22 N5       9.9202  11.6868   2.5952   N.2       1 RES1   0.0000
    23 N6      10.0683  11.6780   3.9100   N.2       1 RES1   0.0000
    24 C7      11.2460  12.2720   0.6337   C.3       1 RES1   0.0000
    25 H11     11.6938  13.1364   0.4520   H         1 RES1   0.0000
    26 H12     10.3469  12.3069   0.2213   H         1 RES1   0.0000
    27 C8      12.0471  11.1560  -0.0282   C.3       1 RES1   0.0000
    28 H13     12.2100  11.3942  -0.9749   H         1 RES1   0.0000
    29 H14     12.9270  11.0820   0.4203   H         1 RES1   0.0000
    30 C9      11.3245  12.0913   4.2281   C.2       1 RES1   0.0000
    31 H15     11.6783  12.1671   5.1065   H         1 RES1   0.0000
    32 C10     11.9925  12.3797   3.0693   C.2       1 RES1   0.0000
    33 C11     13.3466  12.9522   2.8094   C.3       1 RES1   0.0000
    34 H16     13.2495  13.8468   2.3977   H         1 RES1   0.0000
    35 H17     13.8289  12.3720   2.1682   H         1 RES1   0.0000
    36 C12     14.1656  13.0750   4.0872   C.3       1 RES1   0.0000
    37 H18     13.6372  13.5393   4.7693   H         1 RES1   0.0000
    38 H19     14.9824  13.5830   3.9034   H         1 RES1   0.0000
    39 H20     14.4020  12.1803   4.4099   H         1 RES1   0.0000
    40 N7       7.2071  12.1443   3.9026   N.1       1 RES1   0.0000
    41 C13      6.4688  12.5731   3.1507   C.1       1 RES1   0.0000
    42 C14      5.5223  13.1251   2.1965   C.3       1 RES1   0.0000
    43 H21      4.7854  12.4937   2.0637   H         1 RES1   0.0000
    44 H22      5.9754  13.2832   1.3415   H         1 RES1   0.0000
    45 H23      5.1693  13.9725   2.5399   H         1 RES1   0.0000
    46 N1A      3.4452   4.7738   6.1570   N.pl3     1 RES1   0.0000
    47 N2A      3.0676   2.6860   6.0672   N.2       1 RES1   0.0000
    48 N3A      3.2603   3.7519   5.3145   N.2       1 RES1   0.0000
    49 C1A      3.7078   6.1135   5.6219   C.3       1 RES1   0.0000
    50 H1A      3.4067   6.1496   4.6797   H         1 RES1   0.0000
    51 H2A      3.1782   6.7751   6.1345   H         1 RES1   0.0000
    52 C2A      5.1769   6.4964   5.6887   C.3       1 RES1   0.0000
    53 H3A      5.2712   7.4531   5.4542   H         1 RES1   0.0000
    54 H4A      5.4988   6.3779   6.6167   H         1 RES1   0.0000
    55 C3A      3.1330   3.0405   7.3789   C.2       1 RES1   0.0000
    56 H5A      3.0302   2.4519   8.1174   H         1 RES1   0.0000
    57 C4A      3.3686   4.3843   7.4561   C.2       1 RES1   0.0000
    58 C5A      3.5145   5.3282   8.6056   C.3       1 RES1   0.0000
    59 H6A      4.4759   5.4239   8.8216   H         1 RES1   0.0000
    60 H7A      3.1760   6.2179   8.3350   H         1 RES1   0.0000
    61 C6A      2.7775   4.8809   9.8458   C.3       1 RES1   0.0000
    62 H8A      3.0897   3.9900  10.1081   H         1 RES1   0.0000
    63 H9A      2.9485   5.5147  10.5735   H         1 RES1   0.0000
    64 H10A     1.8157   4.8487   9.6601   H         1 RES1   0.0000
    65 N4A     12.3057   8.8540  -2.0929   N.pl3     1 RES1   0.0000
    66 N5A     13.4803   9.2798  -2.5952   N.2       1 RES1   0.0000
    67 N6A     13.3322   9.2886  -3.9100   N.2       1 RES1   0.0000
    68 C7A     12.1545   8.6946  -0.6337   C.3       1 RES1   0.0000
    69 H11A    11.7068   7.8301  -0.4520   H         1 RES1   0.0000
    70 H12A    13.0536   8.6596  -0.2213   H         1 RES1   0.0000
    71 C8A     11.3534   9.8106   0.0282   C.3       1 RES1   0.0000
    72 H13A    11.1905   9.5724   0.9749   H         1 RES1   0.0000
    73 H14A    10.4735   9.8845  -0.4203   H         1 RES1   0.0000
    74 C9A     12.0761   8.8752  -4.2281   C.2       1 RES1   0.0000
    75 H15A    11.7222   8.7994  -5.1065   H         1 RES1   0.0000
    76 C10A    11.4081   8.5869  -3.0693   C.2       1 RES1   0.0000
    77 C11A    10.0539   8.0144  -2.8094   C.3       1 RES1   0.0000
    78 H16A    10.1510   7.1198  -2.3977   H         1 RES1   0.0000
    79 H17A     9.5717   8.5946  -2.1682   H         1 RES1   0.0000
    80 C12A     9.2349   7.8916  -4.0872   C.3       1 RES1   0.0000
    81 H18A     9.7633   7.4272  -4.7693   H         1 RES1   0.0000
    82 H19A     8.4181   7.3835  -3.9034   H         1 RES1   0.0000
    83 H20A     8.9985   8.7863  -4.4099   H         1 RES1   0.0000
    84 N7A      9.7925  10.5017   6.5372   N.1       1 RES1   0.0000
    85 C13A    10.5308  10.0729   7.2891   C.1       1 RES1   0.0000
    86 C14A    11.4772   9.5209   8.2433   C.3       1 RES1   0.0000
    87 H21A    12.2142  10.1523   8.3761   H         1 RES1   0.0000
    88 H22A    11.0242   9.3628   9.0983   H         1 RES1   0.0000
    89 H23A    11.8302   8.6735   7.8999   H         1 RES1   0.0000
    90 Fe1      2.7196   0.8397   5.2199   Fe        1 RES1   2.0000
    91 Fe1     14.9008   9.6436  -5.2199   Fe        1 RES1   2.0000
    92 N2A      8.8478  13.1692   6.0672   N.3       1 RES1   0.0000
    93 N6A      6.9313  10.9681   6.5298   N.3       1 RES1   0.0000
    94 S1      15.3281   9.2716   2.5650   S.o2      2 RES2   0.0000
    95 C15     16.0125   9.1494   0.8905   C.3       2 RES2   0.0000
    96 F1      15.5186   8.0894   0.2384   F         2 RES2   0.0000
    97 F2      17.3335   9.0548   0.8950   F         2 RES2   0.0000
    98 F3      15.7108  10.2094   0.1619   F         2 RES2   0.0000
    99 O1      16.0071  10.4039   3.1125   O.3       2 RES2  -1.0000
   100 O2      15.6932   8.0341   3.1548   O.2       2 RES2   0.0000
   101 O3      13.9383   9.4631   2.3124   O.2       2 RES2   0.0000
   102 C16      3.7887   5.0445   1.5441   C.1       3 RES3   0.0000
   103 N8       4.8633   4.9578   1.0701   N.1       3 RES3   0.0000
   104 C17      2.4425   5.1882   2.0921   C.3       3 RES3   0.0000
   105 H24      2.3612   6.0589   2.5348   H         3 RES3   0.0000
   106 H25      2.2767   4.4743   2.7423   H         3 RES3   0.0000
   107 H26      1.7862   5.1285   1.3666   H         3 RES3   0.0000
   108 N9      10.8158   5.8378   3.3668   N.1       4 RES4   0.0000
   109 C18     11.1482   6.8775   3.6915   C.1       4 RES4   0.0000
   110 C19     11.5567   8.2030   4.1237   C.3       4 RES4   0.0000
   111 H27     10.7971   8.8176   4.0557   H         4 RES4   0.0000
   112 H28     12.2876   8.5215   3.5540   H         4 RES4   0.0000
   113 H29     11.8623   8.1628   5.0545   H         4 RES4   0.0000
@<TRIPOS>BOND
     1     1     3    1
     2     2     4    1
     3     3     4    2
     4     5     2    1
     5     6     5    1
     6     7     5    1
     7     8     5    1
     8     9     8    1
     9    10     8    1
    10    11     3    1
    11    12    11    1
    12    13     2    1
    13    14    13    1
    14    15    14    1
    15    16    14    1
    16    17    14    1
    17    18    17    1
    18    19    17    1
    19    20    17    1
    20    21    22    1
    21    22    23    2
    22    23     1    1
    23    24    21    1
    24    25    24    1
    25    26    24    1
    26    27    24    1
    27    28    27    1
    28    29    27    1
    29    30    23    1
    30    31    30    1
    31    32    21    1
    32    33    32    1
    33    34    33    1
    34    35    33    1
    35    36    33    1
    36    37    36    1
    37    38    36    1
    38    39    36    1
    39    40     1    1
    40    41    40    3
    41    42    41    1
    42    43    42    1
    43    44    42    1
    44    45    42    1
    45    46    48    1
    46    47    48    2
    47    49    46    1
    48    50    49    1
    49    51    49    1
    50    52     8    1
    51    53    52    1
    52    54    52    1
    53    55    47    1
    54    56    55    1
    55    57    46    1
    56    58    57    1
    57    59    58    1
    58    60    58    1
    59    61    58    1
    60    62    61    1
    61    63    61    1
    62    64    61    1
    63    65    66    1
    64    66    67    2
    65    67    74    1
    66    68    65    1
    67    69    68    1
    68    70    68    1
    69    71    27    1
    70    72    71    1
    71    73    71    1
    72    74    75    1
    73    76    65    1
    74    77    76    1
    75    78    77    1
    76    79    77    1
    77    80    77    1
    78    81    80    1
    79    82    80    1
    80    83    80    1
    81    84     1    1
    82    85    84    3
    83    86    85    1
    84    87    86    1
    85    88    86    1
    86    89    86    1
    87    90    47   un
    88    91    67   un
    89    92     1   un
    90    93     1   un
    91    11    13    2
    92    30    32    2
    93    49    52    1
    94    55    57    2
    95    68    71    1
    96    74    76    2
    97    94    95    1
    98    95    96    1
    99    97    95    1
   100    98    95    1
   101    99    94    1
   102   100    94    2
   103   101    94    2
   104   102   103    3
   105   104   102    1
   106   105   104    1
   107   106   104    1
   108   107   104    1
   109   108   109    3
   110   109   110    1
   111   110   111    1
   112   112   110    1
   113   113   110    1
@<TRIPOS>SUBSTRUCTURE
     1 RES1        1 GROUP             0 ****  ****    0  
     2 RES2       94 GROUP             0 ****  ****    0  
     3 RES3      102 GROUP             0 ****  ****    0  
     4 RES4      108 GROUP             0 ****  ****    0  
@<TRIPOS>CRYSIN
   11.8402   11.9712   11.8910   69.8460   62.7790   61.1290     2     1
