@<TRIPOS>MOLECULE
FONKUQ
   127   138     3     0     0
SMALL
USER_CHARGES
****
Generated from the CSD

@<TRIPOS>ATOM
     1 Fe1      4.8689   4.1940   4.9362   Fe        1 RES1   2.0000
     2 C1       4.5545   1.5868   3.5021   C.ar      1 RES1   0.0000
     3 H1       5.1649   1.2217   4.1327   H         1 RES1   0.0000
     4 C2       4.0222   0.7558   2.5479   C.ar      1 RES1   0.0000
     5 H2       4.2678  -0.1609   2.5184   H         1 RES1   0.0000
     6 C3       3.1258   1.2682   1.6260   C.ar      1 RES1   0.0000
     7 H3       2.7382   0.7057   0.9670   H         1 RES1   0.0000
     8 C4       2.8036   2.6122   1.6827   C.ar      1 RES1   0.0000
     9 H4       2.1918   2.9845   1.0592   H         1 RES1   0.0000
    10 C5       3.3799   3.4113   2.6559   C.ar      1 RES1   0.0000
    11 C6       3.1101   4.8387   2.8476   C.ar      1 RES1   0.0000
    12 C7       3.6835   6.6401   4.2362   C.ar      1 RES1   0.0000
    13 C8       2.7943   7.4703   3.5797   C.ar      1 RES1   0.0000
    14 H5       2.6881   8.3712   3.8620   H         1 RES1   0.0000
    15 C9       2.0539   6.9827   2.5018   C.ar      1 RES1   0.0000
    16 C10      2.2303   5.6367   2.1262   C.ar      1 RES1   0.0000
    17 H6       1.7539   5.2784   1.3867   H         1 RES1   0.0000
    18 C11      4.5685   6.9811   5.3636   C.ar      1 RES1   0.0000
    19 C12      4.7882   8.2511   5.8312   C.ar      1 RES1   0.0000
    20 H7       4.3197   8.9900   5.4605   H         1 RES1   0.0000
    21 C13      5.7000   8.4423   6.8531   C.ar      1 RES1   0.0000
    22 H8       5.8625   9.3140   7.1964   H         1 RES1   0.0000
    23 C14      6.3694   7.3583   7.3650   C.ar      1 RES1   0.0000
    24 H9       7.0119   7.4748   8.0555   H         1 RES1   0.0000
    25 C15      6.1038   6.1030   6.8716   C.ar      1 RES1   0.0000
    26 H10      6.5661   5.3600   7.2395   H         1 RES1   0.0000
    27 C16      1.1166   7.8523   1.7462   C.ar      1 RES1   0.0000
    28 C17      0.0283   7.3060   1.0754   C.ar      1 RES1   0.0000
    29 H11     -0.1348   6.3724   1.1356   H         1 RES1   0.0000
    30 C18     -0.8218   8.0946   0.3219   C.ar      1 RES1   0.0000
    31 H12     -1.5608   7.6987  -0.1236   H         1 RES1   0.0000
    32 C19     -0.6003   9.4684   0.2116   C.ar      1 RES1   0.0000
    33 C20      0.4713  10.0251   0.9134   C.ar      1 RES1   0.0000
    34 H13      0.6227  10.9622   0.8728   H         1 RES1   0.0000
    35 C21      1.3123   9.2266   1.6658   C.ar      1 RES1   0.0000
    36 H14      2.0361   9.6232   2.1360   H         1 RES1   0.0000
    37 C22     -1.4570  10.2481  -0.6335   C.1       1 RES1   0.0000
    38 C23     -2.1864  10.7696  -1.4357   C.1       1 RES1   0.0000
    39 C24     -3.1082  11.3194  -2.4066   C.ar      1 RES1   0.0000
    40 C25     -4.4502  10.9567  -2.3713   C.ar      1 RES1   0.0000
    41 H15     -4.7647  10.3933  -1.6750   H         1 RES1   0.0000
    42 C26     -5.3346  11.4024  -3.3403   C.ar      1 RES1   0.0000
    43 H16     -6.2513  11.1557  -3.3010   H         1 RES1   0.0000
    44 C27     -4.8761  12.2086  -4.3641   C.ar      1 RES1   0.0000
    45 C28     -3.5357  12.5862  -4.4112   C.ar      1 RES1   0.0000
    46 H17     -3.2225  13.1492  -5.1094   H         1 RES1   0.0000
    47 C29     -2.6600  12.1370  -3.4344   C.ar      1 RES1   0.0000
    48 H18     -1.7448  12.3908  -3.4677   H         1 RES1   0.0000
    49 C30     -7.0526  12.3749  -5.3350   C.3       1 RES1   0.0000
    50 H19     -7.1651  11.4018  -5.3056   H         1 RES1   0.0000
    51 H20     -7.4998  12.7323  -6.1313   H         1 RES1   0.0000
    52 H21     -7.4462  12.7738  -4.5308   H         1 RES1   0.0000
    53 N1       4.2479   2.8964   3.5843   N.ar      1 RES1   0.0000
    54 N2       3.8283   5.3441   3.8757   N.ar      1 RES1   0.0000
    55 N3       5.2107   5.8877   5.8846   N.ar      1 RES1   0.0000
    56 O1      -5.6551  12.6928  -5.3901   O.3       1 RES1   0.0000
    57 C31      2.1013   4.0436   6.1215   C.ar      1 RES1   0.0000
    58 H22      1.8470   4.7192   5.5037   H         1 RES1   0.0000
    59 C32      1.1393   3.5244   6.9571   C.ar      1 RES1   0.0000
    60 H23      0.2409   3.8266   6.9022   H         1 RES1   0.0000
    61 C33      1.5002   2.5519   7.8848   C.ar      1 RES1   0.0000
    62 H24      0.8550   2.1813   8.4772   H         1 RES1   0.0000
    63 C34      2.8210   2.1352   7.9240   C.ar      1 RES1   0.0000
    64 H25      3.0934   1.4728   8.5478   H         1 RES1   0.0000
    65 C35      3.7380   2.6849   7.0549   C.ar      1 RES1   0.0000
    66 C36      5.1508   2.3024   6.9928   C.ar      1 RES1   0.0000
    67 C37      7.1235   2.7569   5.8132   C.ar      1 RES1   0.0000
    68 C38      7.8144   1.8097   6.5418   C.ar      1 RES1   0.0000
    69 H26      8.7359   1.6555   6.3706   H         1 RES1   0.0000
    70 C39      7.1521   1.0742   7.5331   C.ar      1 RES1   0.0000
    71 C40      5.7946   1.3494   7.7636   C.ar      1 RES1   0.0000
    72 H27      5.3206   0.8839   8.4438   H         1 RES1   0.0000
    73 C41      7.6442   3.6101   4.7327   C.ar      1 RES1   0.0000
    74 C42      8.9619   3.6901   4.3494   C.ar      1 RES1   0.0000
    75 H28      9.6215   3.1725   4.7976   H         1 RES1   0.0000
    76 C43      9.3213   4.5235   3.3148   C.ar      1 RES1   0.0000
    77 H29     10.2262   4.5842   3.0343   H         1 RES1   0.0000
    78 C44      8.3407   5.2680   2.6950   C.ar      1 RES1   0.0000
    79 H30      8.5660   5.8422   1.9712   H         1 RES1   0.0000
    80 C45      7.0387   5.1778   3.1233   C.ar      1 RES1   0.0000
    81 H31      6.3783   5.7129   2.6989   H         1 RES1   0.0000
    82 C46      7.8625   0.0354   8.3410   C.ar      1 RES1   0.0000
    83 C47      7.1436  -0.9163   9.0577   C.ar      1 RES1   0.0000
    84 H32      6.1942  -0.9040   9.0244   H         1 RES1   0.0000
    85 C48      7.7796  -1.8800   9.8168   C.ar      1 RES1   0.0000
    86 H33      7.2664  -2.5247  10.2875   H         1 RES1   0.0000
    87 C49      9.1669  -1.9110   9.8952   C.ar      1 RES1   0.0000
    88 C50      9.8939  -0.9769   9.1676   C.ar      1 RES1   0.0000
    89 H34     10.8434  -0.9909   9.2048   H         1 RES1   0.0000
    90 C51      9.2538  -0.0240   8.3889   C.ar      1 RES1   0.0000
    91 H35      9.7703   0.5953   7.8848   H         1 RES1   0.0000
    92 C52      9.8266  -2.8374  10.7818   C.1       1 RES1   0.0000
    93 C53     10.3761  -3.5229  11.5899   C.1       1 RES1   0.0000
    94 C54     11.0968  -4.2686  12.5922   C.ar      1 RES1   0.0000
    95 C55     10.6998  -5.5301  13.0139   C.ar      1 RES1   0.0000
    96 H36      9.9127  -5.9198  12.6510   H         1 RES1   0.0000
    97 C56     11.4381  -6.2263  13.9534   C.ar      1 RES1   0.0000
    98 H37     11.1724  -7.1003  14.2123   H         1 RES1   0.0000
    99 C57     12.5674  -5.6474  14.5202   C.ar      1 RES1   0.0000
   100 C58     12.9660  -4.3847  14.1260   C.ar      1 RES1   0.0000
   101 H38     13.7272  -3.9749  14.5202   H         1 RES1   0.0000
   102 C59     12.2391  -3.7213  13.1453   C.ar      1 RES1   0.0000
   103 H39     12.5343  -2.8700  12.8471   H         1 RES1   0.0000
   104 C60     14.2766  -5.7490  16.1697   C.3       1 RES1   0.0000
   105 H40     15.0116  -5.5568  15.5499   H         1 RES1   0.0000
   106 H41     14.5993  -6.3316  16.8876   H         1 RES1   0.0000
   107 H42     13.9456  -4.9100  16.5542   H         1 RES1   0.0000
   108 N4       3.3848   3.6413   6.1388   N.ar      1 RES1   0.0000
   109 N5       5.8152   2.9922   6.0378   N.ar      1 RES1   0.0000
   110 N6       6.6667   4.3597   4.1215   N.ar      1 RES1   0.0000
   111 O2      13.2113  -6.4050  15.4623   O.3       1 RES1   0.0000
   112 C61      9.0641   5.5385  10.1385   C.3       2 RES2   0.0000
   113 F1       9.0727   5.1100  11.4094   F         2 RES2   0.0000
   114 F2       8.0303   6.3752  10.0451   F         2 RES2   0.0000
   115 F3      10.1756   6.2418   9.9502   F         2 RES2   0.0000
   116 O3       9.0210   4.7764   7.6847   O.3       2 RES2  -1.0000
   117 O4      10.0621   3.3386   9.3353   O.2       2 RES2   0.0000
   118 O5       7.6567   3.5965   9.3045   O.2       2 RES2   0.0000
   119 S1       8.9390   4.1553   8.9795   S.o2      2 RES2   0.0000
   120 C62      5.6427   9.6591   1.5181   C.3       3 RES3   0.0000
   121 F4       4.4418  10.1619   1.2119   F         3 RES3   0.0000
   122 F5       6.5572  10.5673   1.1706   F         3 RES3   0.0000
   123 F6       5.6837   9.5449   2.8572   F         3 RES3   0.0000
   124 O6       5.7080   8.3599  -0.6722   O.3       3 RES3  -1.0000
   125 O7       7.2760   7.7386   1.0582   O.2       3 RES3   0.0000
   126 O8       4.9276   7.2069   1.3037   O.2       3 RES3   0.0000
   127 S2       5.9256   8.0597   0.7185   S.o2      3 RES3   0.0000
@<TRIPOS>BOND
     1     1    53    1
     2     2     3    1
     3     4     2   ar
     4     5     4    1
     5     6     4   ar
     6     7     6    1
     7     8     6   ar
     8     9     8    1
     9    10     8   ar
    10    11    10    1
    11    12    13   ar
    12    13    14    1
    13    15    13   ar
    14    16    11   ar
    15    17    16    1
    16    18    12    1
    17    19    18   ar
    18    20    19    1
    19    21    19   ar
    20    22    21    1
    21    23    21   ar
    22    24    23    1
    23    25    23   ar
    24    26    25    1
    25    27    15    1
    26    28    27   ar
    27    29    28    1
    28    30    28   ar
    29    31    30    1
    30    32    30   ar
    31    33    32   ar
    32    34    33    1
    33    35    27   ar
    34    36    35    1
    35    37    32    1
    36    38    37    3
    37    39    38    1
    38    40    39   ar
    39    41    40    1
    40    42    40   ar
    41    43    42    1
    42    44    42   ar
    43    45    44   ar
    44    46    45    1
    45    47    39   ar
    46    48    47    1
    47    49    50    1
    48    51    49    1
    49    52    49    1
    50    53     2   ar
    51    54     1    1
    52    55     1    1
    53    56    44    1
    54    57    58    1
    55    59    57   ar
    56    60    59    1
    57    61    59   ar
    58    62    61    1
    59    63    61   ar
    60    64    63    1
    61    65    63   ar
    62    66    65    1
    63    67    68   ar
    64    68    69    1
    65    70    68   ar
    66    71    66   ar
    67    72    71    1
    68    73    67    1
    69    74    73   ar
    70    75    74    1
    71    76    74   ar
    72    77    76    1
    73    78    76   ar
    74    79    78    1
    75    80    78   ar
    76    81    80    1
    77    82    70    1
    78    83    82   ar
    79    84    83    1
    80    85    83   ar
    81    86    85    1
    82    87    85   ar
    83    88    87   ar
    84    89    88    1
    85    90    82   ar
    86    91    90    1
    87    92    87    1
    88    93    92    3
    89    94    93    1
    90    95    94   ar
    91    96    95    1
    92    97    95   ar
    93    98    97    1
    94    99    97   ar
    95   100    99   ar
    96   101   100    1
    97   102    94   ar
    98   103   102    1
    99   104   105    1
   100   106   104    1
   101   107   104    1
   102   108     1    1
   103   109     1    1
   104   110     1    1
   105   111    99    1
   106    10    53   ar
   107    11    54   ar
   108    12    54   ar
   109    15    16   ar
   110    18    55   ar
   111    25    55   ar
   112    33    35   ar
   113    45    47   ar
   114    49    56    1
   115    57   108   ar
   116    65   108   ar
   117    66   109   ar
   118    67   109   ar
   119    70    71   ar
   120    73   110   ar
   121    80   110   ar
   122    88    90   ar
   123   100   102   ar
   124   104   111    1
   125   112   113    1
   126   114   112    1
   127   115   112    1
   128   116   119    1
   129   117   119    2
   130   118   119    2
   131   119   112    1
   132   120   121    1
   133   122   120    1
   134   123   120    1
   135   124   127    1
   136   125   127    2
   137   126   127    2
   138   127   120    1
@<TRIPOS>SUBSTRUCTURE
     1 RES1        1 GROUP             0 ****  ****    0  
     2 RES2      112 GROUP             0 ****  ****    0  
     3 RES3      120 GROUP             0 ****  ****    0  
@<TRIPOS>CRYSIN
   11.2130   13.3540   19.9336   79.9930   87.9424   65.3545     2     1
