@<TRIPOS>MOLECULE
FOPWUE
   126   129     3     0     0
SMALL
USER_CHARGES
****
Generated from the CSD

@<TRIPOS>ATOM
     1 Fe1      0.0000  10.7264   8.1181   Fe        1 RES1   2.0000
     2 P1      -0.4937   9.0852   6.6236   P.3       1 RES1   0.0000
     3 N1      -2.0317  10.7264   8.1181   N.ar      1 RES1   0.0000
     4 N2      -1.9431   8.5606   7.3635   N.pl3     1 RES1   0.0000
     5 C1      -2.7378   9.6163   7.7629   C.ar      1 RES1   0.0000
     6 C2      -4.1274   9.5768   7.7691   C.ar      1 RES1   0.0000
     7 C3      -4.8195  10.7264   8.1181   C.ar      1 RES1   0.0000
     8 C4       0.3729   7.5143   6.2854   C.3       1 RES1   0.0000
     9 C5       1.5784   7.7055   5.3702   C.3       1 RES1   0.0000
    10 C6       2.2682   6.3893   5.0508   C.3       1 RES1   0.0000
    11 C7      -1.1142   9.5442   4.9516   C.3       1 RES1   0.0000
    12 C8      -2.0178   8.5314   4.2594   C.3       1 RES1   0.0000
    13 C9      -2.4775   9.0602   2.9000   C.3       1 RES1   0.0000
    14 H1      -4.5969   8.7723   7.5371   H         1 RES1   0.0000
    15 H2       0.6589   7.1219   7.1136   H         1 RES1   0.0000
    16 H3      -0.2380   6.8918   5.8842   H         1 RES1   0.0000
    17 H4       1.2971   8.1256   4.5540   H         1 RES1   0.0000
    18 H5       2.2047   8.3023   5.7863   H         1 RES1   0.0000
    19 H6       2.9816   6.5448   4.4276   H         1 RES1   0.0000
    20 H7       2.6249   6.0109   5.8577   H         1 RES1   0.0000
    21 H8       1.6336   5.7807   4.6653   H         1 RES1   0.0000
    22 H9      -1.5613  10.3926   4.9980   H         1 RES1   0.0000
    23 H10     -0.3713   9.7530   4.3806   H         1 RES1   0.0000
    24 H11     -2.7840   8.3568   4.8108   H         1 RES1   0.0000
    25 H12     -1.5402   7.7074   4.1375   H         1 RES1   0.0000
    26 H13     -3.0454   8.4105   2.4793   H         1 RES1   0.0000
    27 H14     -2.9640   9.8786   3.0229   H         1 RES1   0.0000
    28 H15     -1.7118   9.2234   2.3445   H         1 RES1   0.0000
    29 H16     -2.3298   7.8389   7.0709   H         1 RES1   0.0000
    30 H17     -5.7795  10.7264   8.1181   H         1 RES1   0.0000
    31 P1K     -0.4937  12.3677   9.6127   P.3       1 RES1   0.0000
    32 N2K     -1.9431  12.8923   8.8728   N.pl3     1 RES1   0.0000
    33 C4K      0.3729  13.9386   9.9509   C.3       1 RES1   0.0000
    34 C5K      1.5784  13.7474  10.8661   C.3       1 RES1   0.0000
    35 C6K      2.2682  15.0636  11.1855   C.3       1 RES1   0.0000
    36 C7K     -1.1142  11.9087  11.2847   C.3       1 RES1   0.0000
    37 C8K     -2.0178  12.9215  11.9769   C.3       1 RES1   0.0000
    38 C9K     -2.4775  12.3927  13.3363   C.3       1 RES1   0.0000
    39 H2K      0.6589  14.3310   9.1227   H         1 RES1   0.0000
    40 H3K     -0.2380  14.5611  10.3521   H         1 RES1   0.0000
    41 H4K      1.2971  13.3273  11.6823   H         1 RES1   0.0000
    42 H5K      2.2047  13.1506  10.4500   H         1 RES1   0.0000
    43 H6K      2.9816  14.9081  11.8087   H         1 RES1   0.0000
    44 H7K      2.6249  15.4420  10.3786   H         1 RES1   0.0000
    45 H8K      1.6336  15.6722  11.5710   H         1 RES1   0.0000
    46 H9K     -1.5613  11.0603  11.2383   H         1 RES1   0.0000
    47 H10K    -0.3713  11.6999  11.8557   H         1 RES1   0.0000
    48 H11K    -2.7840  13.0961  11.4255   H         1 RES1   0.0000
    49 H12K    -1.5402  13.7455  12.0988   H         1 RES1   0.0000
    50 H13K    -3.0454  13.0424  13.7570   H         1 RES1   0.0000
    51 H14K    -2.9640  11.5743  13.2134   H         1 RES1   0.0000
    52 H15K    -1.7118  12.2295  13.8918   H         1 RES1   0.0000
    53 H16K    -2.3298  13.6140   9.1654   H         1 RES1   0.0000
    54 C1K     -2.7378  11.8366   8.4734   C.ar      1 RES1   0.0000
    55 C2K     -4.1274  11.8761   8.4672   C.ar      1 RES1   0.0000
    56 H1K     -4.5969  12.6806   8.6992   H         1 RES1   0.0000
    57 P1B      0.4937   9.0852   9.6127   P.3       1 RES1   0.0000
    58 N1B      2.0317  10.7264   8.1181   N.ar      1 RES1   0.0000
    59 N2B      1.9431   8.5606   8.8728   N.pl3     1 RES1   0.0000
    60 C1B      2.7378   9.6163   8.4734   C.ar      1 RES1   0.0000
    61 C2B      4.1274   9.5768   8.4672   C.ar      1 RES1   0.0000
    62 C3B      4.8195  10.7264   8.1181   C.ar      1 RES1   0.0000
    63 C4B     -0.3729   7.5143   9.9509   C.3       1 RES1   0.0000
    64 C5B     -1.5784   7.7055  10.8661   C.3       1 RES1   0.0000
    65 C6B     -2.2682   6.3893  11.1855   C.3       1 RES1   0.0000
    66 C7B      1.1142   9.5442  11.2847   C.3       1 RES1   0.0000
    67 C8B      2.0178   8.5314  11.9769   C.3       1 RES1   0.0000
    68 C9B      2.4775   9.0602  13.3363   C.3       1 RES1   0.0000
    69 H1B      4.5969   8.7723   8.6992   H         1 RES1   0.0000
    70 H2B     -0.6589   7.1219   9.1227   H         1 RES1   0.0000
    71 H3B      0.2380   6.8918  10.3521   H         1 RES1   0.0000
    72 H4B     -1.2971   8.1256  11.6823   H         1 RES1   0.0000
    73 H5B     -2.2047   8.3023  10.4500   H         1 RES1   0.0000
    74 H6B     -2.9816   6.5448  11.8087   H         1 RES1   0.0000
    75 H7B     -2.6249   6.0109  10.3786   H         1 RES1   0.0000
    76 H8B     -1.6336   5.7807  11.5710   H         1 RES1   0.0000
    77 H9B      1.5613  10.3926  11.2383   H         1 RES1   0.0000
    78 H10B     0.3713   9.7530  11.8557   H         1 RES1   0.0000
    79 H11B     2.7840   8.3568  11.4255   H         1 RES1   0.0000
    80 H12B     1.5402   7.7074  12.0988   H         1 RES1   0.0000
    81 H13B     3.0454   8.4105  13.7570   H         1 RES1   0.0000
    82 H14B     2.9640   9.8786  13.2134   H         1 RES1   0.0000
    83 H15B     1.7118   9.2234  13.8918   H         1 RES1   0.0000
    84 H16B     2.3298   7.8389   9.1654   H         1 RES1   0.0000
    85 H17B     5.7795  10.7264   8.1181   H         1 RES1   0.0000
    86 P1I      0.4937  12.3677   6.6236   P.3       1 RES1   0.0000
    87 N2I      1.9431  12.8923   7.3635   N.pl3     1 RES1   0.0000
    88 C4I     -0.3729  13.9386   6.2854   C.3       1 RES1   0.0000
    89 C5I     -1.5784  13.7474   5.3702   C.3       1 RES1   0.0000
    90 C6I     -2.2682  15.0636   5.0508   C.3       1 RES1   0.0000
    91 C7I      1.1142  11.9087   4.9516   C.3       1 RES1   0.0000
    92 C8I      2.0178  12.9215   4.2594   C.3       1 RES1   0.0000
    93 C9I      2.4775  12.3927   2.9000   C.3       1 RES1   0.0000
    94 H2I     -0.6589  14.3310   7.1136   H         1 RES1   0.0000
    95 H3I      0.2380  14.5611   5.8842   H         1 RES1   0.0000
    96 H4I     -1.2971  13.3273   4.5540   H         1 RES1   0.0000
    97 H5I     -2.2047  13.1506   5.7863   H         1 RES1   0.0000
    98 H6I     -2.9816  14.9081   4.4276   H         1 RES1   0.0000
    99 H7I     -2.6249  15.4420   5.8577   H         1 RES1   0.0000
   100 H8I     -1.6336  15.6722   4.6653   H         1 RES1   0.0000
   101 H9I      1.5613  11.0603   4.9980   H         1 RES1   0.0000
   102 H10I     0.3713  11.6999   4.3806   H         1 RES1   0.0000
   103 H11I     2.7840  13.0961   4.8108   H         1 RES1   0.0000
   104 H12I     1.5402  13.7455   4.1375   H         1 RES1   0.0000
   105 H13I     3.0454  13.0424   2.4793   H         1 RES1   0.0000
   106 H14I     2.9640  11.5743   3.0229   H         1 RES1   0.0000
   107 H15I     1.7118  12.2295   2.3445   H         1 RES1   0.0000
   108 H16I     2.3298  13.6140   7.0709   H         1 RES1   0.0000
   109 C1I      2.7378  11.8366   7.7629   C.ar      1 RES1   0.0000
   110 C2I      4.1274  11.8761   7.7691   C.ar      1 RES1   0.0000
   111 H1I      4.5969  12.6806   7.5371   H         1 RES1   0.0000
   112 F1      -2.8469   5.9894   6.4129   F         2 RES2   0.0000
   113 F2      -4.3896   6.3241   8.0276   F         2 RES2   0.0000
   114 B1      -3.7945   5.3632   7.2252   B         2 RES2  -1.0000
   115 F1A     -4.7421   4.7370   6.4129   F         2 RES2   0.0000
   116 F2A     -3.1994   4.4023   8.0276   F         2 RES2   0.0000
   117 O1      -7.5890   8.9699   8.1181   O.2       3 RES3   0.0000
   118 C10     -7.5890   7.7878   8.1181   C.2       3 RES3   0.0000
   119 C11     -7.4938   6.9949   6.8566   C.3       3 RES3   0.0000
   120 H18     -6.7780   6.3596   6.9313   H         3 RES3   0.0000
   121 H19     -8.3203   6.5300   6.7078   H         3 RES3   0.0000
   122 H20     -7.3217   7.5857   6.1198   H         3 RES3   0.0000
   123 C11B    -7.6842   6.9949   9.3797   C.3       3 RES3   0.0000
   124 H18B    -8.4000   6.3596   9.3050   H         3 RES3   0.0000
   125 H19B    -6.8577   6.5300   9.5285   H         3 RES3   0.0000
   126 H20B    -7.8563   7.5857  10.1165   H         3 RES3   0.0000
@<TRIPOS>BOND
     1     1     2    1
     2     2     4    1
     3     3     1    1
     4     4     5    1
     5     5     3   ar
     6     6     5   ar
     7     7     6   ar
     8     8     2    1
     9     9     8    1
    10    10     9    1
    11    11     2    1
    12    12    11    1
    13    13    12    1
    14    14     6    1
    15    15     8    1
    16    16     8    1
    17    17     9    1
    18    18     9    1
    19    19    10    1
    20    20    10    1
    21    21    10    1
    22    22    11    1
    23    23    11    1
    24    24    12    1
    25    25    12    1
    26    26    13    1
    27    27    13    1
    28    28    13    1
    29    29     4    1
    30    30     7    1
    31    31     1    1
    32    32    31    1
    33    33    31    1
    34    34    33    1
    35    35    34    1
    36    36    31    1
    37    37    36    1
    38    38    37    1
    39    39    33    1
    40    40    33    1
    41    41    34    1
    42    42    34    1
    43    43    35    1
    44    44    35    1
    45    45    35    1
    46    46    36    1
    47    47    36    1
    48    48    37    1
    49    49    37    1
    50    50    38    1
    51    51    38    1
    52    52    38    1
    53    53    32    1
    54    54     3   ar
    55    55     7   ar
    56    56    55    1
    57    57     1    1
    58    58     1    1
    59    59    57    1
    60    60    58   ar
    61    61    60   ar
    62    62    61   ar
    63    63    57    1
    64    64    63    1
    65    65    64    1
    66    66    57    1
    67    67    66    1
    68    68    67    1
    69    69    61    1
    70    70    63    1
    71    71    63    1
    72    72    64    1
    73    73    64    1
    74    74    65    1
    75    75    65    1
    76    76    65    1
    77    77    66    1
    78    78    66    1
    79    79    67    1
    80    80    67    1
    81    81    68    1
    82    82    68    1
    83    83    68    1
    84    84    59    1
    85    85    62    1
    86    86     1    1
    87    87    86    1
    88    88    86    1
    89    89    88    1
    90    90    89    1
    91    91    86    1
    92    92    91    1
    93    93    92    1
    94    94    88    1
    95    95    88    1
    96    96    89    1
    97    97    89    1
    98    98    90    1
    99    99    90    1
   100   100    90    1
   101   101    91    1
   102   102    91    1
   103   103    92    1
   104   104    92    1
   105   105    93    1
   106   106    93    1
   107   107    93    1
   108   108    87    1
   109   109    58   ar
   110   110    62   ar
   111   111   110    1
   112    32    54    1
   113    54    55   ar
   114    59    60    1
   115    87   109    1
   116   109   110   ar
   117   112   114    1
   118   113   114    1
   119   114   115    1
   120   116   114    1
   121   117   118    2
   122   118   119    1
   123   119   120    1
   124   121   119    1
   125   122   119    1
   126   123   118    1
   127   124   123    1
   128   125   123    1
   129   126   123    1
@<TRIPOS>SUBSTRUCTURE
     1 RES1        1 GROUP             0 ****  ****    0  
     2 RES2      112 GROUP             0 ****  ****    0  
     3 RES3      117 GROUP             0 ****  ****    0  
@<TRIPOS>CRYSIN
   15.1780   21.4529   16.2363   90.0000   90.0000   90.0000    68     1
