@<TRIPOS>MOLECULE
FOQLUV
   114   120     2     0     0
SMALL
USER_CHARGES
****
Generated from the CSD

@<TRIPOS>ATOM
     1 Fe1      5.4612  10.1972  14.3825   Fe        1 RES1   1.0000
     2 P1       5.6294  12.2418  13.7002   P.3       1 RES1   0.0000
     3 P2       5.4781   8.4232  15.6401   P.3       1 RES1   0.0000
     4 N1       7.2397  10.5324  15.1825   N.ar      1 RES1   0.0000
     5 N2       7.2068  12.6479  14.2142   N.pl3     1 RES1   0.0000
     6 N3       7.0353   8.5225  16.3344   N.pl3     1 RES1   0.0000
     7 N4       4.0388   8.9002  11.7913   N.pl3     1 RES1   1.0000
     8 C1       7.8947  11.7073  14.9586   C.ar      1 RES1   0.0000
     9 C2       9.1726  11.9498  15.4647   C.ar      1 RES1   0.0000
    10 H1       9.6307  12.7581  15.2688   H         1 RES1   0.0000
    11 C3       9.7538  10.9769  16.2602   C.ar      1 RES1   0.0000
    12 H2      10.6283  11.1169  16.6037   H         1 RES1   0.0000
    13 C4       9.0862   9.8080  16.5612   C.ar      1 RES1   0.0000
    14 H3       9.4833   9.1478  17.1160   H         1 RES1   0.0000
    15 C5       7.8046   9.6239  16.0254   C.ar      1 RES1   0.0000
    16 C6       5.6923  12.7146  11.9183   C.3       1 RES1   0.0000
    17 H4       5.9544  13.6787  11.8772   H         1 RES1   0.0000
    18 C7       6.7696  11.9191  11.1775   C.3       1 RES1   0.0000
    19 H5       6.8454  12.2490  10.2585   H         1 RES1   0.0000
    20 H6       6.5248  10.9704  11.1650   H         1 RES1   0.0000
    21 H7       7.6296  12.0282  11.6353   H         1 RES1   0.0000
    22 C8       4.3344  12.5807  11.2151   C.3       1 RES1   0.0000
    23 H8       4.4314  12.8209  10.2700   H         1 RES1   0.0000
    24 H9       3.6859  13.1812  11.6392   H         1 RES1   0.0000
    25 H10      4.0195  11.6562  11.2869   H         1 RES1   0.0000
    26 C9       4.5222  13.5241  14.4612   C.3       1 RES1   0.0000
    27 H11      4.5614  14.3529  13.9034   H         1 RES1   0.0000
    28 C10      4.9869  13.8675  15.8799   C.3       1 RES1   0.0000
    29 H12      5.8682  14.2948  15.8401   H         1 RES1   0.0000
    30 H13      5.0459  13.0464  16.4114   H         1 RES1   0.0000
    31 H14      4.3449  14.4807  16.2952   H         1 RES1   0.0000
    32 C11      3.0675  13.0217  14.4945   C.3       1 RES1   0.0000
    33 H15      2.7978  12.7418  13.5949   H         1 RES1   0.0000
    34 H16      2.4803  13.7438  14.8022   H         1 RES1   0.0000
    35 H17      2.9987  12.2606  15.1069   H         1 RES1   0.0000
    36 C12      5.5043   6.6999  14.9610   C.3       1 RES1   0.0000
    37 H18      5.8041   6.0954  15.6991   H         1 RES1   0.0000
    38 C13      6.5333   6.5832  13.8394   C.3       1 RES1   0.0000
    39 H19      6.6456   5.6398  13.5949   H         1 RES1   0.0000
    40 H20      7.3913   6.9463  14.1433   H         1 RES1   0.0000
    41 H21      6.2237   7.0881  13.0579   H         1 RES1   0.0000
    42 C14      4.1255   6.2080  14.5070   C.3       1 RES1   0.0000
    43 H22      3.7723   6.8115  13.8215   H         1 RES1   0.0000
    44 H23      3.5156   6.1931  15.2745   H         1 RES1   0.0000
    45 H24      4.2066   5.3050  14.1357   H         1 RES1   0.0000
    46 C15      4.2853   8.3249  17.0523   C.3       1 RES1   0.0000
    47 H25      4.2361   7.3764  17.3673   H         1 RES1   0.0000
    48 C16      4.7224   9.2090  18.2206   C.3       1 RES1   0.0000
    49 H26      4.8468  10.1288  17.9062   H         1 RES1   0.0000
    50 H27      5.5666   8.8712  18.5880   H         1 RES1   0.0000
    51 H28      4.0339   9.1920  18.9174   H         1 RES1   0.0000
    52 C17      2.8919   8.7538  16.5494   C.3       1 RES1   0.0000
    53 H29      2.9170   9.6964  16.2838   H         1 RES1   0.0000
    54 H30      2.2343   8.6340  17.2664   H         1 RES1   0.0000
    55 H31      2.6387   8.2040  15.7791   H         1 RES1   0.0000
    56 C18      7.8281  13.9558  13.9662   C.3       1 RES1   0.0000
    57 H32      8.5888  13.8461  13.3587   H         1 RES1   0.0000
    58 H33      8.1404  14.3343  14.8136   H         1 RES1   0.0000
    59 H34      7.1700  14.5598  13.5606   H         1 RES1   0.0000
    60 C19      7.5635   7.5145  17.2645   C.3       1 RES1   0.0000
    61 H35      6.8501   6.8882  17.5063   H         1 RES1   0.0000
    62 H36      7.8960   7.9576  18.0719   H         1 RES1   0.0000
    63 H37      8.2968   7.0253  16.8341   H         1 RES1   0.0000
    64 B1       4.6960   9.4372  12.8690   B         1 RES1  -1.0000
    65 H38      3.1731   8.8944  11.7534   H         1 RES1   0.0000
    66 H39      4.4561   8.4434  11.1802   H         1 RES1   0.0000
    67 H40      4.0355   9.9870  13.7986   H         1 RES1   0.0000
    68 H41      5.8933   9.5105  12.9988   H         1 RES1   0.0000
    69 H42      4.9490  10.7612  15.4649   H         1 RES1   0.0000
    70 C20      0.7974   7.9266  10.7866   C.ar      2 RES2   0.0000
    71 C21      0.6906   7.8216  12.1844   C.ar      2 RES2   0.0000
    72 H43      0.6638   6.9579  12.5761   H         2 RES2   0.0000
    73 C22      0.6220   8.9411  13.0186   C.ar      2 RES2   0.0000
    74 H44      0.5452   8.8270  13.9586   H         2 RES2   0.0000
    75 C23      0.6651  10.2172  12.4791   C.ar      2 RES2   0.0000
    76 H45      0.6164  10.9797  13.0426   H         2 RES2   0.0000
    77 C24      0.7807  10.3674  11.1004   C.ar      2 RES2   0.0000
    78 H46      0.8150  11.2354  10.7175   H         2 RES2   0.0000
    79 C25      0.8457   9.2396  10.2808   C.ar      2 RES2   0.0000
    80 H47      0.9258   9.3640   9.3426   H         2 RES2   0.0000
    81 C26      2.6688   6.4769   9.7223   C.ar      2 RES2   0.0000
    82 C27      3.4227   7.1778   8.7642   C.ar      2 RES2   0.0000
    83 H48      2.9629   7.6832   8.1047   H         2 RES2   0.0000
    84 C28      4.8200   7.1637   8.7419   C.ar      2 RES2   0.0000
    85 H49      5.2889   7.6530   8.0762   H         2 RES2   0.0000
    86 C29      5.5245   6.4358   9.6931   C.ar      2 RES2   0.0000
    87 H50      6.4744   6.4209   9.6853   H         2 RES2   0.0000
    88 C30      4.8133   5.7316  10.6541   C.ar      2 RES2   0.0000
    89 H51      5.2822   5.2260  11.3078   H         2 RES2   0.0000
    90 C31      3.4200   5.7558  10.6718   C.ar      2 RES2   0.0000
    91 H52      2.9610   5.2702  11.3459   H         2 RES2   0.0000
    92 C32      0.3269   5.2541  10.3989   C.ar      2 RES2   0.0000
    93 C33     -0.9188   5.2664  11.0456   C.ar      2 RES2   0.0000
    94 H53     -1.3256   6.1024  11.2412   H         2 RES2   0.0000
    95 C34     -1.5808   4.0938  11.4116   C.ar      2 RES2   0.0000
    96 H54     -2.4219   4.1473  11.8505   H         2 RES2   0.0000
    97 C35     -1.0231   2.8499  11.1404   C.ar      2 RES2   0.0000
    98 H55     -1.4806   2.0527  11.3783   H         2 RES2   0.0000
    99 C36      0.2166   2.7948  10.5141   C.ar      2 RES2   0.0000
   100 H56      0.6206   1.9551  10.3328   H         2 RES2   0.0000
   101 C37      0.8674   3.9753  10.1526   C.ar      2 RES2   0.0000
   102 H57      1.7120   3.9148   9.7215   H         2 RES2   0.0000
   103 C38      0.3736   6.8301   8.3211   C.ar      2 RES2   0.0000
   104 C39      0.8989   6.1733   7.1981   C.ar      2 RES2   0.0000
   105 H58      1.6566   5.6119   7.3145   H         2 RES2   0.0000
   106 C40      0.3600   6.3063   5.9188   C.ar      2 RES2   0.0000
   107 H59      0.7553   5.8513   5.1854   H         2 RES2   0.0000
   108 C41     -0.7588   7.1088   5.7200   C.ar      2 RES2   0.0000
   109 H60     -1.1197   7.2276   4.8503   H         2 RES2   0.0000
   110 C42     -1.3378   7.7334   6.8163   C.ar      2 RES2   0.0000
   111 H61     -2.1190   8.2598   6.6994   H         2 RES2   0.0000
   112 C43     -0.7831   7.5944   8.0910   C.ar      2 RES2   0.0000
   113 H62     -1.2010   8.0296   8.8246   H         2 RES2   0.0000
   114 B2       1.0296   6.6187   9.8160   B         2 RES2  -1.0000
@<TRIPOS>BOND
     1     1     2    1
     2     2     5    1
     3     3     1    1
     4     4     1    1
     5     5     8    1
     6     6     3    1
     7     7    64    2
     8     8     4   ar
     9     9     8   ar
    10    10     9    1
    11    11     9   ar
    12    12    11    1
    13    13    11   ar
    14    14    13    1
    15    15     4   ar
    16    16     2    1
    17    17    16    1
    18    18    16    1
    19    19    18    1
    20    20    18    1
    21    21    18    1
    22    22    16    1
    23    23    22    1
    24    24    22    1
    25    25    22    1
    26    26     2    1
    27    27    26    1
    28    28    26    1
    29    29    28    1
    30    30    28    1
    31    31    28    1
    32    32    26    1
    33    33    32    1
    34    34    32    1
    35    35    32    1
    36    36     3    1
    37    37    36    1
    38    38    36    1
    39    39    38    1
    40    40    38    1
    41    41    38    1
    42    42    36    1
    43    43    42    1
    44    44    42    1
    45    45    42    1
    46    46     3    1
    47    47    46    1
    48    48    46    1
    49    49    48    1
    50    50    48    1
    51    51    48    1
    52    52    46    1
    53    53    52    1
    54    54    52    1
    55    55    52    1
    56    56     5    1
    57    57    56    1
    58    58    56    1
    59    59    56    1
    60    60     6    1
    61    61    60    1
    62    62    60    1
    63    63    60    1
    64    64    67    1
    65    65     7    1
    66    66     7    1
    67    67     1    1
    68    68     1    1
    69    69     1    1
    70     6    15    1
    71    13    15   ar
    72    64    68    1
    73    70    71   ar
    74    71    72    1
    75    73    71   ar
    76    74    73    1
    77    75    73   ar
    78    76    75    1
    79    77    75   ar
    80    78    77    1
    81    79    70   ar
    82    80    79    1
    83    81    82   ar
    84    82    83    1
    85    84    82   ar
    86    85    84    1
    87    86    84   ar
    88    87    86    1
    89    88    86   ar
    90    89    88    1
    91    90    81   ar
    92    91    90    1
    93    92    93   ar
    94    93    94    1
    95    95    93   ar
    96    96    95    1
    97    97    95   ar
    98    98    97    1
    99    99    97   ar
   100   100    99    1
   101   101    92   ar
   102   102   101    1
   103   103   104   ar
   104   104   105    1
   105   106   104   ar
   106   107   106    1
   107   108   106   ar
   108   109   108    1
   109   110   108   ar
   110   111   110    1
   111   112   103   ar
   112   113   112    1
   113   114    70    1
   114    77    79   ar
   115    81   114    1
   116    88    90   ar
   117    92   114    1
   118    99   101   ar
   119   103   114    1
   120   110   112   ar
@<TRIPOS>SUBSTRUCTURE
     1 RES1        1 GROUP             0 ****  ****    0  
     2 RES2       70 GROUP             0 ****  ****    0  
@<TRIPOS>CRYSIN
    9.7809   23.2473   19.0432   90.0000   90.1710   90.0000    14     1
