@<TRIPOS>MOLECULE
FOSRUD05
   109   114     1     0     0
SMALL
NO_CHARGES
****
Generated from the CSD

@<TRIPOS>ATOM
     1 Fe1      0.0000   0.0000   0.0000   Fe        1 RES1   0.0000
     2 S1       3.0855  -1.5535   3.2568   S.2       1 RES1   0.0000
     3 O1      -0.4567   1.2211   4.5257   O.2       1 RES1   0.0000
     4 N1      -1.7118   0.8928   1.0856   N.ar      1 RES1   0.0000
     5 N2       0.9227   1.9437   0.3708   N.ar      1 RES1   0.0000
     6 N3       0.8473  -0.7453   1.7908   N.2       1 RES1   0.0000
     7 N4      -0.2015   2.0810   2.4508   N.am      1 RES1   0.0000
     8 C1      -2.9787   0.6221   0.6999   C.ar      1 RES1   0.0000
     9 H1      -3.1147   0.0651  -0.0576   H         1 RES1   0.0000
    10 C2      -4.0806   1.1202   1.3593   C.ar      1 RES1   0.0000
    11 H2      -4.9577   0.9031   1.0659   H         1 RES1   0.0000
    12 C3      -3.8890   1.9435   2.4581   C.ar      1 RES1   0.0000
    13 H3      -4.6338   2.2851   2.9389   H         1 RES1   0.0000
    14 C4      -2.6030   2.2605   2.8443   C.ar      1 RES1   0.0000
    15 H4      -2.4439   2.8322   3.5862   H         1 RES1   0.0000
    16 C5      -1.5455   1.7211   2.1189   C.ar      1 RES1   0.0000
    17 C6       0.6220   2.6873   1.4421   C.ar      1 RES1   0.0000
    18 C7       1.0554   3.9950   1.5951   C.ar      1 RES1   0.0000
    19 H5       0.7757   4.5150   2.3393   H         1 RES1   0.0000
    20 C8       1.9063   4.5280   0.6381   C.ar      1 RES1   0.0000
    21 H6       2.2530   5.4069   0.7377   H         1 RES1   0.0000
    22 C9       2.2437   3.7602  -0.4659   C.ar      1 RES1   0.0000
    23 H7       2.8329   4.0968  -1.1307   H         1 RES1   0.0000
    24 C10      1.7039   2.4971  -0.5759   C.ar      1 RES1   0.0000
    25 H8       1.8922   1.9919  -1.3581   H         1 RES1   0.0000
    26 C11      0.2806   1.7611   3.7218   C.2       1 RES1   0.0000
    27 C12      1.7170   2.1003   4.0159   C.3       1 RES1   0.0000
    28 H9       1.8429   3.0781   3.9255   H         1 RES1   0.0000
    29 H10      2.2968   1.6574   3.3466   H         1 RES1   0.0000
    30 C13      2.1516   1.6704   5.4115   C.3       1 RES1   0.0000
    31 H11      2.0494   0.6893   5.4958   H         1 RES1   0.0000
    32 H12      1.5602   2.0963   6.0815   H         1 RES1   0.0000
    33 C14      3.6018   2.0516   5.7080   C.3       1 RES1   0.0000
    34 H13      3.8553   1.6754   6.5881   H         1 RES1   0.0000
    35 H14      4.1855   1.6354   5.0250   H         1 RES1   0.0000
    36 C15      3.8609   3.5493   5.7244   C.3       1 RES1   0.0000
    37 H15      3.6310   3.9194   4.8352   H         1 RES1   0.0000
    38 H16      3.2560   3.9673   6.3872   H         1 RES1   0.0000
    39 C16      5.2896   3.9428   6.0574   C.3       1 RES1   0.0000
    40 H17      5.9084   3.4512   5.4607   H         1 RES1   0.0000
    41 H18      5.4905   3.6751   6.9892   H         1 RES1   0.0000
    42 C17      5.5318   5.4388   5.9043   C.3       1 RES1   0.0000
    43 H19      5.3081   5.7026   4.9767   H         1 RES1   0.0000
    44 H20      4.9156   5.9228   6.5097   H         1 RES1   0.0000
    45 C18      6.9518   5.8791   6.2047   C.3       1 RES1   0.0000
    46 H21      7.5782   5.2929   5.7110   H         1 RES1   0.0000
    47 H22      7.1252   5.7572   7.1717   H         1 RES1   0.0000
    48 C19      7.2426   7.3274   5.8346   C.3       1 RES1   0.0000
    49 H23      8.2199   7.4769   5.8844   H         1 RES1   0.0000
    50 H24      6.9647   7.4762   4.8961   H         1 RES1   0.0000
    51 C20      6.5539   8.3481   6.7084   C.3       1 RES1   0.0000
    52 H25      6.8023   9.2494   6.4161   H         1 RES1   0.0000
    53 H26      6.8292   8.2188   7.6401   H         1 RES1   0.0000
    54 H27      5.5827   8.2370   6.6366   H         1 RES1   0.0000
    55 C21      1.7801  -1.0746   2.4104   C.1       1 RES1   0.0000
    56 S1B     -3.0855   1.5535  -3.2568   S.2       1 RES1   0.0000
    57 O1B      0.4567  -1.2211  -4.5257   O.2       1 RES1   0.0000
    58 N1B      1.7118  -0.8928  -1.0856   N.ar      1 RES1   0.0000
    59 N2B     -0.9227  -1.9437  -0.3708   N.ar      1 RES1   0.0000
    60 N3B     -0.8473   0.7453  -1.7908   N.2       1 RES1   0.0000
    61 N4B      0.2015  -2.0810  -2.4508   N.am      1 RES1   0.0000
    62 C1B      2.9787  -0.6221  -0.6999   C.ar      1 RES1   0.0000
    63 H1B      3.1147  -0.0651   0.0576   H         1 RES1   0.0000
    64 C2B      4.0806  -1.1202  -1.3593   C.ar      1 RES1   0.0000
    65 H2B      4.9577  -0.9031  -1.0659   H         1 RES1   0.0000
    66 C3B      3.8890  -1.9435  -2.4581   C.ar      1 RES1   0.0000
    67 H3B      4.6338  -2.2851  -2.9389   H         1 RES1   0.0000
    68 C4B      2.6030  -2.2605  -2.8443   C.ar      1 RES1   0.0000
    69 H4B      2.4439  -2.8322  -3.5862   H         1 RES1   0.0000
    70 C5B      1.5455  -1.7211  -2.1189   C.ar      1 RES1   0.0000
    71 C6B     -0.6220  -2.6873  -1.4421   C.ar      1 RES1   0.0000
    72 C7B     -1.0554  -3.9950  -1.5951   C.ar      1 RES1   0.0000
    73 H5B     -0.7757  -4.5150  -2.3393   H         1 RES1   0.0000
    74 C8B     -1.9063  -4.5280  -0.6381   C.ar      1 RES1   0.0000
    75 H6B     -2.2530  -5.4069  -0.7377   H         1 RES1   0.0000
    76 C9B     -2.2437  -3.7602   0.4659   C.ar      1 RES1   0.0000
    77 H7B     -2.8329  -4.0968   1.1307   H         1 RES1   0.0000
    78 C10B    -1.7039  -2.4971   0.5759   C.ar      1 RES1   0.0000
    79 H8B     -1.8922  -1.9919   1.3581   H         1 RES1   0.0000
    80 C11B    -0.2806  -1.7611  -3.7218   C.2       1 RES1   0.0000
    81 C12B    -1.7170  -2.1003  -4.0159   C.3       1 RES1   0.0000
    82 H9B     -1.8429  -3.0781  -3.9255   H         1 RES1   0.0000
    83 H10B    -2.2968  -1.6574  -3.3466   H         1 RES1   0.0000
    84 C13B    -2.1516  -1.6704  -5.4115   C.3       1 RES1   0.0000
    85 H11B    -2.0494  -0.6893  -5.4958   H         1 RES1   0.0000
    86 H12B    -1.5602  -2.0963  -6.0815   H         1 RES1   0.0000
    87 C14B    -3.6018  -2.0516  -5.7080   C.3       1 RES1   0.0000
    88 H13B    -3.8553  -1.6754  -6.5881   H         1 RES1   0.0000
    89 H14B    -4.1855  -1.6354  -5.0250   H         1 RES1   0.0000
    90 C15B    -3.8609  -3.5493  -5.7244   C.3       1 RES1   0.0000
    91 H15B    -3.6310  -3.9194  -4.8352   H         1 RES1   0.0000
    92 H16B    -3.2560  -3.9673  -6.3872   H         1 RES1   0.0000
    93 C16B    -5.2896  -3.9428  -6.0574   C.3       1 RES1   0.0000
    94 H17B    -5.9084  -3.4512  -5.4607   H         1 RES1   0.0000
    95 H18B    -5.4905  -3.6751  -6.9892   H         1 RES1   0.0000
    96 C17B    -5.5318  -5.4388  -5.9043   C.3       1 RES1   0.0000
    97 H19B    -5.3081  -5.7026  -4.9767   H         1 RES1   0.0000
    98 H20B    -4.9156  -5.9228  -6.5097   H         1 RES1   0.0000
    99 C18B    -6.9518  -5.8791  -6.2047   C.3       1 RES1   0.0000
   100 H21B    -7.5782  -5.2929  -5.7110   H         1 RES1   0.0000
   101 H22B    -7.1252  -5.7572  -7.1717   H         1 RES1   0.0000
   102 C19B    -7.2426  -7.3274  -5.8346   C.3       1 RES1   0.0000
   103 H23B    -8.2199  -7.4769  -5.8844   H         1 RES1   0.0000
   104 H24B    -6.9647  -7.4762  -4.8961   H         1 RES1   0.0000
   105 C20B    -6.5539  -8.3481  -6.7084   C.3       1 RES1   0.0000
   106 H25B    -6.8023  -9.2494  -6.4161   H         1 RES1   0.0000
   107 H26B    -6.8292  -8.2188  -7.6401   H         1 RES1   0.0000
   108 H27B    -5.5827  -8.2370  -6.6366   H         1 RES1   0.0000
   109 C21B    -1.7801   1.0746  -2.4104   C.1       1 RES1   0.0000
@<TRIPOS>BOND
     1     1     4    1
     2     2    55    2
     3     3    26    2
     4     4     8   ar
     5     5     1    1
     6     6     1    1
     7     7    16    1
     8     8     9    1
     9    10     8   ar
    10    11    10    1
    11    12    10   ar
    12    13    12    1
    13    14    12   ar
    14    15    14    1
    15    16     4   ar
    16    17     5   ar
    17    18    17   ar
    18    19    18    1
    19    20    18   ar
    20    21    20    1
    21    22    20   ar
    22    23    22    1
    23    24     5   ar
    24    25    24    1
    25    26     7   am
    26    27    26    1
    27    28    27    1
    28    29    27    1
    29    30    27    1
    30    31    30    1
    31    32    30    1
    32    33    30    1
    33    34    33    1
    34    35    33    1
    35    36    33    1
    36    37    36    1
    37    38    36    1
    38    39    36    1
    39    40    39    1
    40    41    39    1
    41    42    39    1
    42    43    42    1
    43    44    42    1
    44    45    42    1
    45    46    45    1
    46    47    45    1
    47    48    45    1
    48    49    48    1
    49    50    48    1
    50    51    48    1
    51    52    51    1
    52    53    51    1
    53    54    51    1
    54    55     6    2
    55    56   109    2
    56    57    80    2
    57    58     1    1
    58    59     1    1
    59    60     1    1
    60    61    70    1
    61    62    58   ar
    62    63    62    1
    63    64    62   ar
    64    65    64    1
    65    66    64   ar
    66    67    66    1
    67    68    66   ar
    68    69    68    1
    69    70    58   ar
    70    71    59   ar
    71    72    71   ar
    72    73    72    1
    73    74    72   ar
    74    75    74    1
    75    76    74   ar
    76    77    76    1
    77    78    59   ar
    78    79    78    1
    79    80    61   am
    80    81    80    1
    81    82    81    1
    82    83    81    1
    83    84    81    1
    84    85    84    1
    85    86    84    1
    86    87    84    1
    87    88    87    1
    88    89    87    1
    89    90    87    1
    90    91    90    1
    91    92    90    1
    92    93    90    1
    93    94    93    1
    94    95    93    1
    95    96    93    1
    96    97    96    1
    97    98    96    1
    98    99    96    1
    99   100    99    1
   100   101    99    1
   101   102    99    1
   102   103   102    1
   103   104   102    1
   104   105   102    1
   105   106   105    1
   106   107   105    1
   107   108   105    1
   108   109    60    2
   109     7    17    1
   110    14    16   ar
   111    22    24   ar
   112    61    71    1
   113    68    70   ar
   114    76    78   ar
@<TRIPOS>SUBSTRUCTURE
     1 RES1        1 GROUP             0 ****  ****    0  
@<TRIPOS>CRYSIN
   16.0010    8.5341   17.4294   90.0000  115.3980   90.0000    14     1
