@<TRIPOS>MOLECULE
FOSRUD01
   109   114     1     0     0
SMALL
NO_CHARGES
****
Generated from the CSD

@<TRIPOS>ATOM
     1 Fe1      0.0000   4.1272   0.0000   Fe        1 RES1   0.0000
     2 S1       2.8525   2.5301   3.3472   S.2       1 RES1   0.0000
     3 O1      -0.4973   5.2564   4.4699   O.2       1 RES1   0.0000
     4 N1      -1.6065   4.8449   0.9452   N.ar      1 RES1   0.0000
     5 N2       0.8176   5.9157   0.2523   N.ar      1 RES1   0.0000
     6 N3       0.8233   3.4798   1.6628   N.2       1 RES1   0.0000
     7 N4      -0.1985   6.0745   2.3819   N.am      1 RES1   0.0000
     8 C1      -2.8559   4.5532   0.5017   C.ar      1 RES1   0.0000
     9 H1      -2.9482   4.0123  -0.2739   H         1 RES1   0.0000
    10 C2      -3.9963   5.0079   1.1285   C.ar      1 RES1   0.0000
    11 H2      -4.8542   4.7831   0.7881   H         1 RES1   0.0000
    12 C3      -3.8766   5.7995   2.2633   C.ar      1 RES1   0.0000
    13 H3      -4.6490   6.1019   2.7265   H         1 RES1   0.0000
    14 C4      -2.6134   6.1385   2.7055   C.ar      1 RES1   0.0000
    15 H4      -2.5003   6.6915   3.4698   H         1 RES1   0.0000
    16 C5      -1.5059   5.6535   2.0091   C.ar      1 RES1   0.0000
    17 C6       0.6210   6.6476   1.3628   C.ar      1 RES1   0.0000
    18 C7       1.1315   7.9305   1.5187   C.ar      1 RES1   0.0000
    19 H5       0.9142   8.4467   2.2861   H         1 RES1   0.0000
    20 C8       1.9631   8.4448   0.5358   C.ar      1 RES1   0.0000
    21 H6       2.3758   9.2935   0.6453   H         1 RES1   0.0000
    22 C9       2.1803   7.6947  -0.6109   C.ar      1 RES1   0.0000
    23 H7       2.7464   8.0209  -1.3006   H         1 RES1   0.0000
    24 C10      1.5633   6.4705  -0.7343   C.ar      1 RES1   0.0000
    25 H8       1.6647   5.9922  -1.5487   H         1 RES1   0.0000
    26 C11      0.2540   5.7969   3.6792   C.2       1 RES1   0.0000
    27 C12      1.6709   6.1792   4.0178   C.3       1 RES1   0.0000
    28 H9       1.7668   7.1622   3.9455   H         1 RES1   0.0000
    29 H10      2.2838   5.7661   3.3592   H         1 RES1   0.0000
    30 C13      2.0781   5.7409   5.4216   C.3       1 RES1   0.0000
    31 H11      1.9752   4.7591   5.4986   H         1 RES1   0.0000
    32 H12      1.4740   6.1628   6.0827   H         1 RES1   0.0000
    33 C14      3.5248   6.1223   5.7462   C.3       1 RES1   0.0000
    34 H13      3.7571   5.7581   6.6370   H         1 RES1   0.0000
    35 H14      4.1225   5.6951   5.0826   H         1 RES1   0.0000
    36 C15      3.7889   7.6213   5.7476   C.3       1 RES1   0.0000
    37 H15      3.1765   8.0496   6.3965   H         1 RES1   0.0000
    38 H16      3.5741   7.9809   4.8507   H         1 RES1   0.0000
    39 C16      5.2246   8.0109   6.0996   C.3       1 RES1   0.0000
    40 H17      5.4175   7.7367   7.0310   H         1 RES1   0.0000
    41 H18      5.8491   7.5255   5.5040   H         1 RES1   0.0000
    42 C17      5.4612   9.5082   5.9595   C.3       1 RES1   0.0000
    43 H19      4.8728   9.9835   6.5980   H         1 RES1   0.0000
    44 H20      5.1995   9.7866   5.0462   H         1 RES1   0.0000
    45 C18      6.9065   9.9416   6.2086   C.3       1 RES1   0.0000
    46 H21      7.1344   9.7632   7.1553   H         1 RES1   0.0000
    47 H22      7.5064   9.3907   5.6459   H         1 RES1   0.0000
    48 C19      7.1660  11.4109   5.9099   C.3       1 RES1   0.0000
    49 H23      8.1440  11.5580   5.8641   H         1 RES1   0.0000
    50 H24      6.7887  11.6259   5.0202   H         1 RES1   0.0000
    51 C20      6.5769  12.3676   6.9331   C.3       1 RES1   0.0000
    52 H25      6.8035  13.2891   6.6876   H         1 RES1   0.0000
    53 H26      6.9446  12.1660   7.8189   H         1 RES1   0.0000
    54 H27      5.6024  12.2654   6.9530   H         1 RES1   0.0000
    55 C21      1.6501   3.0833   2.3807   C.1       1 RES1   0.0000
    56 S1B     -2.8525   5.7243  -3.3472   S.2       1 RES1   0.0000
    57 O1B      0.4973   2.9980  -4.4699   O.2       1 RES1   0.0000
    58 N1B      1.6065   3.4095  -0.9452   N.ar      1 RES1   0.0000
    59 N2B     -0.8176   2.3387  -0.2523   N.ar      1 RES1   0.0000
    60 N3B     -0.8233   4.7746  -1.6628   N.2       1 RES1   0.0000
    61 N4B      0.1985   2.1799  -2.3819   N.am      1 RES1   0.0000
    62 C1B      2.8559   3.7012  -0.5017   C.ar      1 RES1   0.0000
    63 H1B      2.9482   4.2421   0.2739   H         1 RES1   0.0000
    64 C2B      3.9963   3.2465  -1.1285   C.ar      1 RES1   0.0000
    65 H2B      4.8542   3.4713  -0.7881   H         1 RES1   0.0000
    66 C3B      3.8766   2.4549  -2.2633   C.ar      1 RES1   0.0000
    67 H3B      4.6490   2.1525  -2.7265   H         1 RES1   0.0000
    68 C4B      2.6134   2.1159  -2.7055   C.ar      1 RES1   0.0000
    69 H4B      2.5003   1.5629  -3.4698   H         1 RES1   0.0000
    70 C5B      1.5059   2.6009  -2.0091   C.ar      1 RES1   0.0000
    71 C6B     -0.6210   1.6068  -1.3628   C.ar      1 RES1   0.0000
    72 C7B     -1.1315   0.3239  -1.5187   C.ar      1 RES1   0.0000
    73 H5B     -0.9142  -0.1923  -2.2861   H         1 RES1   0.0000
    74 C8B     -1.9631  -0.1904  -0.5358   C.ar      1 RES1   0.0000
    75 H6B     -2.3758  -1.0391  -0.6453   H         1 RES1   0.0000
    76 C9B     -2.1803   0.5597   0.6109   C.ar      1 RES1   0.0000
    77 H7B     -2.7464   0.2335   1.3006   H         1 RES1   0.0000
    78 C10B    -1.5633   1.7839   0.7343   C.ar      1 RES1   0.0000
    79 H8B     -1.6647   2.2622   1.5487   H         1 RES1   0.0000
    80 C11B    -0.2540   2.4575  -3.6792   C.2       1 RES1   0.0000
    81 C12B    -1.6709   2.0752  -4.0178   C.3       1 RES1   0.0000
    82 H9B     -1.7668   1.0922  -3.9455   H         1 RES1   0.0000
    83 H10B    -2.2838   2.4883  -3.3592   H         1 RES1   0.0000
    84 C13B    -2.0781   2.5135  -5.4216   C.3       1 RES1   0.0000
    85 H11B    -1.9752   3.4953  -5.4986   H         1 RES1   0.0000
    86 H12B    -1.4740   2.0916  -6.0827   H         1 RES1   0.0000
    87 C14B    -3.5248   2.1321  -5.7462   C.3       1 RES1   0.0000
    88 H13B    -3.7571   2.4963  -6.6370   H         1 RES1   0.0000
    89 H14B    -4.1225   2.5593  -5.0826   H         1 RES1   0.0000
    90 C15B    -3.7889   0.6331  -5.7476   C.3       1 RES1   0.0000
    91 H15B    -3.1765   0.2048  -6.3965   H         1 RES1   0.0000
    92 H16B    -3.5741   0.2735  -4.8507   H         1 RES1   0.0000
    93 C16B    -5.2246   0.2435  -6.0996   C.3       1 RES1   0.0000
    94 H17B    -5.4175   0.5177  -7.0310   H         1 RES1   0.0000
    95 H18B    -5.8491   0.7289  -5.5040   H         1 RES1   0.0000
    96 C17B    -5.4612  -1.2538  -5.9595   C.3       1 RES1   0.0000
    97 H19B    -4.8728  -1.7291  -6.5980   H         1 RES1   0.0000
    98 H20B    -5.1995  -1.5322  -5.0462   H         1 RES1   0.0000
    99 C18B    -6.9065  -1.6872  -6.2086   C.3       1 RES1   0.0000
   100 H21B    -7.1344  -1.5088  -7.1553   H         1 RES1   0.0000
   101 H22B    -7.5064  -1.1363  -5.6459   H         1 RES1   0.0000
   102 C19B    -7.1660  -3.1565  -5.9099   C.3       1 RES1   0.0000
   103 H23B    -8.1440  -3.3036  -5.8641   H         1 RES1   0.0000
   104 H24B    -6.7887  -3.3715  -5.0202   H         1 RES1   0.0000
   105 C20B    -6.5769  -4.1132  -6.9331   C.3       1 RES1   0.0000
   106 H25B    -6.8035  -5.0347  -6.6876   H         1 RES1   0.0000
   107 H26B    -6.9446  -3.9116  -7.8189   H         1 RES1   0.0000
   108 H27B    -5.6024  -4.0110  -6.9530   H         1 RES1   0.0000
   109 C21B    -1.6501   5.1711  -2.3807   C.1       1 RES1   0.0000
@<TRIPOS>BOND
     1     1     4    1
     2     2    55    2
     3     3    26    2
     4     4     8   ar
     5     5     1    1
     6     6     1    1
     7     7    16    1
     8     8     9    1
     9    10     8   ar
    10    11    10    1
    11    12    10   ar
    12    13    12    1
    13    14    12   ar
    14    15    14    1
    15    16     4   ar
    16    17     5   ar
    17    18    17   ar
    18    19    18    1
    19    20    18   ar
    20    21    20    1
    21    22    20   ar
    22    23    22    1
    23    24     5   ar
    24    25    24    1
    25    26     7   am
    26    27    26    1
    27    28    27    1
    28    29    27    1
    29    30    27    1
    30    31    30    1
    31    32    30    1
    32    33    30    1
    33    34    33    1
    34    35    33    1
    35    36    33    1
    36    37    36    1
    37    38    36    1
    38    39    36    1
    39    40    39    1
    40    41    39    1
    41    42    39    1
    42    43    42    1
    43    44    42    1
    44    45    42    1
    45    46    45    1
    46    47    45    1
    47    48    45    1
    48    49    48    1
    49    50    48    1
    50    51    48    1
    51    52    51    1
    52    53    51    1
    53    54    51    1
    54    55     6    2
    55    56   109    2
    56    57    80    2
    57    58     1    1
    58    59     1    1
    59    60     1    1
    60    61    70    1
    61    62    58   ar
    62    63    62    1
    63    64    62   ar
    64    65    64    1
    65    66    64   ar
    66    67    66    1
    67    68    66   ar
    68    69    68    1
    69    70    58   ar
    70    71    59   ar
    71    72    71   ar
    72    73    72    1
    73    74    72   ar
    74    75    74    1
    75    76    74   ar
    76    77    76    1
    77    78    59   ar
    78    79    78    1
    79    80    61   am
    80    81    80    1
    81    82    81    1
    82    83    81    1
    83    84    81    1
    84    85    84    1
    85    86    84    1
    86    87    84    1
    87    88    87    1
    88    89    87    1
    89    90    87    1
    90    91    90    1
    91    92    90    1
    92    93    90    1
    93    94    93    1
    94    95    93    1
    95    96    93    1
    96    97    96    1
    97    98    96    1
    98    99    96    1
    99   100    99    1
   100   101    99    1
   101   102    99    1
   102   103   102    1
   103   104   102    1
   104   105   102    1
   105   106   105    1
   106   107   105    1
   107   108   105    1
   108   109    60    2
   109     7    17    1
   110    14    16   ar
   111    22    24   ar
   112    61    71    1
   113    68    70   ar
   114    76    78   ar
@<TRIPOS>SUBSTRUCTURE
     1 RES1        1 GROUP             0 ****  ****    0  
@<TRIPOS>CRYSIN
   15.9129    8.2544   17.5843   90.0000  114.9660   90.0000    14     1
