@<TRIPOS>MOLECULE
FOTHEE
   152   174     1     0     0
SMALL
NO_CHARGES
****
Generated from the CSD

@<TRIPOS>ATOM
     1 Fe1      2.0814   0.7530  13.8940   Fe        1 RES1   0.0000
     2 Fe2      5.6393   2.2201  13.5798   Fe        1 RES1   0.0000
     3 Fe3      3.8688   0.8369  11.4304   Fe        1 RES1   0.0000
     4 Fe4      0.3484  -0.6306  11.6701   Fe        1 RES1   0.0000
     5 Fe5      1.0613   2.3810  11.3627   Fe        1 RES1   0.0000
     6 Cl1      7.8942   3.0950  13.4865   Cl        1 RES1   0.0000
     7 Cl2      4.2158   0.2618   9.2265   Cl        1 RES1   0.0000
     8 Cl3      0.2491  -1.2794   9.4806   Cl        1 RES1   0.0000
     9 Cl4      0.2455   4.5187  11.3921   Cl        1 RES1   0.0000
    10 O1       3.9609   1.1595  13.5046   O.3       1 RES1   0.0000
    11 O2       1.9484   0.4534  11.8400   O.3       1 RES1   0.0000
    12 O3       0.2983  -0.3606  13.7996   O.3       1 RES1   0.0000
    13 O4       1.2152   2.4395  13.4208   O.3       1 RES1   0.0000
    14 O5       2.1742   0.9462  15.8430   O.3       1 RES1   0.0000
    15 O6       5.6242   1.7650  11.6667   O.3       1 RES1   0.0000
    16 O7       5.6424   2.3397  15.5718   O.3       1 RES1   0.0000
    17 O8       2.9628   2.5953  11.0181   O.3       1 RES1   0.0000
    18 O9      -0.4840   1.1717  11.4752   O.3       1 RES1   0.0000
    19 O10     -1.6186  -1.4225  12.0357   O.3       1 RES1   0.0000
    20 H1      -1.7461  -1.7885  12.8337   H         1 RES1   0.0000
    21 N1       4.9068   4.1577  13.3481   N.2       1 RES1   0.0000
    22 N2       3.5305   5.8632  13.2894   N.pl3     1 RES1   0.0000
    23 N3       0.7221   2.4209   9.2388   N.2       1 RES1   0.0000
    24 N4       0.5000   1.5340   7.2178   N.pl3     1 RES1   0.0000
    25 C1      -0.8066   0.2305  14.5012   C.3       1 RES1   0.0000
    26 H2      -0.5071   0.5381  15.3822   H         1 RES1   0.0000
    27 H3      -1.5165  -0.4367  14.6128   H         1 RES1   0.0000
    28 H4      -1.1504   0.9906  13.9884   H         1 RES1   0.0000
    29 C2       0.3146   3.2413  14.2636   C.3       1 RES1   0.0000
    30 H5       0.2066   2.8032  15.1343   H         1 RES1   0.0000
    31 H6      -0.5590   3.3178  13.8265   H         1 RES1   0.0000
    32 H7       0.6959   4.1341  14.3923   H         1 RES1   0.0000
    33 C3       2.4501   2.1701  16.5209   C.3       1 RES1   0.0000
    34 H8       2.6496   2.8697  15.8633   H         1 RES1   0.0000
    35 H9       3.2206   2.0493  17.1131   H         1 RES1   0.0000
    36 H10      1.6684   2.4337  17.0500   H         1 RES1   0.0000
    37 C4       6.5784   2.0576  10.6435   C.3       1 RES1   0.0000
    38 H11      7.1614   2.7873  10.9408   H         1 RES1   0.0000
    39 H12      6.1087   2.3273   9.8266   H         1 RES1   0.0000
    40 H13      7.1179   1.2606  10.4628   H         1 RES1   0.0000
    41 C5       5.6981   3.5917  16.2651   C.3       1 RES1   0.0000
    42 H14      6.5023   4.0806  15.9923   H         1 RES1   0.0000
    43 H15      5.7273   3.4283  17.2313   H         1 RES1   0.0000
    44 H16      4.9034   4.1213  16.0472   H         1 RES1   0.0000
    45 C6       3.5184   3.6341  10.2298   C.3       1 RES1   0.0000
    46 H17      4.2381   4.0733  10.7284   H         1 RES1   0.0000
    47 H18      2.8213   4.2892  10.0161   H         1 RES1   0.0000
    48 H19      3.8778   3.2571   9.3997   H         1 RES1   0.0000
    49 C7      -1.7691   1.4529  10.9496   C.3       1 RES1   0.0000
    50 H20     -1.7697   1.2881   9.9840   H         1 RES1   0.0000
    51 H21     -1.9947   2.3900  11.1225   H         1 RES1   0.0000
    52 H22     -2.4314   0.8722  11.3805   H         1 RES1   0.0000
    53 C8      -2.4429  -2.2015  11.1509   C.3       1 RES1   0.0000
    54 H23     -2.8192  -1.6194  10.4577   H         1 RES1   0.0000
    55 H24     -3.1713  -2.6139  11.6610   H         1 RES1   0.0000
    56 H25     -1.9012  -2.9014  10.7308   H         1 RES1   0.0000
    57 C9       3.6544   4.5486  13.4348   C.2       1 RES1   0.0000
    58 H26      2.9241   3.9593  13.5825   H         1 RES1   0.0000
    59 C10      4.7736   6.3647  13.0923   C.2       1 RES1   0.0000
    60 H27      5.0051   7.2748  12.9522   H         1 RES1   0.0000
    61 C11      5.6138   5.3193  13.1342   C.2       1 RES1   0.0000
    62 H28      6.5571   5.3717  13.0308   H         1 RES1   0.0000
    63 C12      2.2976   6.6376  13.3285   C.3       1 RES1   0.0000
    64 H29      2.1449   7.0537  12.4545   H         1 RES1   0.0000
    65 H30      2.3717   7.3357  14.0133   H         1 RES1   0.0000
    66 H31      1.5462   6.0472  13.5451   H         1 RES1   0.0000
    67 C13      1.1283   1.4971   8.4240   C.2       1 RES1   0.0000
    68 H32      1.7958   0.8593   8.6471   H         1 RES1   0.0000
    69 C14     -0.4089   2.6016   7.2779   C.2       1 RES1   0.0000
    70 H33     -1.0042   2.8847   6.5930   H         1 RES1   0.0000
    71 C15     -0.2692   3.1399   8.4925   C.2       1 RES1   0.0000
    72 H34     -0.7544   3.8899   8.8153   H         1 RES1   0.0000
    73 C16      0.7079   0.5458   6.1331   C.3       1 RES1   0.0000
    74 H35      1.1611   0.9778   5.3796   H         1 RES1   0.0000
    75 H36     -0.1593   0.1978   5.8370   H         1 RES1   0.0000
    76 H37      1.2594  -0.1935   6.4656   H         1 RES1   0.0000
    77 Fe1B     4.6205  -0.7530  14.0601   Fe        1 RES1   0.0000
    78 Fe2B     1.0626  -2.2201  14.3743   Fe        1 RES1   0.0000
    79 Fe3B     2.8331  -0.8369  16.5237   Fe        1 RES1   0.0000
    80 Fe4B     6.3534   0.6306  16.2840   Fe        1 RES1   0.0000
    81 Fe5B     5.6406  -2.3810  16.5915   Fe        1 RES1   0.0000
    82 Cl1B    -1.1923  -3.0950  14.4677   Cl        1 RES1   0.0000
    83 Cl2B     2.4861  -0.2618  18.7276   Cl        1 RES1   0.0000
    84 Cl3B     6.4528   1.2794  18.4735   Cl        1 RES1   0.0000
    85 Cl4B     6.4564  -4.5187  16.5620   Cl        1 RES1   0.0000
    86 O1B      2.7409  -1.1595  14.4495   O.3       1 RES1   0.0000
    87 O2B      4.7534  -0.4534  16.1142   O.3       1 RES1   0.0000
    88 O3B      6.4035   0.3606  14.1546   O.3       1 RES1   0.0000
    89 O4B      5.4866  -2.4395  14.5334   O.3       1 RES1   0.0000
    90 O5B      4.5277  -0.9462  12.1111   O.3       1 RES1   0.0000
    91 O6B      1.0777  -1.7650  16.2875   O.3       1 RES1   0.0000
    92 O7B      1.0595  -2.3397  12.3823   O.3       1 RES1   0.0000
    93 O8B      3.7391  -2.5953  16.9360   O.3       1 RES1   0.0000
    94 O9B      7.1859  -1.1717  16.4790   O.3       1 RES1   0.0000
    95 O10B     8.3205   1.4225  15.9185   O.3       1 RES1   0.0000
    96 H1B      8.4480   1.7885  15.1204   H         1 RES1   0.0000
    97 N1B      1.7951  -4.1577  14.6060   N.2       1 RES1   0.0000
    98 N2B      3.1714  -5.8632  14.6647   N.pl3     1 RES1   0.0000
    99 N3B      5.9798  -2.4209  18.7153   N.2       1 RES1   0.0000
   100 N4B      6.2018  -1.5340  20.7364   N.pl3     1 RES1   0.0000
   101 C1B      7.5085  -0.2305  13.4529   C.3       1 RES1   0.0000
   102 H2B      7.2090  -0.5381  12.5720   H         1 RES1   0.0000
   103 H3B      8.2184   0.4367  13.3414   H         1 RES1   0.0000
   104 H4B      7.8523  -0.9906  13.9658   H         1 RES1   0.0000
   105 C2B      6.3873  -3.2413  13.6905   C.3       1 RES1   0.0000
   106 H5B      6.4953  -2.8032  12.8199   H         1 RES1   0.0000
   107 H6B      7.2609  -3.3178  14.1276   H         1 RES1   0.0000
   108 H7B      6.0060  -4.1341  13.5618   H         1 RES1   0.0000
   109 C3B      4.2517  -2.1701  11.4332   C.3       1 RES1   0.0000
   110 H8B      4.0523  -2.8697  12.0908   H         1 RES1   0.0000
   111 H9B      3.4813  -2.0493  10.8410   H         1 RES1   0.0000
   112 H10B     5.0334  -2.4337  10.9041   H         1 RES1   0.0000
   113 C4B      0.1235  -2.0576  17.3106   C.3       1 RES1   0.0000
   114 H11B    -0.4595  -2.7873  17.0134   H         1 RES1   0.0000
   115 H12B     0.5931  -2.3273  18.1275   H         1 RES1   0.0000
   116 H13B    -0.4161  -1.2606  17.4914   H         1 RES1   0.0000
   117 C5B      1.0037  -3.5917  11.6890   C.3       1 RES1   0.0000
   118 H14B     0.1996  -4.0806  11.9618   H         1 RES1   0.0000
   119 H15B     0.9746  -3.4283  10.7229   H         1 RES1   0.0000
   120 H16B     1.7985  -4.1213  11.9069   H         1 RES1   0.0000
   121 C6B      3.1834  -3.6341  17.7243   C.3       1 RES1   0.0000
   122 H17B     2.4638  -4.0733  17.2258   H         1 RES1   0.0000
   123 H18B     3.8805  -4.2892  17.9381   H         1 RES1   0.0000
   124 H19B     2.8241  -3.2571  18.5544   H         1 RES1   0.0000
   125 C7B      8.4710  -1.4529  17.0045   C.3       1 RES1   0.0000
   126 H20B     8.4716  -1.2881  17.9701   H         1 RES1   0.0000
   127 H21B     8.6965  -2.3900  16.8316   H         1 RES1   0.0000
   128 H22B     9.1333  -0.8722  16.5736   H         1 RES1   0.0000
   129 C8B      9.1448   2.2015  16.8032   C.3       1 RES1   0.0000
   130 H23B     9.5211   1.6194  17.4965   H         1 RES1   0.0000
   131 H24B     9.8732   2.6139  16.2932   H         1 RES1   0.0000
   132 H25B     8.6031   2.9014  17.2233   H         1 RES1   0.0000
   133 C9B      3.0475  -4.5486  14.5194   C.2       1 RES1   0.0000
   134 H26B     3.7778  -3.9593  14.3717   H         1 RES1   0.0000
   135 C10B     1.9283  -6.3647  14.8618   C.2       1 RES1   0.0000
   136 H27B     1.6967  -7.2748  15.0019   H         1 RES1   0.0000
   137 C11B     1.0881  -5.3193  14.8199   C.2       1 RES1   0.0000
   138 H28B     0.1448  -5.3717  14.9233   H         1 RES1   0.0000
   139 C12B     4.4043  -6.6376  14.6256   C.3       1 RES1   0.0000
   140 H29B     4.5570  -7.0537  15.4997   H         1 RES1   0.0000
   141 H30B     4.3301  -7.3357  13.9408   H         1 RES1   0.0000
   142 H31B     5.1557  -6.0472  14.4091   H         1 RES1   0.0000
   143 C13B     5.5736  -1.4971  19.5302   C.2       1 RES1   0.0000
   144 H32B     4.9060  -0.8593  19.3070   H         1 RES1   0.0000
   145 C14B     7.1108  -2.6016  20.6763   C.2       1 RES1   0.0000
   146 H33B     7.7060  -2.8847  21.3611   H         1 RES1   0.0000
   147 C15B     6.9710  -3.1399  19.4617   C.2       1 RES1   0.0000
   148 H34B     7.4562  -3.8899  19.1388   H         1 RES1   0.0000
   149 C16B     5.9939  -0.5458  21.8210   C.3       1 RES1   0.0000
   150 H35B     5.5408  -0.9778  22.5745   H         1 RES1   0.0000
   151 H36B     6.8612  -0.1978  22.1171   H         1 RES1   0.0000
   152 H37B     5.4424   0.1935  21.4885   H         1 RES1   0.0000
@<TRIPOS>BOND
     1     1    10    1
     2     2     6    1
     3     3     7    1
     4     4     8    1
     5     5     9    1
     6    10     2    1
     7    11     1    1
     8    12     1    1
     9    13     1    1
    10    14     1    1
    11    15     2    1
    12    16     2    1
    13    17     3    1
    14    18     4    1
    15    19     4    1
    16    20    19    1
    17    21     2    1
    18    22    57    1
    19    23     5    1
    20    24    67    1
    21    25    12    1
    22    26    25    1
    23    27    25    1
    24    28    25    1
    25    29    13    1
    26    30    29    1
    27    31    29    1
    28    32    29    1
    29    33    14    1
    30    34    33    1
    31    35    33    1
    32    36    33    1
    33    37    15    1
    34    38    37    1
    35    39    37    1
    36    40    37    1
    37    41    16    1
    38    42    41    1
    39    43    41    1
    40    44    41    1
    41    45    17    1
    42    46    45    1
    43    47    45    1
    44    48    45    1
    45    49    18    1
    46    50    49    1
    47    51    49    1
    48    52    49    1
    49    53    19    1
    50    54    53    1
    51    55    53    1
    52    56    53    1
    53    57    21    2
    54    58    57    1
    55    59    22    1
    56    60    59    1
    57    61    21    1
    58    62    61    1
    59    63    22    1
    60    64    63    1
    61    65    63    1
    62    66    63    1
    63    67    23    2
    64    68    67    1
    65    69    24    1
    66    70    69    1
    67    71    23    1
    68    72    71    1
    69    73    24    1
    70    74    73    1
    71    75    73    1
    72    76    73    1
    73    77    10    1
    74    78    12    1
    75    79    14    1
    76    80    16    1
    77    81    85    1
    78    82    78    1
    79    83    79    1
    80    84    80    1
    81    86     1    1
    82    87    77    1
    83    88     2    1
    84    89    77    1
    85    90     3    1
    86    91    78    1
    87    92     4    1
    88    93    79    1
    89    94    80    1
    90    95    80    1
    91    96    95    1
    92    97    78    1
    93    98   133    1
    94    99    81    1
    95   100   143    1
    96   101    88    1
    97   102   101    1
    98   103   101    1
    99   104   101    1
   100   105    89    1
   101   106   105    1
   102   107   105    1
   103   108   105    1
   104   109    90    1
   105   110   109    1
   106   111   109    1
   107   112   109    1
   108   113    91    1
   109   114   113    1
   110   115   113    1
   111   116   113    1
   112   117    92    1
   113   118   117    1
   114   119   117    1
   115   120   117    1
   116   121    93    1
   117   122   121    1
   118   123   121    1
   119   124   121    1
   120   125    94    1
   121   126   125    1
   122   127   125    1
   123   128   125    1
   124   129    95    1
   125   130   129    1
   126   131   129    1
   127   132   129    1
   128   133    97    2
   129   134   133    1
   130   135    98    1
   131   136   135    1
   132   137    97    1
   133   138   137    1
   134   139    98    1
   135   140   139    1
   136   141   139    1
   137   142   139    1
   138   143    99    2
   139   144   143    1
   140   145   100    1
   141   146   145    1
   142   147    99    1
   143   148   147    1
   144   149   100    1
   145   150   149    1
   146   151   149    1
   147   152   149    1
   148     3    10    1
   149     3    11    1
   150     3    15    1
   151     4    11    1
   152     4    12    1
   153     5    11    1
   154     5    13    1
   155     5    17    1
   156     5    18    1
   157    59    61    2
   158    69    71    2
   159    77    86    1
   160    77    88    1
   161    77    90    1
   162    78    86    1
   163    78    92    1
   164    79    86    1
   165    79    87    1
   166    79    91    1
   167    80    87    1
   168    80    88    1
   169    81    87    1
   170    81    89    1
   171    81    93    1
   172    81    94    1
   173   135   137    2
   174   145   147    2
@<TRIPOS>SUBSTRUCTURE
     1 RES1        1 GROUP             0 ****  ****    0  
@<TRIPOS>CRYSIN
   11.8763   18.4377   14.2145   90.0000  100.4870   90.0000    14     1
