@<TRIPOS>MOLECULE
FOYXOI01
   123   131     3     0     0
SMALL
USER_CHARGES
****
Generated from the CSD

@<TRIPOS>ATOM
     1 Fe1     10.1925   6.8062  12.1765   Fe        1 RES1   1.0000
     2 O1      10.3792   4.9011  12.3772   O.3       1 RES1   0.0000
     3 O2      10.6279   7.6060  13.8537   O.3       1 RES1   0.0000
     4 O3      10.5059  -0.5944   9.2527   O.2       1 RES1   0.0000
     5 O4      10.3087   0.8493   7.5276   O.3       1 RES1   0.0000
     6 O5      10.5051  13.8173  15.2430   O.2       1 RES1   0.0000
     7 O6      11.2154  12.9324  17.1617   O.3       1 RES1   0.0000
     8 N1       9.4815   6.4478  10.2273   N.2       1 RES1   0.0000
     9 N2       9.8704   8.7801  11.4443   N.2       1 RES1   0.0000
    10 N3       8.1450   6.6304  12.8048   N.2       1 RES1   0.0000
    11 N4       6.2623   6.8670  13.9313   N.pl3     1 RES1   0.0000
    12 N5      12.2668   6.9099  11.6035   N.2       1 RES1   0.0000
    13 N6      14.4415   7.1207  11.8083   N.pl3     1 RES1   0.0000
    14 C1      10.3887   3.9109  11.5057   C.ar      1 RES1   0.0000
    15 C2      10.7784   2.6362  11.9086   C.ar      1 RES1   0.0000
    16 C3      10.8260   1.5773  11.0649   C.ar      1 RES1   0.0000
    17 C4      10.4630   1.7416   9.7008   C.ar      1 RES1   0.0000
    18 C5      10.4497   0.5515   8.8396   C.2       1 RES1   0.0000
    19 C6      10.1341  -0.2782   6.6446   C.3       1 RES1   0.0000
    20 C7      10.2039   0.2770   5.2346   C.3       1 RES1   0.0000
    21 C8      10.0832   2.9843   9.2723   C.ar      1 RES1   0.0000
    22 C9      10.0260   4.0984  10.1432   C.ar      1 RES1   0.0000
    23 C10      9.5087   5.3264   9.5929   C.2       1 RES1   0.0000
    24 C11      8.8206   7.5827   9.6044   C.3       1 RES1   0.0000
    25 C12      9.5982   8.8488   9.9642   C.3       1 RES1   0.0000
    26 C13      9.9444   9.8476  12.1079   C.2       1 RES1   0.0000
    27 C14     10.3388   9.9726  13.4860   C.ar      1 RES1   0.0000
    28 C15     10.3913  11.2668  14.0490   C.ar      1 RES1   0.0000
    29 C16     10.7823  11.4617  15.3756   C.ar      1 RES1   0.0000
    30 C17     10.8310  12.8491  15.8872   C.2       1 RES1   0.0000
    31 C18     11.2460  14.2622  17.7353   C.3       1 RES1   0.0000
    32 C19     11.5242  14.1360  19.1857   C.3       1 RES1   0.0000
    33 C20     11.1361  10.3722  16.1543   C.ar      1 RES1   0.0000
    34 C21     11.0702   9.0694  15.6222   C.ar      1 RES1   0.0000
    35 C22     10.6666   8.8316  14.3348   C.ar      1 RES1   0.0000
    36 C23      7.4555   7.3977  13.6659   C.2       1 RES1   0.0000
    37 C24      5.2340   7.4651  14.7745   C.3       1 RES1   0.0000
    38 C25      6.1554   5.7100  13.2226   C.2       1 RES1   0.0000
    39 C26      7.3133   5.5581  12.5204   C.2       1 RES1   0.0000
    40 C27     13.2591   7.2518  12.4018   C.2       1 RES1   0.0000
    41 C28     15.7500   7.4075  12.3833   C.3       1 RES1   0.0000
    42 C29     14.2226   6.6721  10.5358   C.2       1 RES1   0.0000
    43 C30     12.8706   6.5312  10.4164   C.2       1 RES1   0.0000
    44 H1      11.0043   2.5039  12.8006   H         1 RES1   0.0000
    45 H2      11.0933   0.7390  11.3686   H         1 RES1   0.0000
    46 H3       9.2782  -0.7010   6.8234   H         1 RES1   0.0000
    47 H4      10.8483  -0.9155   6.8066   H         1 RES1   0.0000
    48 H5       9.4999   0.9180   5.1141   H         1 RES1   0.0000
    49 H6      10.0995  -0.4363   4.6013   H         1 RES1   0.0000
    50 H7      11.0524   0.7047   5.0973   H         1 RES1   0.0000
    51 H8       9.8396   3.0971   8.3815   H         1 RES1   0.0000
    52 H9       9.1743   5.3117   8.7261   H         1 RES1   0.0000
    53 H10      7.9091   7.6281   9.9367   H         1 RES1   0.0000
    54 H11      8.8078   7.4504   8.6449   H         1 RES1   0.0000
    55 H12     10.4428   8.8868   9.4855   H         1 RES1   0.0000
    56 H13      9.0885   9.6552   9.7854   H         1 RES1   0.0000
    57 H14      9.7582  10.6393  11.6573   H         1 RES1   0.0000
    58 H15     10.1466  11.9961  13.5264   H         1 RES1   0.0000
    59 H16     10.3772  14.6617  17.5784   H         1 RES1   0.0000
    60 H17     11.9249  14.7855  17.2814   H         1 RES1   0.0000
    61 H18     10.8460  13.5942  19.5960   H         1 RES1   0.0000
    62 H19     11.5325  15.0024  19.5988   H         1 RES1   0.0000
    63 H20     12.3815  13.7168  19.3018   H         1 RES1   0.0000
    64 H21     11.4042  10.5033  17.0348   H         1 RES1   0.0000
    65 H22     11.3037   8.3475  16.1605   H         1 RES1   0.0000
    66 H23      7.7790   8.1918  14.0252   H         1 RES1   0.0000
    67 H24      4.8866   6.7726  15.4767   H         1 RES1   0.0000
    68 H25      4.3884   7.7653  14.1036   H         1 RES1   0.0000
    69 H26      5.6920   8.2923  15.1965   H         1 RES1   0.0000
    70 H27      5.4311   5.1279  13.2209   H         1 RES1   0.0000
    71 H28      7.5212   4.8521  11.9515   H         1 RES1   0.0000
    72 H29     13.1436   7.5509  13.2742   H         1 RES1   0.0000
    73 H30     15.6597   7.5398  13.3302   H         1 RES1   0.0000
    74 H31     16.1000   8.2066  11.9823   H         1 RES1   0.0000
    75 H32     16.3519   6.6770  12.2205   H         1 RES1   0.0000
    76 H33     14.8571   6.4932   9.8807   H         1 RES1   0.0000
    77 H34     12.4216   6.2346   9.6593   H         1 RES1   0.0000
    78 O7      11.5191  10.0008  21.0167   O.3       2 RES2   0.0000
    79 C31      8.4041   4.0126   4.1058   C.ar      3 RES3   0.0000
    80 C32      9.6076   3.7662   3.4128   C.ar      3 RES3   0.0000
    81 C33      9.7753   2.6546   2.5923   C.ar      3 RES3   0.0000
    82 C34      8.7337   1.7305   2.4248   C.ar      3 RES3   0.0000
    83 C35      7.5338   1.9842   3.0665   C.ar      3 RES3   0.0000
    84 C36      7.4014   3.0848   3.8786   C.ar      3 RES3   0.0000
    85 C37      9.5122   6.0311   5.6258   C.ar      3 RES3   0.0000
    86 C38     10.5756   5.2210   6.1072   C.ar      3 RES3   0.0000
    87 C39     11.6549   5.7750   6.7817   C.ar      3 RES3   0.0000
    88 C40     11.7500   7.1329   6.9871   C.ar      3 RES3   0.0000
    89 C41     10.7462   7.9663   6.5194   C.ar      3 RES3   0.0000
    90 C42      9.6395   7.4062   5.8746   C.ar      3 RES3   0.0000
    91 C43      7.2630   5.0347   6.3815   C.ar      3 RES3   0.0000
    92 C44      7.2876   3.8055   7.0109   C.ar      3 RES3   0.0000
    93 C45      6.6537   3.5922   8.3109   C.ar      3 RES3   0.0000
    94 C46      5.9988   4.6376   8.8870   C.ar      3 RES3   0.0000
    95 C47      5.9376   5.8608   8.2627   C.ar      3 RES3   0.0000
    96 C48      6.5918   6.0679   7.0353   C.ar      3 RES3   0.0000
    97 C49      7.3149   6.3780   4.0150   C.ar      3 RES3   0.0000
    98 C50      5.9473   6.2959   3.8250   C.ar      3 RES3   0.0000
    99 C51      5.2535   7.0569   2.8807   C.ar      3 RES3   0.0000
   100 C52      5.9351   7.9590   2.0933   C.ar      3 RES3   0.0000
   101 C53      7.3160   8.0938   2.2418   C.ar      3 RES3   0.0000
   102 C54      7.9763   7.3155   3.1651   C.ar      3 RES3   0.0000
   103 B1       8.1371   5.3546   5.0174   B         3 RES3  -1.0000
   104 H35     10.3065   4.3729   3.4972   H         3 RES3   0.0000
   105 H36     10.5825   2.5247   2.1493   H         3 RES3   0.0000
   106 H37      8.8536   0.9743   1.8943   H         3 RES3   0.0000
   107 H38      6.8257   1.3947   2.9451   H         3 RES3   0.0000
   108 H39      6.5884   3.2172   4.3098   H         3 RES3   0.0000
   109 H40     10.5326   4.3006   5.9772   H         3 RES3   0.0000
   110 H41     12.3293   5.2137   7.0896   H         3 RES3   0.0000
   111 H42     12.4797   7.4896   7.4371   H         3 RES3   0.0000
   112 H43     10.8015   8.8855   6.6497   H         3 RES3   0.0000
   113 H44      8.9666   7.9737   5.5764   H         3 RES3   0.0000
   114 H45      7.7284   3.0922   6.6077   H         3 RES3   0.0000
   115 H46      6.6883   2.7588   8.7233   H         3 RES3   0.0000
   116 H47      5.5831   4.5151   9.7097   H         3 RES3   0.0000
   117 H48      5.4848   6.5679   8.6645   H         3 RES3   0.0000
   118 H49      6.5563   6.9062   6.6329   H         3 RES3   0.0000
   119 H50      5.4691   5.7002   4.3547   H         3 RES3   0.0000
   120 H51      4.3344   6.9564   2.7826   H         3 RES3   0.0000
   121 H52      5.4797   8.4786   1.4712   H         3 RES3   0.0000
   122 H53      7.7823   8.7041   1.7178   H         3 RES3   0.0000
   123 H54      8.8985   7.4001   3.2366   H         3 RES3   0.0000
@<TRIPOS>BOND
     1     1     2    1
     2     2    14    1
     3     3     1    1
     4     4    18    2
     5     5    18    1
     6     6    30    2
     7     7    30    1
     8     8     1    1
     9     9     1    1
    10    10     1    1
    11    11    36    1
    12    12     1    1
    13    13    40    1
    14    14    15   ar
    15    15    16   ar
    16    16    17   ar
    17    17    18    1
    18    19     5    1
    19    20    19    1
    20    21    17   ar
    21    22    14   ar
    22    23     8    2
    23    24     8    1
    24    25     9    1
    25    26     9    2
    26    27    26    1
    27    28    27   ar
    28    29    28   ar
    29    30    29    1
    30    31     7    1
    31    32    31    1
    32    33    29   ar
    33    34    33   ar
    34    35     3    1
    35    36    10    2
    36    37    11    1
    37    38    11    1
    38    39    10    1
    39    40    12    2
    40    41    13    1
    41    42    13    1
    42    43    12    1
    43    44    15    1
    44    45    16    1
    45    46    19    1
    46    47    19    1
    47    48    20    1
    48    49    20    1
    49    50    20    1
    50    51    21    1
    51    52    23    1
    52    53    24    1
    53    54    24    1
    54    55    25    1
    55    56    25    1
    56    57    26    1
    57    58    28    1
    58    59    31    1
    59    60    31    1
    60    61    32    1
    61    62    32    1
    62    63    32    1
    63    64    33    1
    64    65    34    1
    65    66    36    1
    66    67    37    1
    67    68    37    1
    68    69    37    1
    69    70    38    1
    70    71    39    1
    71    72    40    1
    72    73    41    1
    73    74    41    1
    74    75    41    1
    75    76    42    1
    76    77    43    1
    77    21    22   ar
    78    22    23    1
    79    24    25    1
    80    27    35   ar
    81    34    35   ar
    82    38    39    2
    83    42    43    2
    84    79    80   ar
    85    80    81   ar
    86    81    82   ar
    87    82    83   ar
    88    83    84   ar
    89    84    79   ar
    90    85    86   ar
    91    86    87   ar
    92    87    88   ar
    93    88    89   ar
    94    89    90   ar
    95    90    85   ar
    96    91    92   ar
    97    92    93   ar
    98    93    94   ar
    99    94    95   ar
   100    95    96   ar
   101    96    91   ar
   102    97    98   ar
   103    98    99   ar
   104    99   100   ar
   105   100   101   ar
   106   101   102   ar
   107   102    97   ar
   108   103    79    1
   109   104    80    1
   110   105    81    1
   111   106    82    1
   112   107    83    1
   113   108    84    1
   114   109    86    1
   115   110    87    1
   116   111    88    1
   117   112    89    1
   118   113    90    1
   119   114    92    1
   120   115    93    1
   121   116    94    1
   122   117    95    1
   123   118    96    1
   124   119    98    1
   125   120    99    1
   126   121   100    1
   127   122   101    1
   128   123   102    1
   129    85   103    1
   130    91   103    1
   131    97   103    1
@<TRIPOS>SUBSTRUCTURE
     1 RES1        1 GROUP             0 ****  ****    0  
     2 RES2       78 GROUP             0 ****  ****    0  
     3 RES3       79 GROUP             0 ****  ****    0  
@<TRIPOS>CRYSIN
   29.3553   12.2559   28.3370   90.0000   98.5470   90.0000    15     1
