@<TRIPOS>MOLECULE
FUFJAS
   131   141     5     0     0
SMALL
USER_CHARGES
****
Generated from the CSD

@<TRIPOS>ATOM
     1 Fe1      1.6379   7.4987  17.1529   Fe        1 RES1   2.0000
     2 N1       0.8962   7.5376  15.3091   N.ar      1 RES1   0.0000
     3 N2       2.5211   9.0621  16.4717   N.2       1 RES1   0.0000
     4 N3       3.3617   9.9865  17.0174   N.2       1 RES1   0.0000
     5 N4       4.7472  12.8132  15.2651   N.ar      1 RES1   0.0000
     6 N5       2.8148  10.6258  14.9605   N.pl3     1 RES1   0.0000
     7 C1       0.0377   6.6472  14.7907   C.ar      1 RES1   0.0000
     8 H1      -0.2144   5.8993  15.3197   H         1 RES1   0.0000
     9 C2      -0.4982   6.7662  13.5227   C.ar      1 RES1   0.0000
    10 H2      -1.1216   6.1229  13.2060   H         1 RES1   0.0000
    11 C3      -0.1235   7.8252  12.7159   C.ar      1 RES1   0.0000
    12 H3      -0.4755   7.9167  11.8388   H         1 RES1   0.0000
    13 C4       0.7819   8.7535  13.2201   C.ar      1 RES1   0.0000
    14 H4       1.0665   9.4896  12.6891   H         1 RES1   0.0000
    15 C5       1.2625   8.5848  14.5155   C.ar      1 RES1   0.0000
    16 C6       2.1824   9.4373  15.2308   C.2       1 RES1   0.0000
    17 C7       3.5398  10.9161  16.0965   C.2       1 RES1   0.0000
    18 C8       4.4397  12.0693  16.3183   C.ar      1 RES1   0.0000
    19 C9       4.9636  12.2588  17.5903   C.ar      1 RES1   0.0000
    20 H5       4.6984  11.7084  18.3199   H         1 RES1   0.0000
    21 C10      5.8795  13.2721  17.7594   C.ar      1 RES1   0.0000
    22 H6       6.2697  13.4277  18.6121   H         1 RES1   0.0000
    23 C11      6.2214  14.0475  16.7009   C.ar      1 RES1   0.0000
    24 H7       6.8667  14.7378  16.8004   H         1 RES1   0.0000
    25 C12      5.6211  13.8252  15.4791   C.ar      1 RES1   0.0000
    26 H8       5.8293  14.4070  14.7569   H         1 RES1   0.0000
    27 C13      2.6900  11.4404  13.7587   C.ar      1 RES1   0.0000
    28 C14      3.3650  11.0612  12.6099   C.ar      1 RES1   0.0000
    29 H9       3.8834  10.2649  12.5949   H         1 RES1   0.0000
    30 C15      3.2704  11.8653  11.4813   C.ar      1 RES1   0.0000
    31 H10      3.7349  11.6286  10.6866   H         1 RES1   0.0000
    32 C16      2.5002  13.0093  11.5151   C.ar      1 RES1   0.0000
    33 H11      2.4461  13.5637  10.7470   H         1 RES1   0.0000
    34 C17      1.8100  13.3558  12.6538   C.ar      1 RES1   0.0000
    35 H12      1.2816  14.1455  12.6625   H         1 RES1   0.0000
    36 C18      1.8784  12.5596  13.7957   C.ar      1 RES1   0.0000
    37 H13      1.3823  12.7792  14.5757   H         1 RES1   0.0000
    38 N6       3.0391   6.1843  16.7007   N.ar      1 RES1   0.0000
    39 N7       0.7604   5.8862  17.6841   N.2       1 RES1   0.0000
    40 N8      -0.4502   5.6404  18.2897   N.2       1 RES1   0.0000
    41 N9      -1.3368   2.6084  19.9719   N.ar      1 RES1   0.0000
    42 N10      0.7507   3.7668  18.2336   N.pl3     1 RES1   0.0000
    43 C19      4.2314   6.4654  16.1613   C.ar      1 RES1   0.0000
    44 H14      4.4381   7.3715  15.9695   H         1 RES1   0.0000
    45 C20      5.1765   5.4992  15.8704   C.ar      1 RES1   0.0000
    46 H15      6.0142   5.7398  15.4936   H         1 RES1   0.0000
    47 C21      4.8786   4.1787  16.1434   C.ar      1 RES1   0.0000
    48 H16      5.4994   3.4936  15.9260   H         1 RES1   0.0000
    49 C22      3.6647   3.8636  16.7376   C.ar      1 RES1   0.0000
    50 H17      3.4492   2.9627  16.9454   H         1 RES1   0.0000
    51 C23      2.7848   4.8729  17.0188   C.ar      1 RES1   0.0000
    52 C24      1.4659   4.7618  17.6459   C.2       1 RES1   0.0000
    53 C25     -0.4287   4.3604  18.6095   C.2       1 RES1   0.0000
    54 C26     -1.5680   3.7537  19.3313   C.ar      1 RES1   0.0000
    55 C27     -2.7651   4.4219  19.3586   C.ar      1 RES1   0.0000
    56 H18     -2.8720   5.2390  18.8851   H         1 RES1   0.0000
    57 C28     -3.8145   3.8897  20.0832   C.ar      1 RES1   0.0000
    58 H19     -4.6517   4.3369  20.1267   H         1 RES1   0.0000
    59 C29     -3.6160   2.6986  20.7379   C.ar      1 RES1   0.0000
    60 H20     -4.3194   2.2998  21.2355   H         1 RES1   0.0000
    61 C30     -2.3846   2.0920  20.6630   C.ar      1 RES1   0.0000
    62 H21     -2.2608   1.2682  21.1195   H         1 RES1   0.0000
    63 C31      1.1693   2.3874  18.4213   C.ar      1 RES1   0.0000
    64 C32      1.8741   2.0540  19.5542   C.ar      1 RES1   0.0000
    65 H22      2.1166   2.7274  20.1799   H         1 RES1   0.0000
    66 C33      2.2354   0.7230  19.7885   C.ar      1 RES1   0.0000
    67 H23      2.7411   0.4851  20.5567   H         1 RES1   0.0000
    68 C34      1.8412  -0.2432  18.8779   C.ar      1 RES1   0.0000
    69 H24      2.0582  -1.1545  19.0373   H         1 RES1   0.0000
    70 C35      1.1316   0.1033  17.7305   C.ar      1 RES1   0.0000
    71 H25      0.8752  -0.5661  17.1096   H         1 RES1   0.0000
    72 C36      0.7969   1.4369  17.4986   C.ar      1 RES1   0.0000
    73 H26      0.3205   1.6853  16.7135   H         1 RES1   0.0000
    74 N11      0.1774   8.5652  17.9609   N.ar      1 RES1   0.0000
    75 N12      2.3573   7.7311  18.9209   N.2       1 RES1   0.0000
    76 N13      3.4907   7.3074  19.5549   N.2       1 RES1   0.0000
    77 N14      4.1257   7.4094  23.0721   N.ar      1 RES1   0.0000
    78 N15      2.2238   8.4149  20.9973   N.pl3     1 RES1   0.0000
    79 C37     -0.9881   8.8490  17.3790   C.ar      1 RES1   0.0000
    80 H27     -1.0966   8.6371  16.4598   H         1 RES1   0.0000
    81 C38     -2.0519   9.4425  18.0517   C.ar      1 RES1   0.0000
    82 H28     -2.8749   9.6099  17.6073   H         1 RES1   0.0000
    83 C39     -1.8844   9.7812  19.3803   C.ar      1 RES1   0.0000
    84 H29     -2.5841  10.2113  19.8586   H         1 RES1   0.0000
    85 C40     -0.6810   9.4870  20.0108   C.ar      1 RES1   0.0000
    86 H30     -0.5462   9.7080  20.9263   H         1 RES1   0.0000
    87 C41      0.3135   8.8673  19.2805   C.ar      1 RES1   0.0000
    88 C42      1.5972   8.3900  19.7786   C.2       1 RES1   0.0000
    89 C43      3.4038   7.7311  20.8024   C.2       1 RES1   0.0000
    90 C44      4.4636   7.4709  21.7792   C.ar      1 RES1   0.0000
    91 C45      5.7511   7.2368  21.3055   C.ar      1 RES1   0.0000
    92 H31      5.9382   7.2878  20.3755   H         1 RES1   0.0000
    93 C46      6.7531   6.9283  22.1993   C.ar      1 RES1   0.0000
    94 H32      7.6423   6.7701  21.9046   H         1 RES1   0.0000
    95 C47      6.4229   6.8551  23.5400   C.ar      1 RES1   0.0000
    96 H33      7.0804   6.6210  24.1849   H         1 RES1   0.0000
    97 C48      5.1368   7.1231  23.9289   C.ar      1 RES1   0.0000
    98 H34      4.9399   7.1061  24.8589   H         1 RES1   0.0000
    99 C49      1.6961   9.0804  22.1807   C.ar      1 RES1   0.0000
   100 C50      1.0702   8.3181  23.1332   C.ar      1 RES1   0.0000
   101 H35      1.0433   7.3715  23.0544   H         1 RES1   0.0000
   102 C51      0.4770   8.9575  24.2139   C.ar      1 RES1   0.0000
   103 H36      0.0400   8.4463  24.8854   H         1 RES1   0.0000
   104 C52      0.5230  10.3434  24.3154   C.ar      1 RES1   0.0000
   105 H37      0.0916  10.7840  25.0376   H         1 RES1   0.0000
   106 C53      1.1962  11.0703  23.3636   C.ar      1 RES1   0.0000
   107 H38      1.2583  12.0143  23.4554   H         1 RES1   0.0000
   108 C54      1.7829  10.4532  22.2766   C.ar      1 RES1   0.0000
   109 H39      2.2352  10.9605  21.6123   H         1 RES1   0.0000
   110 B1       5.0601  11.6783  21.7500   B         2 RES2  -1.0000
   111 F1       4.4011  11.3253  20.5968   F         2 RES2   0.0000
   112 F2       6.3281  12.1268  21.4623   F         2 RES2   0.0000
   113 F3       4.3305  12.6563  22.4104   F         2 RES2   0.0000
   114 F4       5.1704  10.5696  22.5363   F         2 RES2   0.0000
   115 B2      -0.6102   3.1471  14.2737   B         3 RES3  -1.0000
   116 F5       0.5151   3.6322  13.6464   F         3 RES3   0.0000
   117 F6      -0.5718   1.7494  14.3088   F         3 RES3   0.0000
   118 F7      -0.7008   3.6413  15.5757   F         3 RES3   0.0000
   119 F8      -1.7573   3.5629  13.5802   F         3 RES3   0.0000
   120 N16      5.8249   9.1000  14.6136   N.1       4 RES4   0.0000
   121 C55      6.3561   9.9969  14.1602   C.1       4 RES4   0.0000
   122 C56      7.0443  11.1475  13.5732   C.3       4 RES4   0.0000
   123 H40      6.3833  11.8156  13.2930   H         4 RES4   0.0000
   124 H41      7.5634  10.8559  12.7954   H         4 RES4   0.0000
   125 H42      7.6463  11.5423  14.2375   H         4 RES4   0.0000
   126 N17      1.3316   5.2207  21.2234   N.1       5 RES5   0.0000
   127 C57      0.7974   4.5578  21.9650   C.1       5 RES5   0.0000
   128 C58      0.1059   3.6779  22.9312   C.3       5 RES5   0.0000
   129 H43     -0.4845   3.0634  22.4457   H         5 RES5   0.0000
   130 H44     -0.4255   4.2231  23.5472   H         5 RES5   0.0000
   131 H45      0.7693   3.1641  23.4361   H         5 RES5   0.0000
@<TRIPOS>BOND
     1     1     2    1
     2     2     7   ar
     3     3     1    1
     4     4     3    1
     5     5    18   ar
     6     6    16    1
     7     7     8    1
     8     9     7   ar
     9    10     9    1
    10    11     9   ar
    11    12    11    1
    12    13    11   ar
    13    14    13    1
    14    15     2   ar
    15    16     3    2
    16    17     4    2
    17    18    17    1
    18    19    18   ar
    19    20    19    1
    20    21    19   ar
    21    22    21    1
    22    23    21   ar
    23    24    23    1
    24    25     5   ar
    25    26    25    1
    26    27     6    1
    27    28    27   ar
    28    29    28    1
    29    30    28   ar
    30    31    30    1
    31    32    30   ar
    32    33    32    1
    33    34    32   ar
    34    35    34    1
    35    36    27   ar
    36    37    36    1
    37    38     1    1
    38    39     1    1
    39    40    39    1
    40    41    54   ar
    41    42    52    1
    42    43    38   ar
    43    44    43    1
    44    45    43   ar
    45    46    45    1
    46    47    45   ar
    47    48    47    1
    48    49    47   ar
    49    50    49    1
    50    51    38   ar
    51    52    39    2
    52    53    40    2
    53    54    53    1
    54    55    54   ar
    55    56    55    1
    56    57    55   ar
    57    58    57    1
    58    59    57   ar
    59    60    59    1
    60    61    41   ar
    61    62    61    1
    62    63    42    1
    63    64    63   ar
    64    65    64    1
    65    66    64   ar
    66    67    66    1
    67    68    66   ar
    68    69    68    1
    69    70    68   ar
    70    71    70    1
    71    72    63   ar
    72    73    72    1
    73    74     1    1
    74    75     1    1
    75    76    75    1
    76    77    90   ar
    77    78    88    1
    78    79    74   ar
    79    80    79    1
    80    81    79   ar
    81    82    81    1
    82    83    81   ar
    83    84    83    1
    84    85    83   ar
    85    86    85    1
    86    87    74   ar
    87    88    75    2
    88    89    76    2
    89    90    89    1
    90    91    90   ar
    91    92    91    1
    92    93    91   ar
    93    94    93    1
    94    95    93   ar
    95    96    95    1
    96    97    77   ar
    97    98    97    1
    98    99    78    1
    99   100    99   ar
   100   101   100    1
   101   102   100   ar
   102   103   102    1
   103   104   102   ar
   104   105   104    1
   105   106   104   ar
   106   107   106    1
   107   108    99   ar
   108   109   108    1
   109     6    17    1
   110    13    15   ar
   111    15    16    1
   112    23    25   ar
   113    34    36   ar
   114    42    53    1
   115    49    51   ar
   116    51    52    1
   117    59    61   ar
   118    70    72   ar
   119    78    89    1
   120    85    87   ar
   121    87    88    1
   122    95    97   ar
   123   106   108   ar
   124   110   111    1
   125   112   110    1
   126   113   110    1
   127   114   110    1
   128   115   116    1
   129   117   115    1
   130   118   115    1
   131   119   115    1
   132   120   121    3
   133   121   122    1
   134   122   123    1
   135   124   122    1
   136   125   122    1
   137   126   127    3
   138   127   128    1
   139   128   129    1
   140   130   128    1
   141   131   128    1
@<TRIPOS>SUBSTRUCTURE
     1 RES1        1 GROUP             0 ****  ****    0  
     2 RES2      110 GROUP             0 ****  ****    0  
     3 RES3      115 GROUP             0 ****  ****    0  
     4 RES4      120 GROUP             0 ****  ****    0  
     5 RES5      126 GROUP             0 ****  ****    0  
@<TRIPOS>CRYSIN
    8.9268   13.0747   24.2774   90.0000   95.7340   90.0000     4     1
