@<TRIPOS>MOLECULE
FURPEO
   255   282     7     0     0
SMALL
USER_CHARGES
****
Generated from the CSD

@<TRIPOS>ATOM
     1 Fe1      9.5382  11.2123   5.4502   Fe        1 RES1   0.0000
     2 N1      10.2405   9.7946   4.2337   N.2       1 RES1   0.0000
     3 N2      10.6998  10.5342   6.9164   N.2       1 RES1   0.0000
     4 N3       8.8348  12.6433   6.6354   N.2       1 RES1   0.0000
     5 N4       8.3604  11.8710   3.9879   N.2       1 RES1   0.0000
     6 N5      11.9132  13.1049   4.7173   N.1       1 RES1   0.0000
     7 N6       7.3043   9.2869   6.4787   N.1       1 RES1   0.0000
     8 C1       9.8172   9.4878   2.9660   C.2       1 RES1   0.0000
     9 C2      11.2284   8.8862   4.5054   C.2       1 RES1   0.0000
    10 C3      11.5756   9.4859   6.8546   C.2       1 RES1   0.0000
    11 C4      10.7510  11.0039   8.2032   C.2       1 RES1   0.0000
    12 C5       9.1615  12.8589   7.9550   C.2       1 RES1   0.0000
    13 C6       7.9918  13.6794   6.3028   C.2       1 RES1   0.0000
    14 C7       7.5663  12.9795   3.9987   C.2       1 RES1   0.0000
    15 C8       8.1460  11.2692   2.7636   C.2       1 RES1   0.0000
    16 C9      10.5620   8.3848   2.4347   C.2       1 RES1   0.0000
    17 H1      10.4490   7.9847   1.5797   H         1 RES1   0.0000
    18 C10     11.4519   8.0236   3.3771   C.2       1 RES1   0.0000
    19 H2      12.1015   7.3337   3.3105   H         1 RES1   0.0000
    20 C11     12.1905   9.2874   8.1471   C.2       1 RES1   0.0000
    21 H3      12.8367   8.6267   8.3711   H         1 RES1   0.0000
    22 C12     11.6802  10.2161   8.9713   C.2       1 RES1   0.0000
    23 H4      11.8904  10.3307   9.8904   H         1 RES1   0.0000
    24 C13      8.5182  14.0507   8.4482   C.2       1 RES1   0.0000
    25 H5       8.5824  14.4102   9.3250   H         1 RES1   0.0000
    26 C14      7.8066  14.5535   7.4216   C.2       1 RES1   0.0000
    27 H6       7.2773  15.3435   7.4367   H         1 RES1   0.0000
    28 C15      6.8279  13.0709   2.7640   C.2       1 RES1   0.0000
    29 H7       6.2056  13.7503   2.5292   H         1 RES1   0.0000
    30 C16      7.1813  12.0251   2.0124   C.2       1 RES1   0.0000
    31 H8       6.8571  11.8193   1.1438   H         1 RES1   0.0000
    32 C17     11.8615   8.7255   5.7376   C.2       1 RES1   0.0000
    33 C18     10.0430  12.0839   8.7076   C.2       1 RES1   0.0000
    34 C19      7.4016  13.8632   5.0537   C.2       1 RES1   0.0000
    35 C20      8.7965  10.1576   2.2821   C.2       1 RES1   0.0000
    36 C21     12.8455   7.6212   5.8911   C.ar      1 RES1   0.0000
    37 C22     12.5002   6.4773   6.6045   C.ar      1 RES1   0.0000
    38 H9      11.6294   6.4062   6.9792   H         1 RES1   0.0000
    39 C23     13.4084   5.4387   6.7785   C.ar      1 RES1   0.0000
    40 H10     13.1620   4.6696   7.2791   H         1 RES1   0.0000
    41 C24     14.6628   5.5240   6.2202   C.ar      1 RES1   0.0000
    42 H11     15.2841   4.8153   6.3361   H         1 RES1   0.0000
    43 C25     15.0134   6.6394   5.4955   C.ar      1 RES1   0.0000
    44 H12     15.8789   6.6967   5.1060   H         1 RES1   0.0000
    45 C26     14.1109   7.6799   5.3306   C.ar      1 RES1   0.0000
    46 H13     14.3654   8.4444   4.8254   H         1 RES1   0.0000
    47 C27     10.2361  12.4335  10.1463   C.ar      1 RES1   0.0000
    48 C28     11.4601  12.8746  10.6123   C.ar      1 RES1   0.0000
    49 H14     12.1816  13.0041  10.0069   H         1 RES1   0.0000
    50 C29     11.6373  13.1313  11.9664   C.ar      1 RES1   0.0000
    51 H15     12.4835  13.4314  12.2794   H         1 RES1   0.0000
    52 C30     10.6125  12.9572  12.8586   C.ar      1 RES1   0.0000
    53 H16     10.7469  13.1296  13.7835   H         1 RES1   0.0000
    54 C31      9.3808  12.5295  12.3981   C.ar      1 RES1   0.0000
    55 H17      8.6600  12.4134  13.0045   H         1 RES1   0.0000
    56 C32      9.2015  12.2714  11.0437   C.ar      1 RES1   0.0000
    57 H18      8.3531  11.9772  10.7320   H         1 RES1   0.0000
    58 C33      6.5531  15.0616   4.8045   C.ar      1 RES1   0.0000
    59 C34      6.9643  16.0177   3.8705   C.ar      1 RES1   0.0000
    60 H19      7.7912  15.9046   3.4184   H         1 RES1   0.0000
    61 C35      6.1874  17.1252   3.5971   C.ar      1 RES1   0.0000
    62 H20      6.4843  17.7641   2.9587   H         1 RES1   0.0000
    63 C36      4.9876  17.3128   4.2376   C.ar      1 RES1   0.0000
    64 H21      4.4549  18.0764   4.0464   H         1 RES1   0.0000
    65 C37      4.5600  16.3741   5.1647   C.ar      1 RES1   0.0000
    66 H22      3.7321  16.4945   5.6131   H         1 RES1   0.0000
    67 C38      5.3382  15.2665   5.4366   C.ar      1 RES1   0.0000
    68 H23      5.0336  14.6291   6.0728   H         1 RES1   0.0000
    69 C39      8.3599   9.6811   0.9295   C.ar      1 RES1   0.0000
    70 C40      9.1046   9.9116  -0.2070   C.ar      1 RES1   0.0000
    71 H24      9.9672  10.2997  -0.1230   H         1 RES1   0.0000
    72 C41      8.6315   9.5933  -1.4679   C.ar      1 RES1   0.0000
    73 H25      9.1611   9.7761  -2.2358   H         1 RES1   0.0000
    74 C42      7.3893   9.0130  -1.6065   C.ar      1 RES1   0.0000
    75 H26      7.0556   8.7956  -2.4688   H         1 RES1   0.0000
    76 C43      6.6378   8.7481  -0.4832   C.ar      1 RES1   0.0000
    77 H27      5.7856   8.3364  -0.5697   H         1 RES1   0.0000
    78 C44      7.1208   9.0827   0.7797   C.ar      1 RES1   0.0000
    79 H28      6.5931   8.8969   1.5473   H         1 RES1   0.0000
    80 C45     11.0134  12.4115   4.9338   C.1       1 RES1  -1.0000
    81 C46      8.1216  10.0019   6.0795   C.1       1 RES1  -1.0000
    82 K1      18.3128  10.2720  10.5311   K         2 RES2   1.0000
    83 N7      16.7792   7.7656  10.0851   N.3       2 RES2   0.0000
    84 N8      19.7945  12.8344  11.0234   N.3       2 RES2   0.0000
    85 C47     20.1538  13.4551   9.7387   C.3       2 RES2   0.0000
    86 H29     20.8864  14.1052   9.8882   H         2 RES2   0.0000
    87 H30     19.3731  13.9536   9.3919   H         2 RES2   0.0000
    88 C48     20.5920  12.4527   8.7058   C.3       2 RES2   0.0000
    89 H31     20.9097  12.9232   7.8942   H         2 RES2   0.0000
    90 H32     21.3397  11.9088   9.0617   H         2 RES2   0.0000
    91 C49     19.7982  10.8109   7.2353   C.3       2 RES2   0.0000
    92 H33     20.6031  10.2623   7.4129   H         2 RES2   0.0000
    93 H34     19.9866  11.3947   6.4569   H         2 RES2   0.0000
    94 C50     18.6465   9.9298   6.9321   C.3       2 RES2   0.0000
    95 H35     17.8385  10.4775   6.7720   H         2 RES2   0.0000
    96 H36     18.8336   9.4040   6.1138   H         2 RES2   0.0000
    97 C51     17.4602   8.0532   7.7054   C.3       2 RES2   0.0000
    98 H37     17.7637   7.5460   6.9123   H         2 RES2   0.0000
    99 H38     16.5969   8.4853   7.4863   H         2 RES2   0.0000
   100 C52     17.2777   7.1167   8.8666   C.3       2 RES2   0.0000
   101 H39     16.6440   6.4038   8.6042   H         2 RES2   0.0000
   102 H40     18.1462   6.6870   9.0682   H         2 RES2   0.0000
   103 C53     15.3482   8.0523   9.9292   C.3       2 RES2   0.0000
   104 H41     14.8406   7.2067  10.0112   H         2 RES2   0.0000
   105 H42     15.1915   8.4117   9.0207   H         2 RES2   0.0000
   106 C54     14.8237   9.0393  10.9414   C.3       2 RES2   0.0000
   107 H43     13.8445   9.1390  10.8378   H         2 RES2   0.0000
   108 H44     15.0058   8.7096  11.8564   H         2 RES2   0.0000
   109 C55     14.8620  11.2983  11.5327   C.3       2 RES2   0.0000
   110 H45     14.9691  11.0838  12.4930   H         2 RES2   0.0000
   111 H46     13.8933  11.3504  11.3341   H         2 RES2   0.0000
   112 C56     15.5024  12.6057  11.2370   C.3       2 RES2   0.0000
   113 H47     15.3983  12.8202  10.2767   H         2 RES2   0.0000
   114 H48     15.0597  13.3190  11.7636   H         2 RES2   0.0000
   115 C57     17.5234  13.7953  11.3313   C.3       2 RES2   0.0000
   116 H49     17.0356  14.5170  11.8024   H         2 RES2   0.0000
   117 H50     17.5088  13.9963  10.3630   H         2 RES2   0.0000
   118 C58     18.9346  13.7456  11.8111   C.3       2 RES2   0.0000
   119 H51     19.3168  14.6593  11.7765   H         2 RES2   0.0000
   120 H52     18.9406  13.4540  12.7585   H         2 RES2   0.0000
   121 C59     16.9773   6.8926  11.2470   C.3       2 RES2   0.0000
   122 H53     16.6391   5.9892  11.0234   H         2 RES2   0.0000
   123 H54     16.4331   7.2389  11.9967   H         2 RES2   0.0000
   124 C60     20.1558   7.9748  12.7062   C.3       2 RES2   0.0000
   125 H55     20.8456   7.7318  12.0398   H         2 RES2   0.0000
   126 H56     20.1383   7.2761  13.4059   H         2 RES2   0.0000
   127 C61     20.4780   9.2900  13.3122   C.3       2 RES2   0.0000
   128 H57     19.7804   9.5327  13.9713   H         2 RES2   0.0000
   129 H58     21.3447   9.2313  13.7900   H         2 RES2   0.0000
   130 C62     18.4091   6.7686  11.7105   C.3       2 RES2   0.0000
   131 H59     18.4620   6.1582  12.4887   H         2 RES2   0.0000
   132 H60     18.9689   6.3980  10.9845   H         2 RES2   0.0000
   133 C63     21.0304  12.5547  11.7657   C.3       2 RES2   0.0000
   134 H61     21.3657  13.4019  12.1542   H         2 RES2   0.0000
   135 H62     21.7142  12.2243  11.1313   H         2 RES2   0.0000
   136 C64     20.8739  11.5527  12.8664   C.3       2 RES2   0.0000
   137 H63     21.7168  11.4881  13.3843   H         2 RES2   0.0000
   138 H64     20.1536  11.8397  13.4814   H         2 RES2   0.0000
   139 O1      16.8877  12.5509  11.5722   O.3       2 RES2   0.0000
   140 O2      15.4550  10.2826  10.7471   O.3       2 RES2   0.0000
   141 O3      19.5025  11.6120   8.3759   O.3       2 RES2   0.0000
   142 O4      18.4215   9.0453   8.0342   O.3       2 RES2   0.0000
   143 O5      20.5550  10.2918  12.3096   O.3       2 RES2   0.0000
   144 O6      18.8813   8.0632  12.0759   O.3       2 RES2   0.0000
   145 K2      16.0619  12.5452   0.3746   K         3 RES3   1.0000
   146 N9      13.8450  10.6856  -0.2689   N.3       3 RES3   0.0000
   147 N10     18.2950  14.4274   1.0393   N.3       3 RES3   0.0000
   148 C65     17.8696  15.7876   0.7337   C.3       3 RES3   0.0000
   149 H65     18.6569  16.3850   0.7704   H         3 RES3   0.0000
   150 H66     17.2306  16.0876   1.4265   H         3 RES3   0.0000
   151 C66     17.2196  15.9205  -0.6215   C.3       3 RES3   0.0000
   152 H67     17.0192  16.8717  -0.8071   H         3 RES3   0.0000
   153 H68     17.8360  15.5906  -1.3229   H         3 RES3   0.0000
   154 C67     15.4737  15.1938  -1.9580   C.3       3 RES3   0.0000
   155 H69     16.0643  14.6970  -2.5789   H         3 RES3   0.0000
   156 H70     15.4090  16.1301  -2.2746   H         3 RES3   0.0000
   157 C68     14.1383  14.5789  -1.9440   C.3       3 RES3   0.0000
   158 H71     13.5676  15.0345  -1.2754   H         3 RES3   0.0000
   159 H72     13.7150  14.6793  -2.8335   H         3 RES3   0.0000
   160 C69     12.9959  12.5443  -1.6833   C.3       3 RES3   0.0000
   161 H73     12.5606  12.7340  -2.5508   H         3 RES3   0.0000
   162 H74     12.4054  12.8734  -0.9603   H         3 RES3   0.0000
   163 C70     13.2147  11.0725  -1.5322   C.3       3 RES3   0.0000
   164 H75     12.3416  10.6126  -1.6056   H         3 RES3   0.0000
   165 H76     13.7827  10.7587  -2.2811   H         3 RES3   0.0000
   166 C71     12.8585  10.7601   0.8114   C.3       3 RES3   0.0000
   167 H77     12.2019  10.0283   0.6884   H         3 RES3   0.0000
   168 H78     12.3682  11.6160   0.7294   H         3 RES3   0.0000
   169 C72     13.4241  10.6655   2.2060   C.3       3 RES3   0.0000
   170 H79     12.6950  10.7373   2.8702   H         3 RES3   0.0000
   171 H80     13.8721   9.7918   2.3285   H         3 RES3   0.0000
   172 C73     15.6040  12.9355   4.0058   C.3       3 RES3   0.0000
   173 H81     14.9959  13.7097   3.9061   H         3 RES3   0.0000
   174 H82     15.9426  12.9280   4.9355   H         3 RES3   0.0000
   175 C74     14.8577  11.6809   3.7401   C.3       3 RES3   0.0000
   176 H83     15.4578  10.9014   3.8565   H         3 RES3   0.0000
   177 H84     14.1082  11.5939   4.3787   H         3 RES3   0.0000
   178 C75     17.4343  14.2472   3.3677   C.3       3 RES3   0.0000
   179 H85     17.7329  14.2491   4.3118   H         3 RES3   0.0000
   180 H86     16.8601  15.0405   3.2220   H         3 RES3   0.0000
   181 C76     18.6290  14.3116   2.4593   C.3       3 RES3   0.0000
   182 H87     19.1833  15.0894   2.7192   H         3 RES3   0.0000
   183 H88     19.1751  13.4972   2.5918   H         3 RES3   0.0000
   184 C77     19.7597  12.6230   0.1556   C.3       3 RES3   0.0000
   185 H89     20.6056  12.4716  -0.3367   H         3 RES3   0.0000
   186 H90     19.8669  12.2609   1.0704   H         3 RES3   0.0000
   187 C78     19.4698  14.0832   0.2225   C.3       3 RES3   0.0000
   188 H91     20.2622  14.5462   0.5935   H         3 RES3   0.0000
   189 H92     19.3285  14.4202  -0.6971   H         3 RES3   0.0000
   190 C79     18.9656  10.5622  -0.5935   C.3       3 RES3   0.0000
   191 H93     19.0322  10.1747   0.3151   H         3 RES3   0.0000
   192 H94     19.8281  10.4177  -1.0553   H         3 RES3   0.0000
   193 C80     17.8651   9.8835  -1.3531   C.3       3 RES3   0.0000
   194 H95     17.7554  10.3086  -2.2401   H         3 RES3   0.0000
   195 H96     18.0882   8.9285  -1.4891   H         3 RES3   0.0000
   196 C81     15.6198   9.2319  -1.2107   C.3       3 RES3   0.0000
   197 H97     15.8995   8.2850  -1.2819   H         3 RES3   0.0000
   198 H98     15.4396   9.5720  -2.1214   H         3 RES3   0.0000
   199 C82     14.3725   9.3365  -0.3669   C.3       3 RES3   0.0000
   200 H99     13.6759   8.7490  -0.7532   H         3 RES3   0.0000
   201 H100    14.5738   9.0066   0.5438   H         3 RES3   0.0000
   202 O7      16.6991  13.0717   3.1005   O.3       3 RES3   0.0000
   203 O8      14.3566  11.7140   2.4024   O.3       3 RES3   0.0000
   204 O9      16.0269  15.1680  -0.6381   O.3       3 RES3   0.0000
   205 O10     14.2517  13.1973  -1.6183   O.3       3 RES3   0.0000
   206 O11     18.6955  11.9494  -0.5020   O.3       3 RES3   0.0000
   207 O12     16.6578   9.9950  -0.6099   O.3       3 RES3   0.0000
   208 C83      9.6988   5.4130   4.5572   C.ar      4 RES4   0.0000
   209 H101     9.9484   5.4979   3.6450   H         4 RES4   0.0000
   210 C84      8.6478   6.2988   6.5195   C.ar      4 RES4   0.0000
   211 H102     8.1816   7.0002   6.9597   H         4 RES4   0.0000
   212 C85      9.0309   6.4482   5.2169   C.ar      4 RES4   0.0000
   213 H103     8.8420   7.2586   4.7585   H         4 RES4   0.0000
   214 C86      8.9387   5.1244   7.2036   C.ar      4 RES4   0.0000
   215 H104     8.6749   5.0261   8.1100   H         4 RES4   0.0000
   216 C87      9.6098   4.0974   6.5670   C.ar      4 RES4   0.0000
   217 H105     9.8037   3.2885   7.0245   H         4 RES4   0.0000
   218 C88      9.9870   4.2661   5.2674   C.ar      4 RES4   0.0000
   219 Cl1     10.8673   2.9935   4.4616   Cl        4 RES4   0.0000
   220 C89      4.0996   3.6609   5.3861   C.ar      5 RES5   0.0000
   221 C90      5.3107   4.2065   5.0801   C.ar      5 RES5   0.0000
   222 H106     5.4060   5.1417   4.9441   H         5 RES5   0.0000
   223 C91      6.2415   2.0074   5.1923   C.ar      5 RES5   0.0000
   224 H107     6.9950   1.4325   5.1254   H         5 RES5   0.0000
   225 C92      6.3929   3.3632   4.9743   C.ar      5 RES5   0.0000
   226 H108     7.2460   3.7140   4.7499   H         5 RES5   0.0000
   227 C93      5.0184   1.4871   5.5052   C.ar      5 RES5   0.0000
   228 H109     4.9189   0.5519   5.6433   H         5 RES5   0.0000
   229 C94      3.9260   2.3263   5.6217   C.ar      5 RES5   0.0000
   230 H110     3.0733   1.9819   5.8591   H         5 RES5   0.0000
   231 Cl2      2.7204   4.7100   5.5404   Cl        5 RES5   0.0000
   232 C95      9.5575   2.6386  13.8781   C.ar      6 RES6   0.0000
   233 H111     8.6866   2.9514  13.6670   H         6 RES6   0.0000
   234 C96     10.6273   3.5128  13.9406   C.ar      6 RES6   0.0000
   235 H112    10.4935   4.4378  13.7663   H         6 RES6   0.0000
   236 C97     11.8911   3.0501  14.2562   C.ar      6 RES6   0.0000
   237 H113    12.6180   3.6588  14.3187   H         6 RES6   0.0000
   238 C98     11.0471   0.8320  14.4174   C.ar      6 RES6   0.0000
   239 H114    11.1869  -0.0952  14.5712   H         6 RES6   0.0000
   240 C99     12.0922   1.7195  14.4784   C.ar      6 RES6   0.0000
   241 H115    12.9662   1.4047  14.6770   H         6 RES6   0.0000
   242 C100     9.7853   1.3148  14.1267   C.ar      6 RES6   0.0000
   243 Cl3      8.4467   0.1998  14.0956   Cl        6 RES6   0.0000
   244 C101    18.3748   8.7430   3.1877   C.ar      7 RES7   0.0000
   245 C102    19.3601   7.9020   3.6566   C.ar      7 RES7   0.0000
   246 H116    19.2224   6.9629   3.6817   H         7 RES7   0.0000
   247 C103    20.5455   8.4466   4.0852   C.ar      7 RES7   0.0000
   248 H117    21.2302   7.8768   4.4176   H         7 RES7   0.0000
   249 C104    20.7571   9.8115   4.0420   C.ar      7 RES7   0.0000
   250 H118    21.5844  10.1842   4.3204   H         7 RES7   0.0000
   251 C105    18.5361  10.0965   3.1562   C.ar      7 RES7   0.0000
   252 H119    17.8396  10.6641   2.8465   H         7 RES7   0.0000
   253 C106    19.7424  10.6176   3.5873   C.ar      7 RES7   0.0000
   254 H120    19.8728  11.5584   3.5694   H         7 RES7   0.0000
   255 Cl4     16.8698   8.0565   2.6352   Cl        7 RES7   0.0000
@<TRIPOS>BOND
     1     1     2    1
     2     2     8    1
     3     3     1    1
     4     4     1    1
     5     5     1    1
     6     6    80    3
     7     7    81    3
     8     8    16    2
     9     9     2    1
    10    10     3    1
    11    11     3    2
    12    12     4    1
    13    13     4    1
    14    14     5    2
    15    15     5    1
    16    16    17    1
    17    18     9    2
    18    19    18    1
    19    20    10    1
    20    21    20    1
    21    22    11    1
    22    23    22    1
    23    24    12    1
    24    25    24    1
    25    26    13    1
    26    27    26    1
    27    28    14    1
    28    29    28    1
    29    30    15    1
    30    31    30    1
    31    32     9    1
    32    33    11    1
    33    34    13    2
    34    35     8    1
    35    36    32    1
    36    37    36   ar
    37    38    37    1
    38    39    37   ar
    39    40    39    1
    40    41    39   ar
    41    42    41    1
    42    43    41   ar
    43    44    43    1
    44    45    36   ar
    45    46    45    1
    46    47    33    1
    47    48    47   ar
    48    49    48    1
    49    50    48   ar
    50    51    50    1
    51    52    50   ar
    52    53    52    1
    53    54    52   ar
    54    55    54    1
    55    56    47   ar
    56    57    56    1
    57    58    34    1
    58    59    58   ar
    59    60    59    1
    60    61    59   ar
    61    62    61    1
    62    63    61   ar
    63    64    63    1
    64    65    63   ar
    65    66    65    1
    66    67    58   ar
    67    68    67    1
    68    69    35    1
    69    70    69   ar
    70    71    70    1
    71    72    70   ar
    72    73    72    1
    73    74    72   ar
    74    75    74    1
    75    76    74   ar
    76    77    76    1
    77    78    69   ar
    78    79    78    1
    79    80     1    1
    80    81     1    1
    81    10    32    2
    82    12    33    2
    83    14    34    1
    84    15    35    2
    85    16    18    1
    86    20    22    2
    87    24    26    2
    88    28    30    2
    89    43    45   ar
    90    54    56   ar
    91    65    67   ar
    92    76    78   ar
    93    82    83    1
    94    83   100    1
    95    84    82    1
    96    85    84    1
    97    86    85    1
    98    87    85    1
    99    88    85    1
   100    89    88    1
   101    90    88    1
   102    91    92    1
   103    93    91    1
   104    94    91    1
   105    95    94    1
   106    96    94    1
   107    97    98    1
   108    99    97    1
   109   100    97    1
   110   101   100    1
   111   102   100    1
   112   103    83    1
   113   104   103    1
   114   105   103    1
   115   106   103    1
   116   107   106    1
   117   108   106    1
   118   109   110    1
   119   111   109    1
   120   112   109    1
   121   113   112    1
   122   114   112    1
   123   115   116    1
   124   117   115    1
   125   118    84    1
   126   119   118    1
   127   120   118    1
   128   121    83    1
   129   122   121    1
   130   123   121    1
   131   124   125    1
   132   126   124    1
   133   127   124    1
   134   128   127    1
   135   129   127    1
   136   130   121    1
   137   131   130    1
   138   132   130    1
   139   133    84    1
   140   134   133    1
   141   135   133    1
   142   136   133    1
   143   137   136    1
   144   138   136    1
   145   139    82    1
   146   140    82    1
   147   141    82    1
   148   142    82    1
   149   143    82    1
   150   144    82    1
   151    88   141    1
   152    91   141    1
   153    94   142    1
   154    97   142    1
   155   106   140    1
   156   109   140    1
   157   112   139    1
   158   115   118    1
   159   115   139    1
   160   124   144    1
   161   127   143    1
   162   130   144    1
   163   136   143    1
   164   145   146    1
   165   146   163    1
   166   147   145    1
   167   148   147    1
   168   149   148    1
   169   150   148    1
   170   151   148    1
   171   152   151    1
   172   153   151    1
   173   154   155    1
   174   156   154    1
   175   157   154    1
   176   158   157    1
   177   159   157    1
   178   160   161    1
   179   162   160    1
   180   163   160    1
   181   164   163    1
   182   165   163    1
   183   166   146    1
   184   167   166    1
   185   168   166    1
   186   169   166    1
   187   170   169    1
   188   171   169    1
   189   172   173    1
   190   174   172    1
   191   175   172    1
   192   176   175    1
   193   177   175    1
   194   178   179    1
   195   180   178    1
   196   181   147    1
   197   182   181    1
   198   183   181    1
   199   184   185    1
   200   186   184    1
   201   187   147    1
   202   188   187    1
   203   189   187    1
   204   190   191    1
   205   192   190    1
   206   193   190    1
   207   194   193    1
   208   195   193    1
   209   196   197    1
   210   198   196    1
   211   199   146    1
   212   200   199    1
   213   201   199    1
   214   202   145    1
   215   203   145    1
   216   204   145    1
   217   205   145    1
   218   206   145    1
   219   207   145    1
   220   151   204    1
   221   154   204    1
   222   157   205    1
   223   160   205    1
   224   169   203    1
   225   172   202    1
   226   175   203    1
   227   178   181    1
   228   178   202    1
   229   184   187    1
   230   184   206    1
   231   190   206    1
   232   193   207    1
   233   196   199    1
   234   196   207    1
   235   208   209    1
   236   210   211    1
   237   212   208   ar
   238   213   212    1
   239   214   210   ar
   240   215   214    1
   241   216   214   ar
   242   217   216    1
   243   218   208   ar
   244   219   218    1
   245   210   212   ar
   246   216   218   ar
   247   220   221   ar
   248   221   222    1
   249   223   224    1
   250   225   221   ar
   251   226   225    1
   252   227   223   ar
   253   228   227    1
   254   229   220   ar
   255   230   229    1
   256   231   220    1
   257   223   225   ar
   258   227   229   ar
   259   232   233    1
   260   234   232   ar
   261   235   234    1
   262   236   234   ar
   263   237   236    1
   264   238   239    1
   265   240   236   ar
   266   241   240    1
   267   242   232   ar
   268   243   242    1
   269   238   240   ar
   270   238   242   ar
   271   244   245   ar
   272   245   246    1
   273   247   245   ar
   274   248   247    1
   275   249   247   ar
   276   250   249    1
   277   251   244   ar
   278   252   251    1
   279   253   249   ar
   280   254   253    1
   281   255   244    1
   282   251   253   ar
@<TRIPOS>SUBSTRUCTURE
     1 RES1        1 GROUP             0 ****  ****    0  
     2 RES2       82 GROUP             0 ****  ****    0  
     3 RES3      145 GROUP             0 ****  ****    0  
     4 RES4      208 GROUP             0 ****  ****    0  
     5 RES5      220 GROUP             0 ****  ****    0  
     6 RES6      232 GROUP             0 ****  ****    0  
     7 RES7      244 GROUP             0 ****  ****    0  
@<TRIPOS>CRYSIN
   15.5352   15.8391   22.0815   83.8200   77.9340   68.6860     2     1
