@<TRIPOS>MOLECULE
FUSXEZ
   108   114     2     0     0
SMALL
NO_CHARGES
****
Generated from the CSD

@<TRIPOS>ATOM
     1 Fe1      4.2920   3.8790  17.5733   Fe        1 RES1   0.0000
     2 S1       4.5749   1.6470  14.9189   S.o2      1 RES1   0.0000
     3 S2       4.3046   6.5562  15.5218   S.o2      1 RES1   0.0000
     4 O1       4.5887   2.1867  16.2964   O.3       1 RES1   0.0000
     5 O2       5.4450   2.4050  14.0259   O.2       1 RES1   0.0000
     6 O3       4.8233   0.2245  14.9187   O.2       1 RES1   0.0000
     7 O4      -3.8539   2.8128  12.3124   O.2       1 RES1   0.0000
     8 O5      -4.4963   1.6262  14.1102   O.3       1 RES1   0.0000
     9 O6       4.0778   5.1701  15.9678   O.3       1 RES1   0.0000
    10 O7       3.4873   6.8265  14.3424   O.2       1 RES1   0.0000
    11 O8       4.1746   7.5262  16.5791   O.2       1 RES1   0.0000
    12 O9      12.8016   6.0962  13.0734   O.2       1 RES1   0.0000
    13 O10     13.4198   7.1299  14.9714   O.3       1 RES1   0.0000
    14 N1       6.4596   4.1590  17.6592   N.ar      1 RES1   0.0000
    15 N2       5.9604   5.6812  19.3356   N.pl3     1 RES1   0.0000
    16 N3       4.6269   5.4152  19.0914   N.2       1 RES1   0.0000
    17 N4       2.1148   3.5893  17.5426   N.ar      1 RES1   0.0000
    18 N5       2.5006   2.2739  19.4092   N.pl3     1 RES1   0.0000
    19 N6       3.8369   2.5650  19.2269   N.2       1 RES1   0.0000
    20 C1       6.9124   5.1678  18.4204   C.ar      1 RES1   0.0000
    21 C2       7.3291   3.6155  16.7972   C.ar      1 RES1   0.0000
    22 H1       7.0244   2.9108  16.2371   H         1 RES1   0.0000
    23 C3       8.6372   4.0186  16.6761   C.ar      1 RES1   0.0000
    24 H2       9.2296   3.5801  16.0768   H         1 RES1   0.0000
    25 C4       9.0688   5.0801  17.4468   C.ar      1 RES1   0.0000
    26 H3       9.9623   5.3909  17.3726   H         1 RES1   0.0000
    27 C5       8.1976   5.6832  18.3238   C.ar      1 RES1   0.0000
    28 H4       8.4676   6.4294  18.8463   H         1 RES1   0.0000
    29 C6       6.1256   6.2894  20.5638   C.2       1 RES1   0.0000
    30 C7       4.8696   6.4355  21.0687   C.2       1 RES1   0.0000
    31 H5       4.6428   6.8386  21.8991   H         1 RES1   0.0000
    32 C8       3.9707   5.8863  20.1450   C.2       1 RES1   0.0000
    33 C9       7.4389   6.6356  21.1757   C.3       1 RES1   0.0000
    34 H6       8.0501   5.8755  21.0887   H         1 RES1   0.0000
    35 H7       7.3119   6.8479  22.1231   H         1 RES1   0.0000
    36 H8       7.8186   7.4140  20.7153   H         1 RES1   0.0000
    37 C10      2.4868   5.7509  20.2546   C.3       1 RES1   0.0000
    38 H9       2.1041   5.6109  19.3624   H         1 RES1   0.0000
    39 H10      2.1125   6.5679  20.6450   H         1 RES1   0.0000
    40 H11      2.2690   4.9863  20.8273   H         1 RES1   0.0000
    41 C11      1.5926   2.7216  18.4097   C.ar      1 RES1   0.0000
    42 C12      1.2910   4.0986  16.5984   C.ar      1 RES1   0.0000
    43 H12      1.6503   4.7078  15.9626   H         1 RES1   0.0000
    44 C13     -0.0381   3.7786  16.5158   C.ar      1 RES1   0.0000
    45 H13     -0.5965   4.1909  15.8681   H         1 RES1   0.0000
    46 C14     -0.5520   2.8370  17.3985   C.ar      1 RES1   0.0000
    47 H14     -1.4617   2.5693  17.3374   H         1 RES1   0.0000
    48 C15      0.2684   2.2939  18.3620   C.ar      1 RES1   0.0000
    49 H15     -0.0595   1.6477  18.9759   H         1 RES1   0.0000
    50 C16      2.2896   1.6985  20.6334   C.2       1 RES1   0.0000
    51 C17      3.5169   1.6231  21.2286   C.2       1 RES1   0.0000
    52 H16      3.7034   1.2708  22.0902   H         1 RES1   0.0000
    53 C18      4.4435   2.1601  20.3382   C.2       1 RES1   0.0000
    54 C19      0.9644   1.2570  21.1728   C.3       1 RES1   0.0000
    55 H17      0.3109   1.9800  21.0667   H         1 RES1   0.0000
    56 H18      1.0556   1.0354  22.1231   H         1 RES1   0.0000
    57 H19      0.6584   0.4662  20.6802   H         1 RES1   0.0000
    58 C20      5.9165   2.3231  20.5254   C.3       1 RES1   0.0000
    59 H20      6.3799   2.0708  19.7006   H         1 RES1   0.0000
    60 H21      6.2178   1.7493  21.2600   H         1 RES1   0.0000
    61 H22      6.1158   3.2585  20.7395   H         1 RES1   0.0000
    62 C21      2.9141   1.8831  14.3426   C.ar      1 RES1   0.0000
    63 C22      2.5759   2.9247  13.5124   C.ar      1 RES1   0.0000
    64 H23      3.2412   3.5339  13.2128   H         1 RES1   0.0000
    65 C23      1.2558   3.0816  13.1158   C.ar      1 RES1   0.0000
    66 H24      1.0249   3.7878  12.5254   H         1 RES1   0.0000
    67 C24      0.2562   2.2108  13.5739   C.ar      1 RES1   0.0000
    68 C25      0.6322   1.1554  14.4254   C.ar      1 RES1   0.0000
    69 H25     -0.0279   0.5508  14.7458   H         1 RES1   0.0000
    70 C26      1.9386   0.9908  14.7983   C.ar      1 RES1   0.0000
    71 H26      2.1820   0.2692  15.3674   H         1 RES1   0.0000
    72 C27     -1.1436   2.4308  13.2054   C.2       1 RES1   0.0000
    73 H27     -1.3102   3.0693  12.5232   H         1 RES1   0.0000
    74 C28     -2.2060   1.8247  13.7307   C.2       1 RES1   0.0000
    75 H28     -2.0772   1.1662  14.4032   H         1 RES1   0.0000
    76 C29     -3.5770   2.1462  13.2961   C.2       1 RES1   0.0000
    77 C30      5.9958   6.5879  14.9934   C.ar      1 RES1   0.0000
    78 C31      6.4278   5.6617  14.0580   C.ar      1 RES1   0.0000
    79 H29      5.8130   5.0478  13.6762   H         1 RES1   0.0000
    80 C32      7.7570   5.6371  13.6835   C.ar      1 RES1   0.0000
    81 H30      8.0476   5.0186  13.0218   H         1 RES1   0.0000
    82 C33      8.6791   6.5109  14.2688   C.ar      1 RES1   0.0000
    83 C34      8.2123   7.4663  15.1899   C.ar      1 RES1   0.0000
    84 H31      8.8160   8.1002  15.5585   H         1 RES1   0.0000
    85 C35      6.8795   7.4925  15.5624   C.ar      1 RES1   0.0000
    86 H32      6.5726   8.1233  16.2020   H         1 RES1   0.0000
    87 C36     10.0996   6.3679  13.9411   C.2       1 RES1   0.0000
    88 H33     10.3079   5.8140  13.1975   H         1 RES1   0.0000
    89 C37     11.1278   6.9263  14.5655   C.2       1 RES1   0.0000
    90 H34     10.9752   7.5017  15.3059   H         1 RES1   0.0000
    91 C38     12.5121   6.6602  14.1140   C.2       1 RES1   0.0000
    92 H35     -5.3729   1.8924  14.0123   H         1 RES1   0.0000
    93 H36     14.2773   6.9540  14.6712   H         1 RES1   0.0000
    94 O11      4.7851  11.0403  12.1927   O.3       2 RES2   0.0000
    95 C39      4.2847  12.1095  11.4316   C.3       2 RES2   0.0000
    96 H37      3.5902  11.7741  10.8101   H         2 RES2   0.0000
    97 H38      5.0173  12.4972  10.8914   H         2 RES2   0.0000
    98 C40      3.7016  13.1619  12.2926   C.3       2 RES2   0.0000
    99 H39      4.3941  13.5173  12.8878   H         2 RES2   0.0000
   100 H40      2.9747  12.7803  12.8263   H         2 RES2   0.0000
   101 H41      3.3507  13.8850  11.7303   H         2 RES2   0.0000
   102 C41      5.4448  10.0203  11.4426   C.3       2 RES2   0.0000
   103 H42      6.2801  10.3787  11.0495   H         2 RES2   0.0000
   104 H43      4.8604   9.7172  10.7025   H         2 RES2   0.0000
   105 C42      5.7530   8.8910  12.3277   C.3       2 RES2   0.0000
   106 H44      6.3692   9.1864  13.0305   H         2 RES2   0.0000
   107 H45      6.1708   8.1725  11.8072   H         2 RES2   0.0000
   108 H46      4.9259   8.5618  12.7362   H         2 RES2   0.0000
@<TRIPOS>BOND
     1     1     4    1
     2     2     4    1
     3     3     9    1
     4     5     2    2
     5     6     2    2
     6     7    76    2
     7     8    76    1
     8     9     1    1
     9    10     3    2
    10    11     3    2
    11    12    91    2
    12    13    91    1
    13    14     1    1
    14    15    16    1
    15    16     1    1
    16    17     1    1
    17    18    19    1
    18    19     1    1
    19    20    14   ar
    20    21    14   ar
    21    22    21    1
    22    23    21   ar
    23    24    23    1
    24    25    23   ar
    25    26    25    1
    26    27    20   ar
    27    28    27    1
    28    29    15    1
    29    30    29    2
    30    31    30    1
    31    32    16    2
    32    33    29    1
    33    34    33    1
    34    35    33    1
    35    36    33    1
    36    37    32    1
    37    38    37    1
    38    39    37    1
    39    40    37    1
    40    41    17   ar
    41    42    17   ar
    42    43    42    1
    43    44    42   ar
    44    45    44    1
    45    46    44   ar
    46    47    46    1
    47    48    41   ar
    48    49    48    1
    49    50    18    1
    50    51    50    2
    51    52    51    1
    52    53    19    2
    53    54    50    1
    54    55    54    1
    55    56    54    1
    56    57    54    1
    57    58    53    1
    58    59    58    1
    59    60    58    1
    60    61    58    1
    61    62     2    1
    62    63    62   ar
    63    64    63    1
    64    65    63   ar
    65    66    65    1
    66    67    65   ar
    67    68    67   ar
    68    69    68    1
    69    70    62   ar
    70    71    70    1
    71    72    67    1
    72    73    72    1
    73    74    72    2
    74    75    74    1
    75    76    74    1
    76    77     3    1
    77    78    77   ar
    78    79    78    1
    79    80    78   ar
    80    81    80    1
    81    82    80   ar
    82    83    82   ar
    83    84    83    1
    84    85    77   ar
    85    86    85    1
    86    87    82    1
    87    88    87    1
    88    89    87    2
    89    90    89    1
    90    91    89    1
    91    92     8    1
    92    93    13    1
    93    15    20    1
    94    18    41    1
    95    25    27   ar
    96    30    32    1
    97    46    48   ar
    98    51    53    1
    99    68    70   ar
   100    83    85   ar
   101    94    95    1
   102    95    96    1
   103    97    95    1
   104    98    95    1
   105    99    98    1
   106   100    98    1
   107   101    98    1
   108   102    94    1
   109   103   102    1
   110   104   102    1
   111   105   102    1
   112   106   105    1
   113   107   105    1
   114   108   105    1
@<TRIPOS>SUBSTRUCTURE
     1 RES1        1 GROUP             0 ****  ****    0  
     2 RES2       94 GROUP             0 ****  ****    0  
@<TRIPOS>CRYSIN
   12.5554   15.3850   22.1022   90.0000   96.4380   90.0000   231     1
