@<TRIPOS>MOLECULE
FUTDOO
   117   120    10     0     0
SMALL
USER_CHARGES
****
Generated from the CSD

@<TRIPOS>ATOM
     1 Fe1      7.8857   0.9801   4.3883   Fe        1 RES1   3.0000
     2 N1       6.2416   1.5080   3.4327   N.ar      1 RES1   0.0000
     3 N2       8.5416   0.6143   2.5629   N.ar      1 RES1   0.0000
     4 N3       7.3917  -0.8997   4.6507   N.ar      1 RES1   0.0000
     5 N4       9.5612   0.4051   5.2589   N.ar      1 RES1   0.0000
     6 N5       8.4901   2.8544   4.3287   N.ar      1 RES1   0.0000
     7 N6       7.1314   1.5255   6.1194   N.ar      1 RES1   0.0000
     8 C1       9.6826   0.1064   2.1373   C.ar      1 RES1   0.0000
     9 H15     10.3059  -0.2074   2.7827   H         1 RES1   0.0000
    10 C2      10.0190   0.0052   0.7816   C.ar      1 RES1   0.0000
    11 H16     10.8400  -0.3984   0.5246   H         1 RES1   0.0000
    12 C3       9.1716   0.4840  -0.1656   C.ar      1 RES1   0.0000
    13 H17      9.4137   0.4563  -1.0833   H         1 RES1   0.0000
    14 C4       7.9331   1.0223   0.2244   C.ar      1 RES1   0.0000
    15 C5       6.9316   1.5091  -0.6810   C.ar      1 RES1   0.0000
    16 H18      7.1096   1.5195  -1.6142   H         1 RES1   0.0000
    17 C6       5.7538   1.9446  -0.2321   C.ar      1 RES1   0.0000
    18 H19      5.1127   2.2633  -0.8574   H         1 RES1   0.0000
    19 C7       5.4196   1.9473   1.1669   C.ar      1 RES1   0.0000
    20 C8       4.2252   2.4025   1.7055   C.ar      1 RES1   0.0000
    21 H20      3.5379   2.7266   1.1360   H         1 RES1   0.0000
    22 C9       4.0406   2.3797   3.0396   C.ar      1 RES1   0.0000
    23 H21      3.2099   2.6630   3.4017   H         1 RES1   0.0000
    24 C10      5.0622   1.9461   3.9001   C.ar      1 RES1   0.0000
    25 H22      4.9140   1.9621   4.8395   H         1 RES1   0.0000
    26 C11      6.3983   1.5213   2.0615   C.ar      1 RES1   0.0000
    27 C12      7.6545   1.0394   1.5972   C.ar      1 RES1   0.0000
    28 C13     10.6708   1.0869   5.5746   C.ar      1 RES1   0.0000
    29 H23     10.7043   2.0084   5.3486   H         1 RES1   0.0000
    30 C14     11.7590   0.5432   6.2029   C.ar      1 RES1   0.0000
    31 H24     12.4962   1.0984   6.4320   H         1 RES1   0.0000
    32 C15     11.7962  -0.7938   6.5063   C.ar      1 RES1   0.0000
    33 H25     12.5626  -1.1856   6.9102   H         1 RES1   0.0000
    34 C16     10.6689  -1.5625   6.1983   C.ar      1 RES1   0.0000
    35 C17     10.5419  -2.9653   6.4645   C.ar      1 RES1   0.0000
    36 H26     11.2771  -3.4344   6.8390   H         1 RES1   0.0000
    37 C18      9.4045  -3.6319   6.1937   C.ar      1 RES1   0.0000
    38 H27      9.3506  -4.5525   6.4165   H         1 RES1   0.0000
    39 C19      8.2728  -3.0041   5.5808   C.ar      1 RES1   0.0000
    40 C20      7.0554  -3.6238   5.3053   C.ar      1 RES1   0.0000
    41 H28      6.9280  -4.5412   5.5220   H         1 RES1   0.0000
    42 C21      6.0386  -2.9056   4.7188   C.ar      1 RES1   0.0000
    43 H29      5.2045  -3.3217   4.5377   H         1 RES1   0.0000
    44 C22      6.2443  -1.5475   4.3891   C.ar      1 RES1   0.0000
    45 H30      5.5399  -1.0730   3.9635   H         1 RES1   0.0000
    46 C23      8.3752  -1.6465   5.2527   C.ar      1 RES1   0.0000
    47 C24      9.5871  -0.9163   5.5684   C.ar      1 RES1   0.0000
    48 C25      9.2214   3.4862   3.4141   C.ar      1 RES1   0.0000
    49 H31      9.4923   3.0112   2.6372   H         1 RES1   0.0000
    50 C26      9.6069   4.8202   3.5487   C.ar      1 RES1   0.0000
    51 H32     10.1483   5.2315   2.8863   H         1 RES1   0.0000
    52 C27      9.1919   5.5351   4.6568   C.ar      1 RES1   0.0000
    53 H33      9.4386   6.4481   4.7482   H         1 RES1   0.0000
    54 C28      8.4109   4.9235   5.6458   C.ar      1 RES1   0.0000
    55 C29      7.9047   5.5453   6.8297   C.ar      1 RES1   0.0000
    56 H34      8.0987   6.4633   6.9783   H         1 RES1   0.0000
    57 C30      7.1696   4.8911   7.7382   C.ar      1 RES1   0.0000
    58 H35      6.8439   5.3509   8.5027   H         1 RES1   0.0000
    59 C31      6.8770   3.5096   7.5587   C.ar      1 RES1   0.0000
    60 C32      6.1393   2.7115   8.4501   C.ar      1 RES1   0.0000
    61 H36      5.8082   3.0907   9.2564   H         1 RES1   0.0000
    62 C33      5.8899   1.3890   8.1731   C.ar      1 RES1   0.0000
    63 H37      5.3758   0.8595   8.7705   H         1 RES1   0.0000
    64 C34      6.4063   0.8347   6.9969   C.ar      1 RES1   0.0000
    65 H38      6.2306  -0.0815   6.8143   H         1 RES1   0.0000
    66 C35      7.3467   2.8306   6.3871   C.ar      1 RES1   0.0000
    67 C36      8.1060   3.5724   5.4260   C.ar      1 RES1   0.0000
    68 As1      0.8001   7.3951   3.5551   As        2 RES2   0.0000
    69 As2      0.7976  10.7121   4.1584   As        2 RES2   0.0000
    70 As3     -1.9709   9.1044   2.8822   As        2 RES2   0.0000
    71 S1       2.1573   9.1741   3.1340   S.3       2 RES2   0.0000
    72 S2      -0.7371  10.9865   2.4951   S.3       2 RES2   0.0000
    73 S3      -0.6358   7.5551   1.8200   S.3       2 RES2   0.0000
    74 S4       2.0612   5.7746   2.8693   S.3       2 RES2  -1.0000
    75 S5       1.9495  12.5182   3.9259   S.3       2 RES2  -1.0000
    76 S6      -3.5487   9.3189   1.4192   S.3       2 RES2  -1.0000
    77 O1       0.5609   1.4864   3.1077   O.3       3 RES3   0.0000
    78 H1       1.0267   0.8096   3.2253   H         3 RES3   0.0000
    79 H2       0.6984   1.7585   2.3369   H         3 RES3   0.0000
    80 O2       0.7445   3.4141   1.0462   O.3       4 RES4   0.0000
    81 H3       1.2107   3.4801   0.3621   H         4 RES4   0.0000
    82 H4       0.8304   4.1140   1.4811   H         4 RES4   0.0000
    83 O3       9.9996   3.7579   0.3250   O.3       5 RES5   0.0000
    84 H5       9.9270   3.6918  -0.5014   H         5 RES5   0.0000
    85 H6      10.8011   3.6407   0.5123   H         5 RES5   0.0000
    86 O4       0.9563   3.5234   4.9168   O.3       6 RES6   0.0000
    87 H7       0.6629   2.9005   4.4526   H         6 RES6   0.0000
    88 H8       1.1812   4.1352   4.4061   H         6 RES6   0.0000
    89 O5       3.6716  -1.0204   7.1516   O.3       7 RES7   0.0000
    90 H9       3.4082  -0.3894   7.6252   H         7 RES7   0.0000
    91 H10      3.5705  -0.7957   6.3592   H         7 RES7   0.0000
    92 O6       3.8474   7.6780   7.3730   O.3       8 RES8   0.0000
    93 H11      3.9577   7.5529   6.5604   H         8 RES8   0.0000
    94 H12      3.0381   7.5940   7.5339   H         8 RES8   0.0000
    95 O7       3.2482   3.5294   6.6579   O.3       9 RES9   0.0000
    96 H13      2.4224   3.4632   6.5620   H         9 RES9   0.0000
    97 H14      3.6098   4.1001   6.1132   H         9 RES9   0.0000
    98 N7       4.6417   6.2528   5.0763   N.3      10 RES10   0.0000
    99 H39      4.4186   5.4149   5.1382   H        10 RES10   0.0000
   100 H40      5.0572   6.1309   5.6798   H        10 RES10   0.0000
   101 N8       6.5581   6.1258   1.8572   N.3      10 RES10   0.0000
   102 H41      6.8377   6.9476   1.8185   H        10 RES10   0.0000
   103 N9       8.6932   6.2450  -0.0201   N.3      10 RES10   0.0000
   104 H42      9.1705   5.5652   0.2476   H        10 RES10   0.0000
   105 H43      8.4883   6.2185   0.8202   H        10 RES10   0.0000
   106 C37      5.5412   6.6742   4.0301   C.3      10 RES10   0.0000
   107 H44      6.3987   6.9504   4.4402   H        10 RES10   0.0000
   108 H45      5.1554   7.4650   3.5781   H        10 RES10   0.0000
   109 C38      5.8237   5.5966   2.9792   C.3      10 RES10   0.0000
   110 H46      6.3451   4.8636   3.3940   H        10 RES10   0.0000
   111 H47      4.9665   5.2180   2.6588   H        10 RES10   0.0000
   112 C39      6.8000   5.1829   0.8001   C.3      10 RES10   0.0000
   113 H48      5.9477   4.7421   0.5556   H        10 RES10   0.0000
   114 H49      7.4229   4.4847   1.1220   H        10 RES10   0.0000
   115 C40      7.3662   5.8190  -0.3854   C.3      10 RES10   0.0000
   116 H50      7.4039   5.1777  -1.1391   H        10 RES10   0.0000
   117 H51      6.8155   6.5955  -0.6577   H        10 RES10   0.0000
@<TRIPOS>BOND
     1     1     2    1
     2     2    24   ar
     3     3     1    1
     4     4     1    1
     5     5     1    1
     6     6     1    1
     7     7     1    1
     8     8     3   ar
     9     9     8    1
    10    10     8   ar
    11    11    10    1
    12    12    10   ar
    13    13    12    1
    14    14    12   ar
    15    15    14   ar
    16    16    15    1
    17    17    15   ar
    18    18    17    1
    19    19    17   ar
    20    20    19   ar
    21    21    20    1
    22    22    20   ar
    23    23    22    1
    24    24    22   ar
    25    25    24    1
    26    26     2   ar
    27    27     3   ar
    28    28     5   ar
    29    29    28    1
    30    30    28   ar
    31    31    30    1
    32    32    30   ar
    33    33    32    1
    34    34    32   ar
    35    35    34   ar
    36    36    35    1
    37    37    35   ar
    38    38    37    1
    39    39    37   ar
    40    40    39   ar
    41    41    40    1
    42    42    40   ar
    43    43    42    1
    44    44     4   ar
    45    45    44    1
    46    46     4   ar
    47    47     5   ar
    48    48     6   ar
    49    49    48    1
    50    50    48   ar
    51    51    50    1
    52    52    50   ar
    53    53    52    1
    54    54    52   ar
    55    55    54   ar
    56    56    55    1
    57    57    55   ar
    58    58    57    1
    59    59    57   ar
    60    60    59   ar
    61    61    60    1
    62    62    60   ar
    63    63    62    1
    64    64     7   ar
    65    65    64    1
    66    66     7   ar
    67    67     6   ar
    68    14    27   ar
    69    19    26   ar
    70    26    27   ar
    71    34    47   ar
    72    39    46   ar
    73    42    44   ar
    74    46    47   ar
    75    54    67   ar
    76    59    66   ar
    77    62    64   ar
    78    66    67   ar
    79    68    71    1
    80    69    71    1
    81    70    72    1
    82    72    69    1
    83    73    68    1
    84    74    68    1
    85    75    69    1
    86    76    70    1
    87    70    73    1
    88    77    78    1
    89    79    77    1
    90    80    81    1
    91    82    80    1
    92    83    84    1
    93    85    83    1
    94    86    87    1
    95    88    86    1
    96    89    90    1
    97    91    89    1
    98    92    93    1
    99    94    92    1
   100    95    96    1
   101    97    95    1
   102    98    99    1
   103   100    98    1
   104   101   102    1
   105   103   104    1
   106   105   103    1
   107   106    98    1
   108   107   106    1
   109   108   106    1
   110   109   101    1
   111   110   109    1
   112   111   109    1
   113   112   101    1
   114   113   112    1
   115   114   112    1
   116   115   103    1
   117   116   115    1
   118   117   115    1
   119   106   109    1
   120   112   115    1
@<TRIPOS>SUBSTRUCTURE
     1 RES1        1 GROUP             0 ****  ****    0  
     2 RES2       68 GROUP             0 ****  ****    0  
     3 RES3       77 GROUP             0 ****  ****    0  
     4 RES4       80 GROUP             0 ****  ****    0  
     5 RES5       83 GROUP             0 ****  ****    0  
     6 RES6       86 GROUP             0 ****  ****    0  
     7 RES7       89 GROUP             0 ****  ****    0  
     8 RES8       92 GROUP             0 ****  ****    0  
     9 RES9       95 GROUP             0 ****  ****    0  
    10 RES10      98 GROUP             0 ****  ****    0  
@<TRIPOS>CRYSIN
   11.9470   13.4440   16.8250  104.3610  106.7830   93.3840     2     1
