@<TRIPOS>MOLECULE
GAHJEG
   118   123     2     0     0
SMALL
USER_CHARGES
****
Generated from the CSD

@<TRIPOS>ATOM
     1 Fe1      5.2952   6.7456  24.5456   Fe        1 RES1   1.0000
     2 Si1      1.9828   5.4309  25.7132   Si        1 RES1   0.0000
     3 P1       5.0325   4.8985  25.7686   P.3       1 RES1   0.0000
     4 P2       3.8519   7.8839  25.8425   P.3       1 RES1   0.0000
     5 P3       3.6219   6.0765  23.1644   P.3       1 RES1   0.0000
     6 P4       7.1262   7.7424  25.5240   P.3       1 RES1   0.0000
     7 P5       7.1640   6.0314  23.3984   P.3       1 RES1   0.0000
     8 Cl1      5.5314   8.5797  23.0552   Cl        1 RES1   0.0000
     9 C1       3.4269   4.6770  26.6477   C.3       1 RES1   0.0000
    10 H1       3.4872   5.0963  27.5434   H         1 RES1   0.0000
    11 H2       3.2593   3.7105  26.7752   H         1 RES1   0.0000
    12 C2       2.1138   7.2803  25.9537   C.3       1 RES1   0.0000
    13 H3       1.5687   7.7363  25.2657   H         1 RES1   0.0000
    14 H4       1.7448   7.5185  26.8405   H         1 RES1   0.0000
    15 C3       2.2862   5.0507  23.9032   C.3       1 RES1   0.0000
    16 H5       2.5262   4.0956  23.8124   H         1 RES1   0.0000
    17 H6       1.4482   5.2027  23.3972   H         1 RES1   0.0000
    18 C4       0.3099   4.7581  26.2589   C.3       1 RES1   0.0000
    19 C5      -0.7922   5.6119  25.6215   C.3       1 RES1   0.0000
    20 H7      -1.6688   5.2446  25.8588   H         1 RES1   0.0000
    21 H8      -0.6885   5.6031  24.6458   H         1 RES1   0.0000
    22 H9      -0.7223   6.5329  25.9507   H         1 RES1   0.0000
    23 C6       0.1676   4.8151  27.7910   C.3       1 RES1   0.0000
    24 H10     -0.7175   4.4832  28.0505   H         1 RES1   0.0000
    25 H11      0.2701   5.7424  28.0950   H         1 RES1   0.0000
    26 H12      0.8597   4.2577  28.2048   H         1 RES1   0.0000
    27 C7       0.1568   3.2937  25.8093   C.3       1 RES1   0.0000
    28 H13     -0.7247   2.9605  26.0753   H         1 RES1   0.0000
    29 H14      0.8537   2.7490  26.2295   H         1 RES1   0.0000
    30 H15      0.2448   3.2405  24.8356   H         1 RES1   0.0000
    31 C8       6.1496   4.5009  27.1611   C.3       1 RES1   0.0000
    32 H16      5.8337   3.6915  27.6146   H         1 RES1   0.0000
    33 H17      6.1592   5.2471  27.7955   H         1 RES1   0.0000
    34 H18      7.0563   4.3515  26.8197   H         1 RES1   0.0000
    35 C9       5.1355   3.3013  24.8608   C.3       1 RES1   0.0000
    36 H19      4.7111   2.5957  25.3932   H         1 RES1   0.0000
    37 H20      6.0772   3.0733  24.7081   H         1 RES1   0.0000
    38 H21      4.6749   3.3836  23.9993   H         1 RES1   0.0000
    39 C10      3.5740   9.6441  25.4724   C.3       1 RES1   0.0000
    40 H22      2.9072  10.0077  26.0931   H         1 RES1   0.0000
    41 H23      3.2508   9.7379  24.5509   H         1 RES1   0.0000
    42 H24      4.4156  10.1369  25.5741   H         1 RES1   0.0000
    43 C11      4.3252   7.9872  27.6080   C.3       1 RES1   0.0000
    44 H25      3.6065   8.4217  28.1128   H         1 RES1   0.0000
    45 H26      5.1488   8.5104  27.6946   H         1 RES1   0.0000
    46 H27      4.4723   7.0839  27.9616   H         1 RES1   0.0000
    47 C12      2.6190   7.4120  22.4099   C.3       1 RES1   0.0000
    48 H28      1.8521   7.0206  21.9440   H         1 RES1   0.0000
    49 H29      3.1688   7.9124  21.7719   H         1 RES1   0.0000
    50 H30      2.3019   8.0188  23.1125   H         1 RES1   0.0000
    51 C13      4.0358   5.1343  21.6509   C.3       1 RES1   0.0000
    52 H31      3.2098   4.8632  21.1995   H         1 RES1   0.0000
    53 H32      4.5531   4.3375  21.8935   H         1 RES1   0.0000
    54 H33      4.5676   5.6981  21.0512   H         1 RES1   0.0000
    55 C14      8.2284   7.3664  24.0986   C.3       1 RES1   0.0000
    56 H34      9.1183   7.0358  24.3818   H         1 RES1   0.0000
    57 H35      8.3309   8.1341  23.4832   H         1 RES1   0.0000
    58 C15      8.0740   7.1714  26.9760   C.3       1 RES1   0.0000
    59 H36      8.9097   7.6781  27.0392   H         1 RES1   0.0000
    60 H37      8.2766   6.2175  26.8790   H         1 RES1   0.0000
    61 H38      7.5435   7.3107  27.7895   H         1 RES1   0.0000
    62 C16      7.2457   9.5453  25.7879   C.3       1 RES1   0.0000
    63 H39      8.1801   9.8266  25.7016   H         1 RES1   0.0000
    64 H40      6.9189   9.7670  26.6863   H         1 RES1   0.0000
    65 H41      6.7018  10.0103  25.1174   H         1 RES1   0.0000
    66 C17      8.1295   4.5212  23.7664   C.3       1 RES1   0.0000
    67 H42      9.0507   4.6390  23.4565   H         1 RES1   0.0000
    68 H43      7.7256   3.7548  23.3082   H         1 RES1   0.0000
    69 H44      8.1283   4.3603  24.7318   H         1 RES1   0.0000
    70 C18      7.3698   6.1009  21.5827   C.3       1 RES1   0.0000
    71 H45      8.3248   6.1414  21.3627   H         1 RES1   0.0000
    72 H46      6.9213   6.8990  21.2322   H         1 RES1   0.0000
    73 H47      6.9756   5.3003  21.1788   H         1 RES1   0.0000
    74 B1      12.0098  11.8256  27.0629   B         2 RES2  -1.0000
    75 C19     13.2397  12.8175  27.5360   C.ar      2 RES2   0.0000
    76 C20     13.1155  13.7144  28.6111   C.ar      2 RES2   0.0000
    77 H48     12.2558  13.8487  28.9937   H         2 RES2   0.0000
    78 C21     14.1850  14.4099  29.1360   C.ar      2 RES2   0.0000
    79 H49     14.0440  15.0141  29.8537   H         2 RES2   0.0000
    80 C22     15.4584  14.2376  28.6324   C.ar      2 RES2   0.0000
    81 H50     16.1987  14.6847  29.0263   H         2 RES2   0.0000
    82 C23     15.6332  13.4053  27.5481   C.ar      2 RES2   0.0000
    83 H51     16.4965  13.2963  27.1667   H         2 RES2   0.0000
    84 C24     14.5359  12.7187  27.0084   C.ar      2 RES2   0.0000
    85 H52     14.6770  12.1625  26.2503   H         2 RES2   0.0000
    86 C25     12.0206  10.5195  28.0826   C.ar      2 RES2   0.0000
    87 C26     13.1758  10.1078  28.7852   C.ar      2 RES2   0.0000
    88 H53     13.9740  10.6145  28.6911   H         2 RES2   0.0000
    89 C27     13.1830   8.9829  29.6097   C.ar      2 RES2   0.0000
    90 H54     13.9764   8.7485  30.0762   H         2 RES2   0.0000
    91 C28     12.0544   8.2089  29.7553   C.ar      2 RES2   0.0000
    92 H55     12.0652   7.4399  30.3134   H         2 RES2   0.0000
    93 C29     10.8992   8.5686  29.0746   C.ar      2 RES2   0.0000
    94 H56     10.1130   8.0429  29.1627   H         2 RES2   0.0000
    95 C30     10.8956   9.6986  28.2667   C.ar      2 RES2   0.0000
    96 H57     10.0913   9.9279  27.8162   H         2 RES2   0.0000
    97 C31     10.5423  12.5768  27.1614   C.ar      2 RES2   0.0000
    98 C32      9.8369  13.0506  26.0593   C.ar      2 RES2   0.0000
    99 H58     10.2276  12.9632  25.1974   H         2 RES2   0.0000
   100 C33      8.5841  13.6498  26.1631   C.ar      2 RES2   0.0000
   101 H59      8.1319  13.9449  25.3813   H         2 RES2   0.0000
   102 C34      8.0029  13.8119  27.4037   C.ar      2 RES2   0.0000
   103 H60      7.1516  14.2249  27.4811   H         2 RES2   0.0000
   104 C35      8.6504  13.3812  28.5064   C.ar      2 RES2   0.0000
   105 H61      8.2537  13.4940  29.3614   H         2 RES2   0.0000
   106 C36      9.9044  12.7655  28.3966   C.ar      2 RES2   0.0000
   107 H62     10.3385  12.4666  29.1864   H         2 RES2   0.0000
   108 C37     12.2135  11.3075  25.5077   C.ar      2 RES2   0.0000
   109 C38     12.6923  12.1575  24.4960   C.ar      2 RES2   0.0000
   110 H63     12.9286  13.0493  24.7259   H         2 RES2   0.0000
   111 C39     12.8345  11.7483  23.1762   C.ar      2 RES2   0.0000
   112 H64     13.1649  12.3576  22.5253   H         2 RES2   0.0000
   113 C40     12.4981  10.4676  22.8052   C.ar      2 RES2   0.0000
   114 H65     12.6247  10.1762  21.9113   H         2 RES2   0.0000
   115 C41     11.9724   9.6074  23.7564   C.ar      2 RES2   0.0000
   116 H66     11.6975   8.7321  23.5099   H         2 RES2   0.0000
   117 C42     11.8482  10.0293  25.0717   C.ar      2 RES2   0.0000
   118 H67     11.4973   9.4199  25.7105   H         2 RES2   0.0000
@<TRIPOS>BOND
     1     1     3    1
     2     2     9    1
     3     3     9    1
     4     4     1    1
     5     5     1    1
     6     6     1    1
     7     7     1    1
     8     8     1    1
     9     9    10    1
    10    11     9    1
    11    12     2    1
    12    13    12    1
    13    14    12    1
    14    15     2    1
    15    16    15    1
    16    17    15    1
    17    18     2    1
    18    19    18    1
    19    20    19    1
    20    21    19    1
    21    22    19    1
    22    23    18    1
    23    24    23    1
    24    25    23    1
    25    26    23    1
    26    27    18    1
    27    28    27    1
    28    29    27    1
    29    30    27    1
    30    31     3    1
    31    32    31    1
    32    33    31    1
    33    34    31    1
    34    35     3    1
    35    36    35    1
    36    37    35    1
    37    38    35    1
    38    39     4    1
    39    40    39    1
    40    41    39    1
    41    42    39    1
    42    43     4    1
    43    44    43    1
    44    45    43    1
    45    46    43    1
    46    47     5    1
    47    48    47    1
    48    49    47    1
    49    50    47    1
    50    51     5    1
    51    52    51    1
    52    53    51    1
    53    54    51    1
    54    55     6    1
    55    56    55    1
    56    57    55    1
    57    58     6    1
    58    59    58    1
    59    60    58    1
    60    61    58    1
    61    62     6    1
    62    63    62    1
    63    64    62    1
    64    65    62    1
    65    66     7    1
    66    67    66    1
    67    68    66    1
    68    69    66    1
    69    70     7    1
    70    71    70    1
    71    72    70    1
    72    73    70    1
    73     4    12    1
    74     5    15    1
    75     7    55    1
    76    74    75    1
    77    75    76   ar
    78    76    77    1
    79    78    76   ar
    80    79    78    1
    81    80    78   ar
    82    81    80    1
    83    82    80   ar
    84    83    82    1
    85    84    75   ar
    86    85    84    1
    87    86    74    1
    88    87    86   ar
    89    88    87    1
    90    89    87   ar
    91    90    89    1
    92    91    89   ar
    93    92    91    1
    94    93    91   ar
    95    94    93    1
    96    95    86   ar
    97    96    95    1
    98    97    74    1
    99    98    97   ar
   100    99    98    1
   101   100    98   ar
   102   101   100    1
   103   102   100   ar
   104   103   102    1
   105   104   102   ar
   106   105   104    1
   107   106    97   ar
   108   107   106    1
   109   108    74    1
   110   109   108   ar
   111   110   109    1
   112   111   109   ar
   113   112   111    1
   114   113   111   ar
   115   114   113    1
   116   115   113   ar
   117   116   115    1
   118   117   108   ar
   119   118   117    1
   120    82    84   ar
   121    93    95   ar
   122   104   106   ar
   123   115   117   ar
@<TRIPOS>SUBSTRUCTURE
     1 RES1        1 GROUP             0 ****  ****    0  
     2 RES2       74 GROUP             0 ****  ****    0  
@<TRIPOS>CRYSIN
   12.0580   12.6680   29.6580   90.0000   90.0000   90.0000    19     1
