@<TRIPOS>MOLECULE
GALVIC
   140   156     2     0     0
SMALL
USER_CHARGES
****
Generated from the CSD

@<TRIPOS>ATOM
     1 C1      15.1101   8.7063   2.3936   C.ar      1 RES1   0.0000
     2 C2      14.0325   7.8344   2.3841   C.ar      1 RES1   0.0000
     3 H1      13.9989   7.1197   1.7909   H         1 RES1   0.0000
     4 C3      12.9795   8.0706   3.3118   C.ar      1 RES1   0.0000
     5 C4      13.0861   9.1875   4.1949   C.ar      1 RES1   0.0000
     6 H2      12.4189   9.3703   4.8167   H         1 RES1   0.0000
     7 C5      14.2059   9.9909   4.1012   C.ar      1 RES1   0.0000
     8 C6      13.7542  11.8106   5.8468   C.2       1 RES1   0.0000
     9 H3      12.9378  11.5517   6.2097   H         1 RES1   0.0000
    10 C7      14.4827  12.9056   6.1694   C.2       1 RES1   0.0000
    11 H4      14.2589  13.5467   6.8047   H         1 RES1   0.0000
    12 C8      15.6716  11.8164   4.5506   C.3       1 RES1   0.0000
    13 C9      16.6571  13.9482   5.3961   C.3       1 RES1   0.0000
    14 H5      16.4204  14.6067   6.0530   H         1 RES1   0.0000
    15 H6      17.5079  13.5639   5.6196   H         1 RES1   0.0000
    16 H7      16.7109  14.3633   4.5318   H         1 RES1   0.0000
    17 C10     16.5925   7.8344   0.4826   C.2       1 RES1   0.0000
    18 H8      16.1104   7.1061   0.1630   H         1 RES1   0.0000
    19 C11     17.7597   8.3141   0.0018   C.2       1 RES1   0.0000
    20 H9      18.2359   7.9741  -0.7207   H         1 RES1   0.0000
    21 C12     17.2154   9.6643   1.7730   C.3       1 RES1   0.0000
    22 C13     19.3000  10.2694   0.5138   C.3       1 RES1   0.0000
    23 H10     19.7980   9.9040  -0.2211   H         1 RES1   0.0000
    24 H11     19.0058  11.1562   0.2908   H         1 RES1   0.0000
    25 H12     19.8587  10.3046   1.2933   H         1 RES1   0.0000
    26 C14     10.7313   7.5486   4.1858   C.ar      1 RES1   0.0000
    27 C15      9.9018   8.6276   3.8864   C.ar      1 RES1   0.0000
    28 H13     10.0939   9.1673   3.1535   H         1 RES1   0.0000
    29 C16      8.7761   8.9104   4.6844   C.ar      1 RES1   0.0000
    30 H14      8.2312   9.6378   4.4885   H         1 RES1   0.0000
    31 C17      8.4880   8.0837   5.7702   C.ar      1 RES1   0.0000
    32 C18      9.3092   6.9916   6.0607   C.ar      1 RES1   0.0000
    33 H15      9.1070   6.4377   6.7808   H         1 RES1   0.0000
    34 C19     10.4304   6.7277   5.2763   C.ar      1 RES1   0.0000
    35 H16     10.9794   6.0049   5.4777   H         1 RES1   0.0000
    36 C20      6.5814   9.4252   6.4020   C.3       1 RES1   0.0000
    37 H17      5.8751   9.4364   7.0525   H         1 RES1   0.0000
    38 H18      7.1111  10.2208   6.4916   H         1 RES1   0.0000
    39 H19      6.2041   9.3891   5.5204   H         1 RES1   0.0000
    40 C21     11.7497   6.1167   2.4457   C.ar      1 RES1   0.0000
    41 C22     10.9228   6.2203   1.3229   C.ar      1 RES1   0.0000
    42 H20     10.4503   7.0065   1.1701   H         1 RES1   0.0000
    43 C23     10.8006   5.1602   0.4338   C.ar      1 RES1   0.0000
    44 H21     10.2456   5.2360  -0.3086   H         1 RES1   0.0000
    45 C24     11.5176   3.9733   0.6589   C.ar      1 RES1   0.0000
    46 C25     12.3118   3.8508   1.8030   C.ar      1 RES1   0.0000
    47 H22     12.7608   3.0537   1.9737   H         1 RES1   0.0000
    48 C26     12.4321   4.9269   2.6972   C.ar      1 RES1   0.0000
    49 H23     12.9659   4.8475   3.4545   H         1 RES1   0.0000
    50 C27     12.1663   1.7935  -0.1507   C.3       1 RES1   0.0000
    51 H24     11.9835   1.1971  -0.8797   H         1 RES1   0.0000
    52 H25     13.0998   2.0192  -0.1479   H         1 RES1   0.0000
    53 H26     11.9382   1.3666   0.6781   H         1 RES1   0.0000
    54 N1      16.2574   8.6645   1.5658   N.pl3     1 RES1   0.0000
    55 N2      18.1254   9.4152   0.7865   N.pl3     1 RES1   0.0000
    56 N3      15.6383  12.8967   5.3695   N.pl3     1 RES1   0.0000
    57 N4      14.4853  11.1467   4.8533   N.pl3     1 RES1   0.0000
    58 N5      15.2156   9.7758   3.2192   N.ar      1 RES1   0.0000
    59 N6      11.8793   7.2487   3.3490   N.pl3     1 RES1   0.0000
    60 Fe1     16.7642  10.9358   3.1779   Fe        1 RES1   3.0000
    61 O1       7.4127   8.2689   6.6166   O.3       1 RES1   0.0000
    62 O2      11.3797   2.9996  -0.3047   O.3       1 RES1   0.0000
    63 C1A     18.4182  13.1652   2.3936   C.ar      1 RES1   0.0000
    64 C2A     19.4958  14.0371   2.3841   C.ar      1 RES1   0.0000
    65 H1A     19.5294  14.7518   1.7909   H         1 RES1   0.0000
    66 C3A     20.5488  13.8009   3.3118   C.ar      1 RES1   0.0000
    67 C4A     20.4422  12.6840   4.1949   C.ar      1 RES1   0.0000
    68 H2A     21.1094  12.5012   4.8167   H         1 RES1   0.0000
    69 C5A     19.3224  11.8806   4.1012   C.ar      1 RES1   0.0000
    70 C6A     19.7741  10.0609   5.8468   C.2       1 RES1   0.0000
    71 H3A     20.5905  10.3198   6.2097   H         1 RES1   0.0000
    72 C7A     19.0456   8.9659   6.1694   C.2       1 RES1   0.0000
    73 H4A     19.2694   8.3248   6.8047   H         1 RES1   0.0000
    74 C8A     17.8567  10.0551   4.5506   C.3       1 RES1   0.0000
    75 C9A     16.8712   7.9233   5.3961   C.3       1 RES1   0.0000
    76 H5A     17.1079   7.2648   6.0530   H         1 RES1   0.0000
    77 H6A     16.0204   8.3076   5.6196   H         1 RES1   0.0000
    78 H7A     16.8174   7.5082   4.5318   H         1 RES1   0.0000
    79 C10A    16.9358  14.0371   0.4826   C.2       1 RES1   0.0000
    80 H8A     17.4179  14.7654   0.1630   H         1 RES1   0.0000
    81 C11A    15.7686  13.5574   0.0018   C.2       1 RES1   0.0000
    82 H9A     15.2924  13.8974  -0.7207   H         1 RES1   0.0000
    83 C12A    16.3129  12.2072   1.7730   C.3       1 RES1   0.0000
    84 C13A    14.2283  11.6021   0.5138   C.3       1 RES1   0.0000
    85 H10A    13.7303  11.9675  -0.2211   H         1 RES1   0.0000
    86 H11A    14.5225  10.7153   0.2908   H         1 RES1   0.0000
    87 H12A    13.6696  11.5669   1.2933   H         1 RES1   0.0000
    88 C14A    22.7970  14.3229   4.1858   C.ar      1 RES1   0.0000
    89 C15A    23.6265  13.2439   3.8864   C.ar      1 RES1   0.0000
    90 H13A    23.4344  12.7042   3.1535   H         1 RES1   0.0000
    91 C16A    24.7522  12.9611   4.6844   C.ar      1 RES1   0.0000
    92 H14A    25.2971  12.2337   4.4885   H         1 RES1   0.0000
    93 C17A    25.0403  13.7878   5.7702   C.ar      1 RES1   0.0000
    94 C18A    24.2191  14.8799   6.0607   C.ar      1 RES1   0.0000
    95 H15A    24.4213  15.4338   6.7808   H         1 RES1   0.0000
    96 C19A    23.0979  15.1438   5.2763   C.ar      1 RES1   0.0000
    97 H16A    22.5489  15.8666   5.4777   H         1 RES1   0.0000
    98 C20A    26.9469  12.4463   6.4020   C.3       1 RES1   0.0000
    99 H17A    27.6532  12.4351   7.0525   H         1 RES1   0.0000
   100 H18A    26.4172  11.6507   6.4916   H         1 RES1   0.0000
   101 H19A    27.3242  12.4824   5.5204   H         1 RES1   0.0000
   102 C21A    21.7786  15.7548   2.4457   C.ar      1 RES1   0.0000
   103 C22A    22.6055  15.6512   1.3229   C.ar      1 RES1   0.0000
   104 H20A    23.0780  14.8650   1.1701   H         1 RES1   0.0000
   105 C23A    22.7277  16.7113   0.4338   C.ar      1 RES1   0.0000
   106 H21A    23.2827  16.6355  -0.3086   H         1 RES1   0.0000
   107 C24A    22.0107  17.8982   0.6589   C.ar      1 RES1   0.0000
   108 C25A    21.2165  18.0207   1.8030   C.ar      1 RES1   0.0000
   109 H22A    20.7675  18.8178   1.9737   H         1 RES1   0.0000
   110 C26A    21.0962  16.9446   2.6972   C.ar      1 RES1   0.0000
   111 H23A    20.5624  17.0240   3.4545   H         1 RES1   0.0000
   112 C27A    21.3620  20.0780  -0.1507   C.3       1 RES1   0.0000
   113 H24A    21.5448  20.6744  -0.8797   H         1 RES1   0.0000
   114 H25A    20.4285  19.8523  -0.1479   H         1 RES1   0.0000
   115 H26A    21.5901  20.5049   0.6781   H         1 RES1   0.0000
   116 N1A     17.2709  13.2070   1.5658   N.pl3     1 RES1   0.0000
   117 N2A     15.4029  12.4563   0.7865   N.pl3     1 RES1   0.0000
   118 N3A     17.8900   8.9748   5.3695   N.pl3     1 RES1   0.0000
   119 N4A     19.0430  10.7248   4.8533   N.pl3     1 RES1   0.0000
   120 N5A     18.3127  12.0957   3.2192   N.ar      1 RES1   0.0000
   121 N6A     21.6490  14.6228   3.3490   N.pl3     1 RES1   0.0000
   122 O1A     26.1156  13.6026   6.6166   O.3       1 RES1   0.0000
   123 O2A     22.1486  18.8719  -0.3047   O.3       1 RES1   0.0000
   124 N7       7.5052  12.7788   2.9087   N.pl3     2 RES2   0.0000
   125 N8       7.6659   9.2516   0.8265   N.pl3     2 RES2   0.0000
   126 O3       7.3943   9.3406   2.0564   O.3       2 RES2   0.0000
   127 O4       8.5057   8.4672   0.4265   O.2       2 RES2   0.0000
   128 O5       6.9638   9.9632   0.0310   O.3       2 RES2   0.0000
   129 O6       6.9068  11.9637   3.6785   O.3       2 RES2  -1.0000
   130 O7       8.4147  13.5064   3.3217   O.2       2 RES2   0.0000
   131 O8       7.0814  12.8619   1.7065   O.3       2 RES2   0.0000
   132 K1       5.5881  10.9358   1.8471   K         2 RES2   0.0000
   133 N7A      3.6709   9.0927   2.9087   N.pl3     2 RES2   0.0000
   134 N8A      3.5102  12.6199   0.8265   N.pl3     2 RES2   0.0000
   135 O3A      3.7818  12.5309   2.0564   O.3       2 RES2  -1.0000
   136 O4A      2.6704  13.4043   0.4265   O.2       2 RES2   0.0000
   137 O5A      4.2123  11.9083   0.0310   O.3       2 RES2   0.0000
   138 O6A      4.2693   9.9078   3.6785   O.3       2 RES2   0.0000
   139 O7A      2.7614   8.3651   3.3217   O.2       2 RES2   0.0000
   140 O8A      4.0947   9.0096   1.7065   O.3       2 RES2  -1.0000
@<TRIPOS>BOND
     1     1     2   ar
     2     2     3    1
     3     4     2   ar
     4     5     4   ar
     5     6     5    1
     6     7     5   ar
     7     8     9    1
     8    10     8    2
     9    11    10    1
    10    12    56    1
    11    13    14    1
    12    15    13    1
    13    16    13    1
    14    17    18    1
    15    19    17    2
    16    20    19    1
    17    21    54    1
    18    22    23    1
    19    24    22    1
    20    25    22    1
    21    26    27   ar
    22    27    28    1
    23    29    27   ar
    24    30    29    1
    25    31    29   ar
    26    32    31   ar
    27    33    32    1
    28    34    26   ar
    29    35    34    1
    30    36    37    1
    31    38    36    1
    32    39    36    1
    33    40    41   ar
    34    41    42    1
    35    43    41   ar
    36    44    43    1
    37    45    43   ar
    38    46    45   ar
    39    47    46    1
    40    48    40   ar
    41    49    48    1
    42    50    51    1
    43    52    50    1
    44    53    50    1
    45    54     1    1
    46    55    19    1
    47    56    10    1
    48    57     7    1
    49    58     1   ar
    50    59     4    1
    51    60    12    1
    52    61    31    1
    53    62    45    1
    54    63    64   ar
    55    64    65    1
    56    66    64   ar
    57    67    66   ar
    58    68    67    1
    59    69    67   ar
    60    70    71    1
    61    72    70    2
    62    73    72    1
    63    74    60    1
    64    75    76    1
    65    77    75    1
    66    78    75    1
    67    79    80    1
    68    81    79    2
    69    82    81    1
    70    83    60    1
    71    84    85    1
    72    86    84    1
    73    87    84    1
    74    88    89   ar
    75    89    90    1
    76    91    89   ar
    77    92    91    1
    78    93    91   ar
    79    94    93   ar
    80    95    94    1
    81    96    88   ar
    82    97    96    1
    83    98    99    1
    84   100    98    1
    85   101    98    1
    86   102   103   ar
    87   103   104    1
    88   105   103   ar
    89   106   105    1
    90   107   105   ar
    91   108   107   ar
    92   109   108    1
    93   110   102   ar
    94   111   110    1
    95   112   113    1
    96   114   112    1
    97   115   112    1
    98   116    63    1
    99   117    81    1
   100   118    72    1
   101   119    69    1
   102   120    60    1
   103   121    66    1
   104   122    93    1
   105   123   107    1
   106     7    58   ar
   107     8    57    1
   108    12    57    1
   109    13    56    1
   110    17    54    1
   111    21    55    1
   112    21    60    1
   113    22    55    1
   114    26    59    1
   115    32    34   ar
   116    36    61    1
   117    40    59    1
   118    46    48   ar
   119    50    62    1
   120    58    60    1
   121    63   120   ar
   122    69   120   ar
   123    70   119    1
   124    74   118    1
   125    74   119    1
   126    75   118    1
   127    79   116    1
   128    83   116    1
   129    83   117    1
   130    84   117    1
   131    88   121    1
   132    94    96   ar
   133    98   122    1
   134   102   121    1
   135   108   110   ar
   136   112   123    1
   137   124   129    1
   138   125   126    1
   139   126   132    1
   140   127   125    2
   141   128   125    1
   142   129   132    1
   143   130   124    2
   144   131   124    1
   145   132   128    1
   146   133   138    1
   147   134   135    1
   148   135   132    1
   149   136   134    2
   150   137   132    1
   151   138   132    1
   152   139   133    2
   153   140   132    1
   154   131   132    1
   155   133   140    1
   156   134   137    1
@<TRIPOS>SUBSTRUCTURE
     1 RES1        1 GROUP             0 ****  ****    0  
     2 RES2      124 GROUP             0 ****  ****    0  
@<TRIPOS>CRYSIN
   22.3522   14.5810   18.1566   90.0000   90.0000   90.0000    56     1
