@<TRIPOS>MOLECULE
GAMKEO
   114   120     3     0     0
SMALL
USER_CHARGES
****
Generated from the CSD

@<TRIPOS>ATOM
     1 Fe1      1.9313   7.5650   6.4982   Fe        1 RES1   2.0000
     2 P1       3.2614   8.5286   4.9735   P.3       1 RES1   0.0000
     3 P2       0.5612   6.2743   7.6825   P.3       1 RES1   0.0000
     4 N1       3.6492   7.1225   4.0649   N.pl3     1 RES1   0.0000
     5 N2       1.9184   6.0644   5.2192   N.ar      1 RES1   0.0000
     6 N3       0.2138   5.0859   6.4937   N.pl3     1 RES1   0.0000
     7 N4       1.8817   8.9991   7.7827   N.1       1 RES1   0.0000
     8 N5       3.4404   6.7814   7.3883   N.1       1 RES1   0.0000
     9 N6       0.4066   8.2861   5.6118   N.1       1 RES1   0.0000
    10 C1       2.7736   6.0442   4.1654   C.ar      1 RES1   0.0000
    11 C2       2.7445   5.0309   3.2087   C.ar      1 RES1   0.0000
    12 H1       3.3607   5.0254   2.4856   H         1 RES1   0.0000
    13 C3       1.7932   4.0311   3.3398   C.ar      1 RES1   0.0000
    14 H2       1.7390   3.3438   2.6862   H         1 RES1   0.0000
    15 C4       0.9195   4.0257   4.4174   C.ar      1 RES1   0.0000
    16 H3       0.2698   3.3394   4.5135   H         1 RES1   0.0000
    17 C5       1.0183   5.0516   5.3550   C.ar      1 RES1   0.0000
    18 C6       1.2586   5.4378   9.1330   C.ar      1 RES1   0.0000
    19 C7       1.9038   4.2004   9.0619   C.ar      1 RES1   0.0000
    20 H4       1.8988   3.7074   8.2499   H         1 RES1   0.0000
    21 C8       2.5551   3.6903  10.1847   C.ar      1 RES1   0.0000
    22 H5       2.9775   2.8406  10.1402   H         1 RES1   0.0000
    23 C9       2.5897   4.4148  11.3630   C.ar      1 RES1   0.0000
    24 H6       3.0397   4.0629  12.1220   H         1 RES1   0.0000
    25 C10      1.9667   5.6581  11.4397   C.ar      1 RES1   0.0000
    26 H7       1.9991   6.1595  12.2460   H         1 RES1   0.0000
    27 C11      1.2961   6.1623  10.3281   C.ar      1 RES1   0.0000
    28 H8       0.8608   7.0050  10.3823   H         1 RES1   0.0000
    29 C12     -1.0358   6.8452   8.3260   C.ar      1 RES1   0.0000
    30 C13     -1.4375   8.1756   8.1860   C.ar      1 RES1   0.0000
    31 H9      -0.8747   8.7969   7.7390   H         1 RES1   0.0000
    32 C14     -2.6643   8.5928   8.7022   C.ar      1 RES1   0.0000
    33 H10     -2.9379   9.4969   8.6008   H         1 RES1   0.0000
    34 C15     -3.4897   7.6881   9.3657   C.ar      1 RES1   0.0000
    35 H11     -4.3332   7.9701   9.6997   H         1 RES1   0.0000
    36 C16     -3.0756   6.3673   9.5389   C.ar      1 RES1   0.0000
    37 H12     -3.6290   5.7542  10.0087   H         1 RES1   0.0000
    38 C17     -1.8545   5.9471   9.0251   C.ar      1 RES1   0.0000
    39 H13     -1.5735   5.0481   9.1481   H         1 RES1   0.0000
    40 C18      4.8138   9.3648   5.3608   C.ar      1 RES1   0.0000
    41 C19      5.2845   9.3337   6.6763   C.ar      1 RES1   0.0000
    42 H14      4.8007   8.8583   7.3416   H         1 RES1   0.0000
    43 C20      6.4594   9.9963   7.0140   C.ar      1 RES1   0.0000
    44 H15      6.7845   9.9573   7.9058   H         1 RES1   0.0000
    45 C21      7.1584  10.7136   6.0563   C.ar      1 RES1   0.0000
    46 H16      7.9604  11.1650   6.2916   H         1 RES1   0.0000
    47 C22      6.6843  10.7714   4.7500   C.ar      1 RES1   0.0000
    48 H17      7.1611  11.2698   4.0968   H         1 RES1   0.0000
    49 C23      5.5179  10.1053   4.3940   C.ar      1 RES1   0.0000
    50 H18      5.1971  10.1498   3.5009   H         1 RES1   0.0000
    51 C24      2.4461   9.6561   3.8047   C.ar      1 RES1   0.0000
    52 C25      2.3631  11.0042   4.1518   C.ar      1 RES1   0.0000
    53 H19      2.8181  11.3231   4.9224   H         1 RES1   0.0000
    54 C26      1.6174  11.8838   3.3757   C.ar      1 RES1   0.0000
    55 H20      1.5696  12.8019   3.6148   H         1 RES1   0.0000
    56 C27      0.9396  11.4244   2.2477   C.ar      1 RES1   0.0000
    57 H21      0.4240  12.0255   1.7228   H         1 RES1   0.0000
    58 C28      1.0216  10.0859   1.8952   C.ar      1 RES1   0.0000
    59 H22      0.5710   9.7723   1.1199   H         1 RES1   0.0000
    60 C29      1.7629   9.1983   2.6742   C.ar      1 RES1   0.0000
    61 H23      1.8036   8.2795   2.4360   H         1 RES1   0.0000
    62 C30      4.8504   7.0069   3.2810   C.ar      1 RES1   0.0000
    63 C31      5.9016   6.2521   3.7886   C.ar      1 RES1   0.0000
    64 H24      5.7996   5.7775   4.6050   H         1 RES1   0.0000
    65 C32      7.1058   6.1975   3.0904   C.ar      1 RES1   0.0000
    66 H25      7.8203   5.6664   3.4219   H         1 RES1   0.0000
    67 C33      7.2675   6.9141   1.9143   C.ar      1 RES1   0.0000
    68 H26      8.1004   6.8970   1.4576   H         1 RES1   0.0000
    69 C34      6.2117   7.6561   1.4053   C.ar      1 RES1   0.0000
    70 H27      6.3187   8.1406   0.5953   H         1 RES1   0.0000
    71 C35      4.9923   7.6904   2.0830   C.ar      1 RES1   0.0000
    72 H28      4.2618   8.1809   1.7248   H         1 RES1   0.0000
    73 C36     -0.9614   4.2518   6.5446   C.ar      1 RES1   0.0000
    74 C37     -2.1471   4.7489   6.0130   C.ar      1 RES1   0.0000
    75 H29     -2.1572   5.5927   5.5767   H         1 RES1   0.0000
    76 C38     -3.3176   4.0055   6.1227   C.ar      1 RES1   0.0000
    77 H30     -4.1302   4.3461   5.7672   H         1 RES1   0.0000
    78 C39     -3.3017   2.7610   6.7535   C.ar      1 RES1   0.0000
    79 H31     -4.1048   2.2619   6.8458   H         1 RES1   0.0000
    80 C40     -2.1051   2.2564   7.2459   C.ar      1 RES1   0.0000
    81 H32     -2.0877   1.3977   7.6519   H         1 RES1   0.0000
    82 C41     -0.9291   2.9993   7.1490   C.ar      1 RES1   0.0000
    83 H33     -0.1136   2.6534   7.4924   H         1 RES1   0.0000
    84 C42      1.7185   9.8022   8.5888   C.1       1 RES1   0.0000
    85 C43      1.4409  10.7737   9.6297   C.3       1 RES1   0.0000
    86 H34      1.5012  11.6780   9.2571   H         1 RES1   0.0000
    87 H35      2.0951  10.6739  10.3526   H         1 RES1   0.0000
    88 H36      0.5388  10.6253   9.9828   H         1 RES1   0.0000
    89 C44      4.2982   6.2892   7.9682   C.1       1 RES1   0.0000
    90 C45      5.3940   5.6833   8.7012   C.3       1 RES1   0.0000
    91 H37      5.3757   4.7119   8.5723   H         1 RES1   0.0000
    92 H38      5.3016   5.8879   9.6552   H         1 RES1   0.0000
    93 H39      6.2448   6.0406   8.3715   H         1 RES1   0.0000
    94 C46     -0.5100   8.7438   5.1007   C.1       1 RES1   0.0000
    95 C47     -1.6765   9.3403   4.4842   C.3       1 RES1   0.0000
    96 H40     -2.3544   9.5163   5.1696   H         1 RES1   0.0000
    97 H41     -2.0418   8.7259   3.8137   H         1 RES1   0.0000
    98 H42     -1.4228  10.1823   4.0517   H         1 RES1   0.0000
    99 S1       4.8868   9.6431  10.4604   S.o2      2 RES2   0.0000
   100 F1       7.3091  10.6775  10.3743   F         2 RES2   0.0000
   101 F2       6.8596   9.6203  12.1999   F         2 RES2   0.0000
   102 F3       6.0122  11.5713  11.8448   F         2 RES2   0.0000
   103 O1       5.4468   8.4330   9.9056   O.3       2 RES2  -1.0000
   104 O2       4.4917  10.6404   9.4978   O.2       2 RES2   0.0000
   105 O3       3.9596   9.4358  11.5473   O.2       2 RES2   0.0000
   106 C48      6.3403  10.4177  11.2599   C.3       2 RES2   0.0000
   107 S2       8.3512   9.0236  17.2289   S.o2      3 RES3   0.0000
   108 F4       9.2027   7.5976  15.1899   F         3 RES3   0.0000
   109 F5       7.3684   6.8800  16.0570   F         3 RES3   0.0000
   110 F6       7.3577   8.6427  14.8251   F         3 RES3   0.0000
   111 O4       7.0180   9.3023  17.7076   O.2       3 RES3   0.0000
   112 O5       9.1345   8.1656  18.0849   O.2       3 RES3   0.0000
   113 O6       9.0666  10.1582  16.6903   O.3       3 RES3  -1.0000
   114 C49      8.0558   7.9852  15.7503   C.3       3 RES3   0.0000
@<TRIPOS>BOND
     1     1     2    1
     2     2     4    1
     3     3     1    1
     4     4    10    1
     5     5     1    1
     6     6     3    1
     7     7     1    1
     8     8     1    1
     9     9     1    1
    10    10     5   ar
    11    11    10   ar
    12    12    11    1
    13    13    11   ar
    14    14    13    1
    15    15    13   ar
    16    16    15    1
    17    17     5   ar
    18    18     3    1
    19    19    18   ar
    20    20    19    1
    21    21    19   ar
    22    22    21    1
    23    23    21   ar
    24    24    23    1
    25    25    23   ar
    26    26    25    1
    27    27    18   ar
    28    28    27    1
    29    29     3    1
    30    30    29   ar
    31    31    30    1
    32    32    30   ar
    33    33    32    1
    34    34    32   ar
    35    35    34    1
    36    36    34   ar
    37    37    36    1
    38    38    29   ar
    39    39    38    1
    40    40     2    1
    41    41    40   ar
    42    42    41    1
    43    43    41   ar
    44    44    43    1
    45    45    43   ar
    46    46    45    1
    47    47    45   ar
    48    48    47    1
    49    49    40   ar
    50    50    49    1
    51    51     2    1
    52    52    51   ar
    53    53    52    1
    54    54    52   ar
    55    55    54    1
    56    56    54   ar
    57    57    56    1
    58    58    56   ar
    59    59    58    1
    60    60    51   ar
    61    61    60    1
    62    62     4    1
    63    63    62   ar
    64    64    63    1
    65    65    63   ar
    66    66    65    1
    67    67    65   ar
    68    68    67    1
    69    69    67   ar
    70    70    69    1
    71    71    62   ar
    72    72    71    1
    73    73     6    1
    74    74    73   ar
    75    75    74    1
    76    76    74   ar
    77    77    76    1
    78    78    76   ar
    79    79    78    1
    80    80    78   ar
    81    81    80    1
    82    82    73   ar
    83    83    82    1
    84    84     7    3
    85    85    84    1
    86    86    85    1
    87    87    85    1
    88    88    85    1
    89    89     8    3
    90    90    89    1
    91    91    90    1
    92    92    90    1
    93    93    90    1
    94    94     9    3
    95    95    94    1
    96    96    95    1
    97    97    95    1
    98    98    95    1
    99     6    17    1
   100    15    17   ar
   101    25    27   ar
   102    36    38   ar
   103    47    49   ar
   104    58    60   ar
   105    69    71   ar
   106    80    82   ar
   107    99   103    1
   108   100   106    1
   109   101   106    1
   110   102   106    1
   111   104    99    2
   112   105    99    2
   113   106    99    1
   114   107   111    2
   115   108   114    1
   116   109   114    1
   117   110   114    1
   118   112   107    2
   119   113   107    1
   120   114   107    1
@<TRIPOS>SUBSTRUCTURE
     1 RES1        1 GROUP             0 ****  ****    0  
     2 RES2       99 GROUP             0 ****  ****    0  
     3 RES3      107 GROUP             0 ****  ****    0  
@<TRIPOS>CRYSIN
   12.1381   21.3273   20.1399   90.0000  104.6460   90.0000     9     1
