@<TRIPOS>MOLECULE
GEDFIE
   106   110     2     0     0
SMALL
USER_CHARGES
****
Generated from the CSD

@<TRIPOS>ATOM
     1 Fe1      0.0000   0.0000   0.0000   Fe        1 RES1   2.0000
     2 P1      -0.2625   2.1237   0.7601   P.3       1 RES1   0.0000
     3 P2      -0.0549  -0.5726   2.1903   P.3       1 RES1   0.0000
     4 N1       1.8875   0.2326   0.1054   N.1       1 RES1   0.0000
     5 C1       3.0046   0.3711   0.2046   C.1       1 RES1   0.0000
     6 C2       4.4492   0.5202   0.3785   C.3       1 RES1   0.0000
     7 C3       0.8774   3.4661   0.3141   C.3       1 RES1   0.0000
     8 C4      -1.8696   2.9021   0.4563   C.3       1 RES1   0.0000
     9 C5      -0.0886   2.1335   2.5740   C.3       1 RES1   0.0000
    10 C6       1.5478  -0.9303   2.9893   C.3       1 RES1   0.0000
    11 C7      -1.1845  -1.8622   2.7735   C.3       1 RES1   0.0000
    12 C8      -0.6530   0.8938   3.1438   C.3       1 RES1   0.0000
    13 H1       0.8008   4.1322   0.9259   H         1 RES1   0.0000
    14 H2       0.7376   3.7088  -0.9617   H         1 RES1   0.0000
    15 H3       1.6938   3.1164   0.3407   H         1 RES1   0.0000
    16 H4      -2.5601   2.3083   0.8614   H         1 RES1   0.0000
    17 H5      -1.8880   2.9967  -0.5923   H         1 RES1   0.0000
    18 H6      -1.8979   3.7781   0.8829   H         1 RES1   0.0000
    19 H7      -0.5674   3.0045   2.9955   H         1 RES1   0.0000
    20 H8       0.9651   2.1532   2.8072   H         1 RES1   0.0000
    21 H9       1.3849  -1.0687   3.9152   H         1 RES1   0.0000
    22 H10      2.2709  -0.1632   2.6906   H         1 RES1   0.0000
    23 H11      1.4765  -2.0499   2.5607   H         1 RES1   0.0000
    24 H12     -1.9719  -1.8666   2.2834   H         1 RES1   0.0000
    25 H13     -1.2336  -1.8396   3.6206   H         1 RES1   0.0000
    26 H14     -0.5949  -2.7064   2.4451   H         1 RES1   0.0000
    27 H15     -0.3681   0.7908   4.1802   H         1 RES1   0.0000
    28 H16     -1.7292   0.9596   3.0712   H         1 RES1   0.0000
    29 H17      4.6785   1.2362  -0.1688   H         1 RES1   0.0000
    30 H18      4.8415  -0.1403  -0.1678   H         1 RES1   0.0000
    31 H19      4.5942   0.4839   1.3095   H         1 RES1   0.0000
    32 P1A      0.2625  -2.1237  -0.7601   P.3       1 RES1   0.0000
    33 P2A      0.0549   0.5726  -2.1903   P.3       1 RES1   0.0000
    34 N1A     -1.8875  -0.2326  -0.1054   N.1       1 RES1   0.0000
    35 C3A     -0.8774  -3.4661  -0.3141   C.3       1 RES1   0.0000
    36 C4A      1.8696  -2.9021  -0.4563   C.3       1 RES1   0.0000
    37 C5A      0.0886  -2.1335  -2.5740   C.3       1 RES1   0.0000
    38 C6A     -1.5478   0.9303  -2.9893   C.3       1 RES1   0.0000
    39 C7A      1.1845   1.8622  -2.7735   C.3       1 RES1   0.0000
    40 C8A      0.6530  -0.8938  -3.1438   C.3       1 RES1   0.0000
    41 C1A     -3.0046  -0.3711  -0.2046   C.1       1 RES1   0.0000
    42 H1A     -0.8008  -4.1322  -0.9259   H         1 RES1   0.0000
    43 H2A     -0.7376  -3.7088   0.9617   H         1 RES1   0.0000
    44 H3A     -1.6938  -3.1164  -0.3407   H         1 RES1   0.0000
    45 H4A      2.5601  -2.3083  -0.8614   H         1 RES1   0.0000
    46 H5A      1.8880  -2.9967   0.5923   H         1 RES1   0.0000
    47 H6A      1.8979  -3.7781  -0.8829   H         1 RES1   0.0000
    48 H7A      0.5674  -3.0045  -2.9955   H         1 RES1   0.0000
    49 H8A     -0.9651  -2.1532  -2.8072   H         1 RES1   0.0000
    50 H9A     -1.3849   1.0687  -3.9152   H         1 RES1   0.0000
    51 H10A    -2.2709   0.1632  -2.6906   H         1 RES1   0.0000
    52 H11A    -1.4765   2.0499  -2.5607   H         1 RES1   0.0000
    53 H12A     1.9719   1.8666  -2.2834   H         1 RES1   0.0000
    54 H13A     1.2336   1.8396  -3.6206   H         1 RES1   0.0000
    55 H14A     0.5949   2.7064  -2.4451   H         1 RES1   0.0000
    56 H15A     0.3681  -0.7908  -4.1802   H         1 RES1   0.0000
    57 H16A     1.7292  -0.9596  -3.0712   H         1 RES1   0.0000
    58 C2A     -4.4492  -0.5202  -0.3785   C.3       1 RES1   0.0000
    59 H17A    -4.6785  -1.2362   0.1688   H         1 RES1   0.0000
    60 H18A    -4.8415   0.1403   0.1678   H         1 RES1   0.0000
    61 H19A    -4.5942  -0.4839  -1.3095   H         1 RES1   0.0000
    62 B1       0.2951  -0.8664   7.7659   B         2 RES2  -1.0000
    63 C9      -1.2301  -1.5344   7.5337   C.ar      2 RES2   0.0000
    64 C10     -1.7000  -2.4931   8.4330   C.ar      2 RES2   0.0000
    65 C11     -2.9636  -3.0564   8.2539   C.ar      2 RES2   0.0000
    66 C12     -3.7567  -2.6630   7.1767   C.ar      2 RES2   0.0000
    67 C13     -3.2868  -1.7043   6.2774   C.ar      2 RES2   0.0000
    68 C14     -2.0238  -1.1399   6.4564   C.ar      2 RES2   0.0000
    69 C15      0.5977  -0.7850   9.4325   C.ar      2 RES2   0.0000
    70 C16      1.7469  -1.3125  10.0197   C.ar      2 RES2   0.0000
    71 C17      1.9515  -1.1798  11.3936   C.ar      2 RES2   0.0000
    72 C18      1.0069  -0.5210  12.1793   C.ar      2 RES2   0.0000
    73 C19     -0.1435   0.0065  11.5921   C.ar      2 RES2   0.0000
    74 C20     -0.3475  -0.1251  10.2182   C.ar      2 RES2   0.0000
    75 C21      1.4633  -1.8132   6.9823   C.ar      2 RES2   0.0000
    76 C22      2.8080  -1.4502   7.0703   C.ar      2 RES2   0.0000
    77 C23      3.7742  -2.1840   6.3848   C.ar      2 RES2   0.0000
    78 C24      3.3981  -3.2832   5.6114   C.ar      2 RES2   0.0000
    79 C25      2.0540  -3.6459   5.5244   C.ar      2 RES2   0.0000
    80 C26      1.0866  -2.9120   6.2099   C.ar      2 RES2   0.0000
    81 C27      0.3156   0.7290   7.1347   C.ar      2 RES2   0.0000
    82 C28      1.3972   1.2229   6.4043   C.ar      2 RES2   0.0000
    83 C29      1.4027   2.5512   5.9776   C.ar      2 RES2   0.0000
    84 C30      0.3272   3.3854   6.2805   C.ar      2 RES2   0.0000
    85 C31     -0.7538   2.8927   7.0109   C.ar      2 RES2   0.0000
    86 C32     -0.7599   1.5646   7.4386   C.ar      2 RES2   0.0000
    87 H20     -1.0849  -2.7982   9.2667   H         2 RES2   0.0000
    88 H21     -3.3266  -3.7991   8.9496   H         2 RES2   0.0000
    89 H22     -4.7348  -3.0998   7.0375   H         2 RES2   0.0000
    90 H23     -3.9019  -1.3992   5.4436   H         2 RES2   0.0000
    91 H24     -1.6602  -0.3983   5.7608   H         2 RES2   0.0000
    92 H25      2.4796  -1.8234   9.4110   H         2 RES2   0.0000
    93 H26      2.8423  -1.5893  11.8479   H         2 RES2   0.0000
    94 H27      1.1656  -0.4185  13.2423   H         2 RES2   0.0000
    95 H28     -0.8750   0.5174  12.2008   H         2 RES2   0.0000
    96 H29     -1.2389   0.2833   9.7639   H         2 RES2   0.0000
    97 H30      3.0993  -0.5998   7.6687   H         2 RES2   0.0000
    98 H31      4.8154  -1.9028   6.4534   H         2 RES2   0.0000
    99 H32      4.1474  -3.8512   5.0815   H         2 RES2   0.0000
   100 H33      1.7633  -4.4965   4.9249   H         2 RES2   0.0000
   101 H34      0.0467  -3.1932   6.1413   H         2 RES2   0.0000
   102 H35      2.2288   0.5764   6.1700   H         2 RES2   0.0000
   103 H36      2.2397   2.9321   5.4119   H         2 RES2   0.0000
   104 H37      0.3314   4.4141   5.9500   H         2 RES2   0.0000
   105 H38     -1.5872   3.5394   7.2462   H         2 RES2   0.0000
   106 H39     -1.5975   1.1827   8.0043   H         2 RES2   0.0000
@<TRIPOS>BOND
     1     1     2    1
     2     2     7    1
     3     3     1    1
     4     4     1    1
     5     5     4    3
     6     6     5    1
     7     7    13    1
     8     8     2    1
     9     9     2    1
    10    10     3    1
    11    11     3    1
    12    12     3    1
    13    14     7    1
    14    15     7    1
    15    16     8    1
    16    17     8    1
    17    18     8    1
    18    19     9    1
    19    20     9    1
    20    21    10    1
    21    22    10    1
    22    23    10    1
    23    24    11    1
    24    25    11    1
    25    26    11    1
    26    27    12    1
    27    28    12    1
    28    29     6    1
    29    30     6    1
    30    31     6    1
    31    32     1    1
    32    33     1    1
    33    34     1    1
    34    35    32    1
    35    36    32    1
    36    37    32    1
    37    38    33    1
    38    39    33    1
    39    40    33    1
    40    41    34    3
    41    42    35    1
    42    43    35    1
    43    44    35    1
    44    45    36    1
    45    46    36    1
    46    47    36    1
    47    48    37    1
    48    49    37    1
    49    50    38    1
    50    51    38    1
    51    52    38    1
    52    53    39    1
    53    54    39    1
    54    55    39    1
    55    56    40    1
    56    57    40    1
    57    58    41    1
    58    59    58    1
    59    60    58    1
    60    61    58    1
    61     9    12    1
    62    37    40    1
    63    62    63    1
    64    63    64   ar
    65    64    65   ar
    66    65    66   ar
    67    66    67   ar
    68    67    68   ar
    69    68    63   ar
    70    69    62    1
    71    70    69   ar
    72    71    70   ar
    73    72    71   ar
    74    73    72   ar
    75    74    69   ar
    76    75    62    1
    77    76    75   ar
    78    77    76   ar
    79    78    77   ar
    80    79    78   ar
    81    80    75   ar
    82    81    62    1
    83    82    81   ar
    84    83    82   ar
    85    84    83   ar
    86    85    84   ar
    87    86    81   ar
    88    87    64    1
    89    88    65    1
    90    89    66    1
    91    90    67    1
    92    91    68    1
    93    92    70    1
    94    93    71    1
    95    94    72    1
    96    95    73    1
    97    96    74    1
    98    97    76    1
    99    98    77    1
   100    99    78    1
   101   100    79    1
   102   101    80    1
   103   102    82    1
   104   103    83    1
   105   104    84    1
   106   105    85    1
   107   106    86    1
   108    73    74   ar
   109    79    80   ar
   110    85    86   ar
@<TRIPOS>SUBSTRUCTURE
     1 RES1        1 GROUP             0 ****  ****    0  
     2 RES2       62 GROUP             0 ****  ****    0  
@<TRIPOS>CRYSIN
   12.2390   13.1290   12.2070   63.6200  118.9600  117.1000     2     1
