@<TRIPOS>MOLECULE
GEFDOL
   172   198     9     0     0
SMALL
NO_CHARGES
****
Generated from the CSD

@<TRIPOS>ATOM
     1 Fe1      4.4434   3.5226   6.8172   Fe        1 RES1   0.0000
     2 Fe2      1.7018   1.3736   6.6245   Fe        1 RES1   0.0000
     3 Fe3      0.2886   3.8083   4.5796   Fe        1 RES1   0.0000
     4 Fe4      1.7822   5.7718   7.0068   Fe        1 RES1   0.0000
     5 Fe5      4.5800   1.1555   4.3863   Fe        1 RES1   0.0000
     6 Fe6      3.6158   3.8334   3.4733   Fe        1 RES1   0.0000
     7 Fe7      4.2802   6.6894   5.6473   Fe        1 RES1   0.0000
     8 Fe8     -0.4622   3.9952   7.8960   Fe        1 RES1   0.0000
     9 Fe9      1.5798   0.8161   3.6861   Fe        1 RES1   0.0000
    10 Fe10     2.1321   6.4182   3.4429   Fe        1 RES1   0.0000
    11 Fe11     2.1181   2.8794   9.1762   Fe        1 RES1   0.0000
    12 O1       0.1921   7.0747   7.2915   O.co2     1 RES1   0.0000
    13 O2      -1.4543   5.7497   8.0103   O.co2     1 RES1   0.0000
    14 O3      -2.0674   3.1028   7.1988   O.co2     1 RES1   0.0000
    15 O4      -1.5881   2.9134   5.0102   O.co2     1 RES1   0.0000
    16 O5      -0.3114   3.3398   2.6222   O.co2     1 RES1   0.0000
    17 O6       0.4925   1.3062   2.1422   O.co2     1 RES1   0.0000
    18 O7       3.2901   4.1671   1.4722   O.co2     1 RES1   0.0000
    19 O8       2.2578   6.1175   1.4699   O.co2     1 RES1   0.0000
    20 O9       2.9305   8.2831   3.1090   O.co2     1 RES1   0.0000
    21 O10      4.5400   8.4186   4.6601   O.co2     1 RES1   0.0000
    22 O11     -0.9496   5.4949   4.1802   O.co2     1 RES1   0.0000
    23 O12      0.3097   7.0826   3.2296   O.co2     1 RES1   0.0000
    24 O13     -1.0556   3.7332   9.8441   O.co2     1 RES1   0.0000
    25 O14      0.8396   2.9867  10.7715   O.co2     1 RES1   0.0000
    26 O15      0.1619  -0.0353   6.4244   O.co2     1 RES1   0.0000
    27 O16      0.2016  -0.5017   4.2683   O.co2     1 RES1   0.0000
    28 O17      2.6031   7.1661   8.3325   O.co2     1 RES1   0.0000
    29 O18      4.4352   7.8368   7.2846   O.co2     1 RES1   0.0000
    30 O19      6.3859   4.2440   6.3201   O.co2     1 RES1   0.0000
    31 O20      6.1989   6.3843   5.6779   O.co2     1 RES1   0.0000
    32 O21      5.5746   3.7533   2.7335   O.co2     1 RES1   0.0000
    33 O22      6.1923   1.6819   3.3664   O.co2     1 RES1   0.0000
    34 O23      2.5917   1.0588   9.8534   O.co2     1 RES1   0.0000
    35 O24      2.3674  -0.0751   7.9500   O.co2     1 RES1   0.0000
    36 O25      5.0901   4.2033   8.6803   O.co2     1 RES1   0.0000
    37 O26      3.5711   3.6718  10.2221   O.co2     1 RES1   0.0000
    38 O27      5.5782   1.8514   7.4144   O.co2     1 RES1   0.0000
    39 O28      5.6888   0.3264   5.7845   O.co2     1 RES1   0.0000
    40 O29      4.5943  -0.5530   3.2505   O.co2     1 RES1   0.0000
    41 O30      2.4313  -0.7393   2.6778   O.co2     1 RES1   0.0000
    42 O31      1.8834   4.5663   3.8718   O.3       1 RES1   0.0000
    43 O32      1.0936   2.1312   4.9708   O.3       1 RES1   0.0000
    44 O33      2.9016   2.6341   7.4793   O.3       1 RES1   0.0000
    45 O34      0.4880   2.2027   8.0844   O.3       1 RES1   0.0000
    46 H1      -0.0457   1.5338   8.5644   H         1 RES1   0.0000
    47 O35      0.5009   4.4843   6.3665   O.3       1 RES1   0.0000
    48 O36      3.1863   1.8754   2.9838   O.3       1 RES1   0.0000
    49 H2       3.4208   1.6511   2.0588   H         1 RES1   0.0000
    50 O37      2.8952   0.3913   5.2907   O.3       1 RES1   0.0000
    51 H3       2.9667  -0.5684   5.4785   H         1 RES1   0.0000
    52 O38      4.2463   2.9050   5.0310   O.3       1 RES1   0.0000
    53 O39      4.1041   5.8264   3.7907   O.3       1 RES1   0.0000
    54 H4       4.7394   6.1818   3.1345   H         1 RES1   0.0000
    55 O40      3.5530   5.2049   6.5589   O.3       1 RES1   0.0000
    56 O41      1.3391   4.7209   8.7081   O.3       1 RES1   0.0000
    57 H5       1.2066   5.2948   9.4917   H         1 RES1   0.0000
    58 O42      2.1962   6.9870   5.4159   O.3       1 RES1   0.0000
    59 H6       1.9219   7.9167   5.5573   H         1 RES1   0.0000
    60 C1      -1.9750   8.0089   7.5164   C.3       1 RES1   0.0000
    61 H7      -1.6965   8.6194   6.8302   H         1 RES1   0.0000
    62 H8      -2.0092   8.4680   8.3580   H         1 RES1   0.0000
    63 H9      -2.8449   7.6625   7.3054   H         1 RES1   0.0000
    64 C2      -0.9768   6.8549   7.6068   C.2       1 RES1   0.0000
    65 C3      -3.5171   1.7926   5.8773   C.3       1 RES1   0.0000
    66 H10     -3.5018   1.3190   5.0426   H         1 RES1   0.0000
    67 H11     -4.2963   2.3514   5.9144   H         1 RES1   0.0000
    68 H12     -3.5397   1.1623   6.6006   H         1 RES1   0.0000
    69 C4      -2.2757   2.6482   5.9932   C.2       1 RES1   0.0000
    70 C5      -0.7954   2.4237   0.5240   C.3       1 RES1   0.0000
    71 H13     -0.4622   1.7249  -0.0441   H         1 RES1   0.0000
    72 H14     -0.6038   3.2764   0.1275   H         1 RES1   0.0000
    73 H15     -1.7460   2.3259   0.6260   H         1 RES1   0.0000
    74 C6      -0.1369   2.3346   1.8640   C.2       1 RES1   0.0000
    75 C7       2.6168   5.0700  -0.5889   C.3       1 RES1   0.0000
    76 H16      3.2876   4.5027  -0.9737   H         1 RES1   0.0000
    77 H17      2.7354   5.9683  -0.9088   H         1 RES1   0.0000
    78 H18      1.7460   4.7536  -0.8393   H         1 RES1   0.0000
    79 C8       2.7421   5.0527   0.8880   C.2       1 RES1   0.0000
    80 C9       4.2556  10.2690   3.1925   C.3       1 RES1   0.0000
    81 H19      3.4844  10.7202   2.8401   H         1 RES1   0.0000
    82 H20      4.9180  10.1818   2.5039   H         1 RES1   0.0000
    83 H21      4.6184  10.7772   3.9205   H         1 RES1   0.0000
    84 C10      3.8520   8.8808   3.6910   C.2       1 RES1   0.0000
    85 C11     -1.9994   7.4640   3.4962   C.3       1 RES1   0.0000
    86 H22     -2.7357   6.9390   3.1740   H         1 RES1   0.0000
    87 H23     -1.8135   8.1712   2.8749   H         1 RES1   0.0000
    88 H24     -2.2236   7.8410   4.3494   H         1 RES1   0.0000
    89 C12     -0.7875   6.5914   3.6377   C.2       1 RES1   0.0000
    90 C13     -1.0153   3.3906  12.1580   C.3       1 RES1   0.0000
    91 H25     -1.9563   3.2213  12.0675   H         1 RES1   0.0000
    92 H26     -0.8829   4.2562  12.5521   H         1 RES1   0.0000
    93 H27     -0.6197   2.7203  12.7167   H         1 RES1   0.0000
    94 C14     -0.3699   3.3559  10.8017   C.2       1 RES1   0.0000
    95 C15     -1.4150  -1.5773   5.6292   C.3       1 RES1   0.0000
    96 H28     -1.8282  -1.7691   4.7853   H         1 RES1   0.0000
    97 H29     -2.0585  -1.1748   6.2181   H         1 RES1   0.0000
    98 H30     -1.0903  -2.3919   6.0210   H         1 RES1   0.0000
    99 C16     -0.2856  -0.6459   5.4229   C.2       1 RES1   0.0000
   100 C17      4.0370   8.6715   9.4245   C.3       1 RES1   0.0000
   101 H31      3.4192   8.5274  10.1455   H         1 RES1   0.0000
   102 H32      4.0043   9.5914   9.1532   H         1 RES1   0.0000
   103 H33      4.9254   8.4542   9.7166   H         1 RES1   0.0000
   104 C18      3.6620   7.7903   8.2583   C.2       1 RES1   0.0000
   105 C19      8.3280   5.4408   5.7961   C.3       1 RES1   0.0000
   106 H34      8.5865   6.3613   5.7034   H         1 RES1   0.0000
   107 H35      8.6051   4.9507   5.0194   H         1 RES1   0.0000
   108 H36      8.7470   5.0687   6.5751   H         1 RES1   0.0000
   109 C20      6.8380   5.3511   5.9399   C.2       1 RES1   0.0000
   110 C21      7.8063   3.0901   2.3324   C.3       1 RES1   0.0000
   111 H37      8.1522   3.8983   2.7172   H         1 RES1   0.0000
   112 H38      7.7855   3.1766   1.3748   H         1 RES1   0.0000
   113 H39      8.3682   2.3519   2.5758   H         1 RES1   0.0000
   114 C22      6.4221   2.8507   2.8401   C.2       1 RES1   0.0000
   115 C23      3.1154  -1.2352   9.8604   C.3       1 RES1   0.0000
   116 H40      3.7126  -1.7284   9.2924   H         1 RES1   0.0000
   117 H41      2.3502  -1.7759  10.0667   H         1 RES1   0.0000
   118 H42      3.5695  -0.9971  10.6718   H         1 RES1   0.0000
   119 C24      2.6755  -0.0067   9.1625   C.2       1 RES1   0.0000
   120 C25      5.4687   4.8692  10.8967   C.3       1 RES1   0.0000
   121 H43      6.4024   4.7798  10.6881   H         1 RES1   0.0000
   122 H44      5.2918   4.4589  11.7476   H         1 RES1   0.0000
   123 H45      5.2368   5.7997  10.9361   H         1 RES1   0.0000
   124 C26      4.6475   4.1912   9.8302   C.2       1 RES1   0.0000
   125 C27      6.5004  -0.2494   7.9013   C.3       1 RES1   0.0000
   126 H46      6.3666   0.0332   8.8078   H         1 RES1   0.0000
   127 H47      7.4414  -0.3045   7.7181   H         1 RES1   0.0000
   128 H48      6.0974  -1.1112   7.7715   H         1 RES1   0.0000
   129 C28      5.8806   0.7193   6.9901   C.2       1 RES1   0.0000
   130 C29      3.9728  -2.3269   1.8038   C.3       1 RES1   0.0000
   131 H49      4.8469  -2.6453   2.0426   H         1 RES1   0.0000
   132 H50      3.9626  -2.0871   0.8741   H         1 RES1   0.0000
   133 H51      3.3258  -3.0184   1.9637   H         1 RES1   0.0000
   134 C30      3.6283  -1.1011   2.6500   C.2       1 RES1   0.0000
   135 N1       1.0834   9.6006   5.5202   N.ar      2 RES2   0.0000
   136 C31      0.8396  10.1258   6.7305   C.ar      2 RES2   0.0000
   137 C32     -0.0232  11.2899   6.7745   C.ar      2 RES2   0.0000
   138 C33     -0.5298  11.7924   5.6153   C.ar      2 RES2   0.0000
   139 C34     -0.2829  11.2098   4.3981   C.ar      2 RES2   0.0000
   140 C35      0.5589  10.0905   4.3958   C.ar      2 RES2   0.0000
   141 N2       1.1361   6.2929  11.0660   N.ar      3 RES3   0.0000
   142 C36      0.5043   7.5298  11.0080   C.ar      3 RES3   0.0000
   143 C37      0.7069   8.4608  12.0189   C.ar      3 RES3   0.0000
   144 C38      1.5430   8.1562  13.0877   C.ar      3 RES3   0.0000
   145 C39      2.1758   6.9207  13.1433   C.ar      3 RES3   0.0000
   146 C40      1.9715   5.9883  12.1325   C.ar      3 RES3   0.0000
   147 N3       3.2337  -2.3087   5.8495   N.ar      4 RES4   0.0000
   148 C41      4.2813  -3.0080   5.3324   C.ar      4 RES4   0.0000
   149 C42      4.2309  -4.4314   5.3927   C.ar      4 RES4   0.0000
   150 C43      3.1450  -5.0397   5.9654   C.ar      4 RES4   0.0000
   151 C44      2.1488  -4.3390   6.4847   C.ar      4 RES4   0.0000
   152 C45      2.2027  -2.9152   6.4383   C.ar      4 RES4   0.0000
   153 N4      -0.8401   0.3743   9.7027   N.ar      5 RES5   0.0000
   154 C46     -2.0988  -0.0669   9.3086   C.ar      5 RES5   0.0000
   155 C47     -2.7889  -0.9837  10.0945   C.ar      5 RES5   0.0000
   156 C48     -2.2214  -1.4595  11.2700   C.ar      5 RES5   0.0000
   157 C49     -0.9632  -1.0183  11.6618   C.ar      5 RES5   0.0000
   158 C50     -0.2726  -0.1014  10.8782   C.ar      5 RES5   0.0000
   159 N5       3.6012   1.1607   0.3130   N.ar      6 RES6   0.0000
   160 C51      4.8427   1.1403  -0.1924   C.ar      6 RES6   0.0000
   161 C52      5.0241   0.8192  -1.5534   C.ar      6 RES6   0.0000
   162 C53      3.9220   0.5205  -2.3092   C.ar      6 RES6   0.0000
   163 C54      2.6679   0.5812  -1.7736   C.ar      6 RES6   0.0000
   164 C55      2.5470   0.9333  -0.4080   C.ar      6 RES6   0.0000
   165 N6       5.6716   7.1853   1.8339   N.ar      7 RES7   0.0000
   166 C56      6.8938   7.5804   2.2002   C.ar      7 RES7   0.0000
   167 C57      7.6781   8.4750   1.4073   C.ar      7 RES7   0.0000
   168 C58      7.0840   8.9230   0.2388   C.ar      7 RES7   0.0000
   169 C59      5.7954   8.5589  -0.1206   C.ar      7 RES7   0.0000
   170 C60      5.1181   7.6568   0.7419   C.ar      7 RES7   0.0000
   171 O43     -4.4864   3.5368   9.0605   O.3       8 RES8   0.0000
   172 O44      6.0768   4.5134  -0.2921   O.3       9 RES9   0.0000
@<TRIPOS>BOND
     1     1    30    1
     2     2    26    1
     3     3    15    1
     4     4    12    1
     5     5    33    1
     6     6    18    1
     7     7    21    1
     8     8    13    1
     9     9    17    1
    10    10    19    1
    11    11    25    1
    12    12    64   un
    13    13    64   un
    14    14     8    1
    15    15    69   un
    16    16     3    1
    17    17    74   un
    18    18    79   un
    19    19    79   un
    20    20    10    1
    21    21    84   un
    22    22     3    1
    23    23    10    1
    24    24     8    1
    25    25    94   un
    26    26    99   un
    27    27     9    1
    28    28     4    1
    29    29     7    1
    30    30   109   un
    31    31     7    1
    32    32     6    1
    33    33   114   un
    34    34    11    1
    35    35     2    1
    36    36     1    1
    37    37    11    1
    38    38     1    1
    39    39     5    1
    40    40     5    1
    41    41     9    1
    42    42     3    1
    43    43     2    1
    44    44     1    1
    45    45     2    1
    46    46    45    1
    47    47     3    1
    48    48     5    1
    49    49    48    1
    50    50     2    1
    51    51    50    1
    52    52     1    1
    53    53     6    1
    54    54    53    1
    55    55     1    1
    56    56     4    1
    57    57    56    1
    58    58     4    1
    59    59    58    1
    60    60    61    1
    61    62    60    1
    62    63    60    1
    63    64    60    1
    64    65    66    1
    65    67    65    1
    66    68    65    1
    67    69    14   un
    68    70    71    1
    69    72    70    1
    70    73    70    1
    71    74    16   un
    72    75    76    1
    73    77    75    1
    74    78    75    1
    75    79    75    1
    76    80    81    1
    77    82    80    1
    78    83    80    1
    79    84    20   un
    80    85    86    1
    81    87    85    1
    82    88    85    1
    83    89    22   un
    84    90    91    1
    85    92    90    1
    86    93    90    1
    87    94    24   un
    88    95    96    1
    89    97    95    1
    90    98    95    1
    91    99    27   un
    92   100   101    1
    93   102   100    1
    94   103   100    1
    95   104    28   un
    96   105   106    1
    97   107   105    1
    98   108   105    1
    99   109    31   un
   100   110   111    1
   101   112   110    1
   102   113   110    1
   103   114    32   un
   104   115   116    1
   105   117   115    1
   106   118   115    1
   107   119    34   un
   108   120   121    1
   109   122   120    1
   110   123   120    1
   111   124    36   un
   112   125   126    1
   113   127   125    1
   114   128   125    1
   115   129    38   un
   116   130   131    1
   117   132   130    1
   118   133   130    1
   119   134    40   un
   120     2    44    1
   121     3    43    1
   122     4    47    1
   123     4    55    1
   124     5    50    1
   125     5    52    1
   126     6    42    1
   127     6    48    1
   128     6    52    1
   129     7    53    1
   130     7    55    1
   131     7    58    1
   132     8    45    1
   133     8    47    1
   134     8    56    1
   135     9    43    1
   136     9    48    1
   137     9    50    1
   138    10    42    1
   139    10    53    1
   140    10    58    1
   141    11    44    1
   142    11    45    1
   143    11    56    1
   144    23    89   un
   145    29   104   un
   146    35   119   un
   147    37   124   un
   148    39   129   un
   149    41   134   un
   150    65    69    1
   151    70    74    1
   152    80    84    1
   153    85    89    1
   154    90    94    1
   155    95    99    1
   156   100   104    1
   157   105   109    1
   158   110   114    1
   159   115   119    1
   160   120   124    1
   161   125   129    1
   162   130   134    1
   163   135   136   ar
   164   136   137   ar
   165   137   138   ar
   166   138   139   ar
   167   139   140   ar
   168   140   135   ar
   169   141   142   ar
   170   142   143   ar
   171   143   144   ar
   172   144   145   ar
   173   145   146   ar
   174   146   141   ar
   175   147   148   ar
   176   148   149   ar
   177   149   150   ar
   178   150   151   ar
   179   151   152   ar
   180   152   147   ar
   181   153   154   ar
   182   154   155   ar
   183   155   156   ar
   184   156   157   ar
   185   157   158   ar
   186   158   153   ar
   187   159   160   ar
   188   160   161   ar
   189   161   162   ar
   190   162   163   ar
   191   163   164   ar
   192   164   159   ar
   193   165   166   ar
   194   166   167   ar
   195   167   168   ar
   196   168   169   ar
   197   169   170   ar
   198   170   165   ar
@<TRIPOS>SUBSTRUCTURE
     1 RES1        1 GROUP             0 ****  ****    0  
     2 RES2      135 GROUP             0 ****  ****    0  
     3 RES3      141 GROUP             0 ****  ****    0  
     4 RES4      147 GROUP             0 ****  ****    0  
     5 RES5      153 GROUP             0 ****  ****    0  
     6 RES6      159 GROUP             0 ****  ****    0  
     7 RES7      165 GROUP             0 ****  ****    0  
     8 RES8      171 GROUP             0 ****  ****    0  
     9 RES9      172 GROUP             0 ****  ****    0  
@<TRIPOS>CRYSIN
   12.6284   15.2877   23.8960   85.0820   76.0300   73.8910     2     1
