@<TRIPOS>MOLECULE
GELNEQ
   114   122     2     0     0
SMALL
USER_CHARGES
****
Generated from the CSD

@<TRIPOS>ATOM
     1 Fe1     10.7054   2.1765  13.0185   Fe        1 RES1   1.0000
     2 P1       9.0579   0.6258  13.3667   P.3       1 RES1   0.0000
     3 P2      11.6080   0.6071  11.6092   P.3       1 RES1   0.0000
     4 N1       9.0057   3.2895  10.8818   N.1       1 RES1   0.0000
     5 N2      13.0826   3.9230  12.4294   N.1       1 RES1   0.0000
     6 N3       9.4506   4.4014  14.8622   N.2       1 RES1   0.0000
     7 N4      11.5666   1.7707  14.8492   N.2       1 RES1   0.0000
     8 C1       9.6689   2.8474  11.6857   C.1       1 RES1   0.0000
     9 C2      12.1210   3.2884  12.6718   C.1       1 RES1   0.0000
    10 C3      10.1035   3.3764  14.5009   C.2       1 RES1   0.0000
    11 C4      10.9187   2.6945  15.5050   C.2       1 RES1   0.0000
    12 C5      11.0406   3.0025  16.9696   C.3       1 RES1   0.0000
    13 C6       9.4882  -0.8248  12.4163   C.3       1 RES1   0.0000
    14 C7      10.3262  -0.6049  11.2772   C.3       1 RES1   0.0000
    15 C8       8.1388   3.8273   9.8647   C.ar      1 RES1   0.0000
    16 C9       6.8349   3.7723  10.0747   C.ar      1 RES1   0.0000
    17 C10      5.9644   4.2562   9.0966   C.ar      1 RES1   0.0000
    18 C11      6.4742   4.7841   7.9901   C.ar      1 RES1   0.0000
    19 C12      7.8624   4.8721   7.7785   C.ar      1 RES1   0.0000
    20 C13      8.6758   4.3992   8.7875   C.ar      1 RES1   0.0000
    21 C14     14.2798   4.4982  12.0421   C.ar      1 RES1   0.0000
    22 C15     15.3470   4.4982  12.9159   C.ar      1 RES1   0.0000
    23 C16     16.5223   5.1031  12.5465   C.ar      1 RES1   0.0000
    24 C17     16.7012   5.6200  11.3423   C.ar      1 RES1   0.0000
    25 C18     15.6875   5.5870  10.4473   C.ar      1 RES1   0.0000
    26 C19     14.4375   5.0151  10.7760   C.ar      1 RES1   0.0000
    27 C20      8.7480   5.2570  13.9428   C.ar      1 RES1   0.0000
    28 C21      7.4643   5.5540  14.2113   C.ar      1 RES1   0.0000
    29 C22      6.7445   6.3678  13.3602   C.ar      1 RES1   0.0000
    30 C23      7.3914   6.8957  12.2373   C.ar      1 RES1   0.0000
    31 C24      8.6897   6.6318  11.9721   C.ar      1 RES1   0.0000
    32 C25      9.3833   5.7849  12.8134   C.ar      1 RES1   0.0000
    33 C26     12.5957   0.9568  15.4057   C.ar      1 RES1   0.0000
    34 C27     13.8239   1.5727  15.7458   C.ar      1 RES1   0.0000
    35 C28     14.8495   0.7919  16.2242   C.ar      1 RES1   0.0000
    36 C29     14.7082  -0.5719  16.2861   C.ar      1 RES1   0.0000
    37 C30     13.5272  -1.1438  15.8760   C.ar      1 RES1   0.0000
    38 C31     12.4729  -0.3849  15.4448   C.ar      1 RES1   0.0000
    39 C32      8.7798  -0.1210  15.0086   C.ar      1 RES1   0.0000
    40 C33      8.5084   0.7039  16.0859   C.ar      1 RES1   0.0000
    41 C34      8.2566   0.0880  17.3308   C.ar      1 RES1   0.0000
    42 C35      8.2112  -1.2098  17.5261   C.ar      1 RES1   0.0000
    43 C36      8.5253  -2.0346  16.4846   C.ar      1 RES1   0.0000
    44 C37      8.7720  -1.5177  15.1502   C.ar      1 RES1   0.0000
    45 C38      7.3467   1.0668  12.8753   C.ar      1 RES1   0.0000
    46 C39      6.7191   2.1116  13.5311   C.ar      1 RES1   0.0000
    47 C40      5.3853   2.4746  13.2625   C.ar      1 RES1   0.0000
    48 C41      4.7179   1.7597  12.2862   C.ar      1 RES1   0.0000
    49 C42      5.3041   0.7479  11.6678   C.ar      1 RES1   0.0000
    50 C43      6.6360   0.4069  11.9119   C.ar      1 RES1   0.0000
    51 C44     13.0931  -0.3189  12.1137   C.ar      1 RES1   0.0000
    52 C45     14.1695   0.3739  12.6279   C.ar      1 RES1   0.0000
    53 C46     15.3434  -0.3739  12.9696   C.ar      1 RES1   0.0000
    54 C47     15.3842  -1.7377  12.8232   C.ar      1 RES1   0.0000
    55 C48     14.3248  -2.3426  12.4163   C.ar      1 RES1   0.0000
    56 C49     13.1315  -1.7047  11.9933   C.ar      1 RES1   0.0000
    57 C50     12.0183   1.0558   9.9005   C.ar      1 RES1   0.0000
    58 C51     12.0339   2.3756   9.4302   C.ar      1 RES1   0.0000
    59 C52     12.3137   2.6505   8.1317   C.ar      1 RES1   0.0000
    60 C53     12.5860   1.6497   7.2480   C.ar      1 RES1   0.0000
    61 C54     12.6144   0.3299   7.6695   C.ar      1 RES1   0.0000
    62 C55     12.3349   0.0220   9.0071   C.ar      1 RES1   0.0000
    63 H1       6.4838   3.3841  10.9176   H         1 RES1   0.0000
    64 H2       4.9783   4.1902   9.2106   H         1 RES1   0.0000
    65 H3       5.8906   5.1493   7.2773   H         1 RES1   0.0000
    66 H4       8.2216   5.2350   6.9356   H         1 RES1   0.0000
    67 H5       9.6617   4.4982   8.7045   H         1 RES1   0.0000
    68 H6      15.2727   4.0726  13.7979   H         1 RES1   0.0000
    69 H7      17.2376   5.1856  13.2137   H         1 RES1   0.0000
    70 H8      17.5693   6.0247  11.1145   H         1 RES1   0.0000
    71 H9      15.8138   5.9884   9.5458   H         1 RES1   0.0000
    72 H10     13.7082   5.0129  10.1137   H         1 RES1   0.0000
    73 H11      7.0360   5.1900  15.0249   H         1 RES1   0.0000
    74 H12      5.7879   6.5537  13.5359   H         1 RES1   0.0000
    75 H13      6.9002   7.5094  11.6369   H         1 RES1   0.0000
    76 H14      9.1359   7.0409  11.1845   H         1 RES1   0.0000
    77 H15     10.3290   5.5529  12.6393   H         1 RES1   0.0000
    78 H16     13.9176   2.5526  15.6563   H         1 RES1   0.0000
    79 H17     15.6798   1.2329  16.5448   H         1 RES1   0.0000
    80 H18     15.4553  -1.1482  16.5839   H         1 RES1   0.0000
    81 H19     13.4054  -2.1303  15.9330   H         1 RES1   0.0000
    82 H20     11.6202  -0.8029  15.1600   H         1 RES1   0.0000
    83 H21      8.4951   1.6805  16.0111   H         1 RES1   0.0000
    84 H22      8.0803   0.6588  18.1005   H         1 RES1   0.0000
    85 H23      7.9993  -1.5716  18.4309   H         1 RES1   0.0000
    86 H24      8.5500  -3.0212  16.6408   H         1 RES1   0.0000
    87 H25      8.9333  -2.1105  14.3805   H         1 RES1   0.0000
    88 H26      7.2170   2.6263  14.2048   H         1 RES1   0.0000
    89 H27      4.9466   3.1960  13.7524   H         1 RES1   0.0000
    90 H28      3.8304   2.0313  12.0404   H         1 RES1   0.0000
    91 H29      4.7895   0.1408  11.0413   H         1 RES1   0.0000
    92 H30      7.1061  -0.3277  11.3765   H         1 RES1   0.0000
    93 H31     14.1454   1.3473  12.7272   H         1 RES1   0.0000
    94 H32     16.1452   0.0913  13.3342   H         1 RES1   0.0000
    95 H33     16.1717  -2.2865  13.0364   H         1 RES1   0.0000
    96 H34     14.3134  -3.3412  12.3350   H         1 RES1   0.0000
    97 H35     12.3680  -2.2260  11.6385   H         1 RES1   0.0000
    98 H36     11.8404   3.1102  10.0502   H         1 RES1   0.0000
    99 H37     12.3482   3.5952   7.8355   H         1 RES1   0.0000
   100 H38     12.7503   1.8620   6.2879   H         1 RES1   0.0000
   101 H39     12.8400  -0.3816   7.0235   H         1 RES1   0.0000
   102 H40     12.3568  -0.9139   9.3228   H         1 RES1   0.0000
   103 H41     11.5408   2.6153  17.7197   H         1 RES1   0.0000
   104 H42     11.2684   3.9593  16.8654   H         1 RES1   0.0000
   105 H43     10.0583   2.9277  17.1583   H         1 RES1   0.0000
   106 H44      9.9810  -1.4506  13.0282   H         1 RES1   0.0000
   107 H45      8.6537  -1.2648  12.1251   H         1 RES1   0.0000
   108 H46     10.7283  -1.4583  11.0055   H         1 RES1   0.0000
   109 H47      9.7367  -0.2695  10.5401   H         1 RES1   0.0000
   110 Cl1      5.6808   4.0748   0.5061   Cl        2 RES2   0.0000
   111 O1       6.9527   3.3874   0.4068   O.2       2 RES2   0.0000
   112 O2       5.6425   5.0371  -0.5045   O.2       2 RES2   0.0000
   113 O3       5.5094   4.9931   1.6436   O.2       2 RES2   0.0000
   114 O4       4.6478   3.1784   0.7160   O.3       2 RES2  -1.0000
@<TRIPOS>BOND
     1     1     2    1
     2     2    13    1
     3     3     1    1
     4     4     8    3
     5     5     9    3
     6     6    10    2
     7     7     1    1
     8     8     1    1
     9     9     1    1
    10    10     1    1
    11    11     7    2
    12    12    11    1
    13    13    14    1
    14    14     3    1
    15    15     4    1
    16    16    15   ar
    17    17    16   ar
    18    18    17   ar
    19    19    18   ar
    20    20    15   ar
    21    21     5    1
    22    22    21   ar
    23    23    22   ar
    24    24    23   ar
    25    25    24   ar
    26    26    21   ar
    27    27     6    1
    28    28    27   ar
    29    29    28   ar
    30    30    29   ar
    31    31    30   ar
    32    32    27   ar
    33    33     7    1
    34    34    33   ar
    35    35    34   ar
    36    36    35   ar
    37    37    36   ar
    38    38    33   ar
    39    39     2    1
    40    40    39   ar
    41    41    40   ar
    42    42    41   ar
    43    43    42   ar
    44    44    39   ar
    45    45     2    1
    46    46    45   ar
    47    47    46   ar
    48    48    47   ar
    49    49    48   ar
    50    50    45   ar
    51    51     3    1
    52    52    51   ar
    53    53    52   ar
    54    54    53   ar
    55    55    54   ar
    56    56    51   ar
    57    57     3    1
    58    58    57   ar
    59    59    58   ar
    60    60    59   ar
    61    61    60   ar
    62    62    57   ar
    63    63    16    1
    64    64    17    1
    65    65    18    1
    66    66    19    1
    67    67    20    1
    68    68    22    1
    69    69    23    1
    70    70    24    1
    71    71    25    1
    72    72    26    1
    73    73    28    1
    74    74    29    1
    75    75    30    1
    76    76    31    1
    77    77    32    1
    78    78    34    1
    79    79    35    1
    80    80    36    1
    81    81    37    1
    82    82    38    1
    83    83    40    1
    84    84    41    1
    85    85    42    1
    86    86    43    1
    87    87    44    1
    88    88    46    1
    89    89    47    1
    90    90    48    1
    91    91    49    1
    92    92    50    1
    93    93    52    1
    94    94    53    1
    95    95    54    1
    96    96    55    1
    97    97    56    1
    98    98    58    1
    99    99    59    1
   100   100    60    1
   101   101    61    1
   102   102    62    1
   103   103    12    1
   104   104    12    1
   105   105    12    1
   106   106    13    1
   107   107    13    1
   108   108    14    1
   109   109    14    1
   110    10    11    1
   111    19    20   ar
   112    25    26   ar
   113    31    32   ar
   114    37    38   ar
   115    43    44   ar
   116    49    50   ar
   117    55    56   ar
   118    61    62   ar
   119   110   111    2
   120   112   110    2
   121   113   110    2
   122   114   110    1
@<TRIPOS>SUBSTRUCTURE
     1 RES1        1 GROUP             0 ****  ****    0  
     2 RES2      110 GROUP             0 ****  ****    0  
