@<TRIPOS>MOLECULE
GEMFEN
   114   120     1     0     0
SMALL
NO_CHARGES
****
Generated from the CSD

@<TRIPOS>ATOM
     1 Fe1      8.9478  10.6605  11.6646   Fe        1 RES1   0.0000
     2 Al1      8.9462   8.4013  12.2741   Al        1 RES1   0.0000
     3 H1       8.6698  10.1069  12.9889   H         1 RES1   0.0000
     4 H2      10.1248   9.6882  11.5518   H         1 RES1   0.0000
     5 H3       8.0597   9.5990  11.1248   H         1 RES1   0.0000
     6 N1       7.7524   7.5275  13.3928   N.2       1 RES1   0.0000
     7 C1       8.4426   6.3568  13.9807   C.3       1 RES1   0.0000
     8 C2       8.7908   5.3499  12.8934   C.2       1 RES1   0.0000
     9 H4       8.7122   4.4305  13.1189   H         1 RES1   0.0000
    10 C3       9.2034   5.6393  11.6307   C.2       1 RES1   0.0000
    11 N2       9.3586   6.9226  11.1404   N.2       1 RES1   0.0000
    12 C4       7.5769   5.6504  15.0275   C.3       1 RES1   0.0000
    13 H5       7.9769   4.7844  15.2519   H         1 RES1   0.0000
    14 H6       6.6766   5.5107  14.6664   H         1 RES1   0.0000
    15 H7       7.5230   6.2042  15.8343   H         1 RES1   0.0000
    16 C5       9.5273   4.4771  10.7141   C.3       1 RES1   0.0000
    17 H8       8.9821   4.5394   9.9022   H         1 RES1   0.0000
    18 H9       9.3327   3.6341  11.1744   H         1 RES1   0.0000
    19 H10     10.4768   4.5059  10.4730   H         1 RES1   0.0000
    20 C6       6.5981   8.0623  14.0261   C.ar      1 RES1   0.0000
    21 C7       5.3423   7.9071  13.4038   C.ar      1 RES1   0.0000
    22 C8       4.2045   8.4816  13.9777   C.ar      1 RES1   0.0000
    23 H11      3.3670   8.3745  13.5422   H         1 RES1   0.0000
    24 C9       4.2574   9.1993  15.1559   C.ar      1 RES1   0.0000
    25 C10      5.4846   9.3273  15.7741   C.ar      1 RES1   0.0000
    26 H12      5.5381   9.8038  16.5943   H         1 RES1   0.0000
    27 C11      6.6529   8.7809  15.2358   C.ar      1 RES1   0.0000
    28 C12      5.2274   7.1685  12.1018   C.3       1 RES1   0.0000
    29 H13      5.5351   7.7446  11.3711   H         1 RES1   0.0000
    30 H14      4.2921   6.9189  11.9493   H         1 RES1   0.0000
    31 H15      5.7801   6.3599  12.1351   H         1 RES1   0.0000
    32 C13      3.0248   9.8614  15.7431   C.3       1 RES1   0.0000
    33 H16      3.1013   9.8880  16.7189   H         1 RES1   0.0000
    34 H17      2.2276   9.3490  15.4913   H         1 RES1   0.0000
    35 H18      2.9481  10.7748  15.3956   H         1 RES1   0.0000
    36 C14      7.9648   9.0140  15.9311   C.3       1 RES1   0.0000
    37 H19      8.3522   8.1533  16.1947   H         1 RES1   0.0000
    38 H20      7.8185   9.5644  16.7287   H         1 RES1   0.0000
    39 H21      8.5789   9.4763  15.3233   H         1 RES1   0.0000
    40 C15      9.7706   7.0361   9.7722   C.ar      1 RES1   0.0000
    41 C16     11.1333   7.0501   9.4325   C.ar      1 RES1   0.0000
    42 C17     11.5079   7.1133   8.0933   C.ar      1 RES1   0.0000
    43 H22     12.4320   7.1111   7.8728   H         1 RES1   0.0000
    44 C18     10.5698   7.1799   7.0683   C.ar      1 RES1   0.0000
    45 C19      9.2245   7.1877   7.4210   C.ar      1 RES1   0.0000
    46 H23      8.5693   7.2516   6.7362   H         1 RES1   0.0000
    47 C20      8.8073   7.1046   8.7511   C.ar      1 RES1   0.0000
    48 C21     12.1799   7.0210  10.5124   C.3       1 RES1   0.0000
    49 H24     12.1632   7.8674  11.0063   H         1 RES1   0.0000
    50 H25     13.0636   6.8965  10.1076   H         1 RES1   0.0000
    51 H26     11.9948   6.2805  11.1270   H         1 RES1   0.0000
    52 C22     10.9802   7.2766   5.6149   C.3       1 RES1   0.0000
    53 H27     11.3992   8.1477   5.4510   H         1 RES1   0.0000
    54 H28     10.1897   7.1819   5.0444   H         1 RES1   0.0000
    55 H29     11.6202   6.5633   5.4079   H         1 RES1   0.0000
    56 C23      7.3426   7.0799   9.0895   C.3       1 RES1   0.0000
    57 H30      7.0959   6.1872   9.4086   H         1 RES1   0.0000
    58 H31      6.8191   7.2977   8.2900   H         1 RES1   0.0000
    59 H32      7.1582   7.7402   9.7901   H         1 RES1   0.0000
    60 C24      9.8436   6.8315  14.4578   C.ar      1 RES1   0.0000
    61 N3      10.3016   7.8415  13.6763   N.ar      1 RES1   0.0000
    62 C25     11.5124   8.3756  13.8616   C.ar      1 RES1   0.0000
    63 H33     11.8091   9.0456  13.2569   H         1 RES1   0.0000
    64 C26     12.3530   7.9994  14.8909   C.ar      1 RES1   0.0000
    65 C27     11.8955   6.9632  15.6917   C.ar      1 RES1   0.0000
    66 H34     12.4379   6.6792  16.4181   H         1 RES1   0.0000
    67 C28     10.6836   6.3219  15.4816   C.ar      1 RES1   0.0000
    68 C29     13.6696   8.6995  15.1060   C.3       1 RES1   0.0000
    69 H35     13.6700   9.1297  15.9866   H         1 RES1   0.0000
    70 H36     13.7954   9.3784  14.4107   H         1 RES1   0.0000
    71 H37     14.3979   8.0460  15.0609   H         1 RES1   0.0000
    72 C30     10.3327   5.1404  16.3468   C.3       1 RES1   0.0000
    73 H38      9.5446   5.3551  16.8886   H         1 RES1   0.0000
    74 H39     11.0870   4.9312  16.9359   H         1 RES1   0.0000
    75 H40     10.1371   4.3662  15.7786   H         1 RES1   0.0000
    76 P1      10.3366  12.0450  12.6116   P.3       1 RES1   0.0000
    77 C31     12.0694  12.0265  12.0279   C.3       1 RES1   0.0000
    78 H41     12.4274  11.1168  12.0961   H         1 RES1   0.0000
    79 H42     12.6068  12.6314  12.5808   H         1 RES1   0.0000
    80 H43     12.1026  12.3215  11.0939   H         1 RES1   0.0000
    81 C32     10.6087  11.8232  14.4180   C.3       1 RES1   0.0000
    82 H44      9.7615  11.9468  14.8939   H         1 RES1   0.0000
    83 H45     11.2605  12.4839  14.7337   H         1 RES1   0.0000
    84 H46     10.9509  10.9206  14.5884   H         1 RES1   0.0000
    85 C33     10.0569  13.8670  12.6214   C.3       1 RES1   0.0000
    86 H47     10.0079  14.1949  11.6992   H         1 RES1   0.0000
    87 H48     10.7983  14.3087  13.0862   H         1 RES1   0.0000
    88 H49      9.2164  14.0660  13.0842   H         1 RES1   0.0000
    89 P2       7.1041  11.7845  12.0105   P.3       1 RES1   0.0000
    90 C34      6.7561  12.2304  13.7553   C.3       1 RES1   0.0000
    91 H50      6.7342  11.4174  14.3021   H         1 RES1   0.0000
    92 H51      5.8887  12.6837  13.8097   H         1 RES1   0.0000
    93 H52      7.4584  12.8281  14.0862   H         1 RES1   0.0000
    94 C35      6.7479  13.3956  11.1903   C.3       1 RES1   0.0000
    95 H53      7.4665  14.0307  11.3918   H         1 RES1   0.0000
    96 H54      5.8964  13.7497  11.5219   H         1 RES1   0.0000
    97 H55      6.6913  13.2631  10.2209   H         1 RES1   0.0000
    98 C36      5.5499  10.9338  11.5940   C.3       1 RES1   0.0000
    99 H56      5.5375  10.7269  10.6361   H         1 RES1   0.0000
   100 H57      4.7912  11.5141  11.8127   H         1 RES1   0.0000
   101 H58      5.4845  10.1025  12.1086   H         1 RES1   0.0000
   102 P3       9.2653  11.2435   9.5853   P.3       1 RES1   0.0000
   103 C37      9.5731  12.9969   9.1171   C.3       1 RES1   0.0000
   104 H59      8.8581  13.5617   9.4781   H         1 RES1   0.0000
   105 H60      9.5903  13.0761   8.1405   H         1 RES1   0.0000
   106 H61     10.4346  13.2864   9.4837   H         1 RES1   0.0000
   107 C38      7.9118  10.8536   8.4171   C.3       1 RES1   0.0000
   108 H62      7.7266   9.8916   8.4420   H         1 RES1   0.0000
   109 H63      8.1798  11.1112   7.5101   H         1 RES1   0.0000
   110 H64      7.1067  11.3487   8.6734   H         1 RES1   0.0000
   111 C39     10.6860  10.5041   8.7059   C.3       1 RES1   0.0000
   112 H65     11.5183  10.7610   9.1554   H         1 RES1   0.0000
   113 H66     10.7017  10.8268   7.7807   H         1 RES1   0.0000
   114 H67     10.6009   9.5278   8.7099   H         1 RES1   0.0000
@<TRIPOS>BOND
     1     1     3    1
     2     2     3    1
     3     4     1    1
     4     5     1    1
     5     6     2    1
     6     7     6    1
     7     8     7    1
     8     9     8    1
     9    10     8    2
    10    11     2    1
    11    12     7    1
    12    13    12    1
    13    14    12    1
    14    15    12    1
    15    16    10    1
    16    17    16    1
    17    18    16    1
    18    19    16    1
    19    20     6    1
    20    21    20   ar
    21    22    21   ar
    22    23    22    1
    23    24    22   ar
    24    25    24   ar
    25    26    25    1
    26    27    20   ar
    27    28    21    1
    28    29    28    1
    29    30    28    1
    30    31    28    1
    31    32    24    1
    32    33    32    1
    33    34    32    1
    34    35    32    1
    35    36    27    1
    36    37    36    1
    37    38    36    1
    38    39    36    1
    39    40    11    1
    40    41    40   ar
    41    42    41   ar
    42    43    42    1
    43    44    42   ar
    44    45    44   ar
    45    46    45    1
    46    47    40   ar
    47    48    41    1
    48    49    48    1
    49    50    48    1
    50    51    48    1
    51    52    44    1
    52    53    52    1
    53    54    52    1
    54    55    52    1
    55    56    47    1
    56    57    56    1
    57    58    56    1
    58    59    56    1
    59    60     7    1
    60    61     2    1
    61    62    61   ar
    62    63    62    1
    63    64    62   ar
    64    65    64   ar
    65    66    65    1
    66    67    60   ar
    67    68    64    1
    68    69    68    1
    69    70    68    1
    70    71    68    1
    71    72    67    1
    72    73    72    1
    73    74    72    1
    74    75    72    1
    75    76     1    1
    76    77    76    1
    77    78    77    1
    78    79    77    1
    79    80    77    1
    80    81    76    1
    81    82    81    1
    82    83    81    1
    83    84    81    1
    84    85    76    1
    85    86    85    1
    86    87    85    1
    87    88    85    1
    88    89     1    1
    89    90    89    1
    90    91    90    1
    91    92    90    1
    92    93    90    1
    93    94    89    1
    94    95    94    1
    95    96    94    1
    96    97    94    1
    97    98    89    1
    98    99    98    1
    99   100    98    1
   100   101    98    1
   101   102     1    1
   102   103   102    1
   103   104   103    1
   104   105   103    1
   105   106   103    1
   106   107   102    1
   107   108   107    1
   108   109   107    1
   109   110   107    1
   110   111   102    1
   111   112   111    1
   112   113   111    1
   113   114   111    1
   114     2     4    1
   115     2     5    1
   116    10    11    1
   117    25    27   ar
   118    45    47   ar
   119    60    61   ar
   120    65    67   ar
@<TRIPOS>SUBSTRUCTURE
     1 RES1        1 GROUP             0 ****  ****    0  
@<TRIPOS>CRYSIN
   14.6040   16.8168   17.4073   90.0000   99.8760   90.0000    14     1
