@<TRIPOS>MOLECULE
GEMFUD
   114   120     1     0     0
SMALL
NO_CHARGES
****
Generated from the CSD

@<TRIPOS>ATOM
     1 Fe1      8.1436  11.5640   3.2945   Fe        1 RES1   0.0000
     2 Al1      7.9429   9.8955   4.9596   Al        1 RES1   0.0000
     3 H1       7.4661  10.2317   3.0895   H         1 RES1   0.0000
     4 H2       9.2774  10.8407   3.9333   H         1 RES1   0.0000
     5 H3       7.5862  11.6955   4.5126   H         1 RES1   0.0000
     6 N1       6.4040   9.5099   5.9018   N.2       1 RES1   0.0000
     7 C1       6.5717   8.6232   7.0778   C.3       1 RES1   0.0000
     8 C2       7.4912   7.4561   6.7964   C.2       1 RES1   0.0000
     9 H4       7.4352   6.7508   7.4305   H         1 RES1   0.0000
    10 C3       8.3754   7.2424   5.8026   C.2       1 RES1   0.0000
    11 N2       8.7088   8.1593   4.8146   N.2       1 RES1   0.0000
    12 C4       5.2300   8.0489   7.5423   C.3       1 RES1   0.0000
    13 H5       4.6580   8.7757   7.8670   H         1 RES1   0.0000
    14 H6       5.3825   7.4056   8.2655   H         1 RES1   0.0000
    15 H7       4.7899   7.5980   6.7915   H         1 RES1   0.0000
    16 C5       9.0589   5.8877   5.7625   C.3       1 RES1   0.0000
    17 H8       8.7865   5.4088   4.9519   H         1 RES1   0.0000
    18 H9       8.7991   5.3678   6.5516   H         1 RES1   0.0000
    19 H10     10.0305   6.0118   5.7579   H         1 RES1   0.0000
    20 C6       5.1177  10.0943   5.7139   C.ar      1 RES1   0.0000
    21 C7       4.1507   9.4244   4.9297   C.ar      1 RES1   0.0000
    22 C8       2.8771   9.9676   4.7629   C.ar      1 RES1   0.0000
    23 H11      2.2390   9.4928   4.2426   H         1 RES1   0.0000
    24 C9       2.5136  11.1727   5.3314   C.ar      1 RES1   0.0000
    25 C10      3.4539  11.8356   6.0752   C.ar      1 RES1   0.0000
    26 H12      3.2180  12.6653   6.4743   H         1 RES1   0.0000
    27 C11      4.7451  11.3389   6.2717   C.ar      1 RES1   0.0000
    28 C12      4.4927   8.1670   4.1931   C.3       1 RES1   0.0000
    29 H13      3.7178   7.5676   4.1913   H         1 RES1   0.0000
    30 H14      5.2472   7.7243   4.6356   H         1 RES1   0.0000
    31 H15      4.7389   8.3859   3.2699   H         1 RES1   0.0000
    32 C13      1.1242  11.7450   5.1366   C.3       1 RES1   0.0000
    33 H16      0.4594  11.1149   5.4847   H         1 RES1   0.0000
    34 H17      0.9633  11.8939   4.1807   H         1 RES1   0.0000
    35 H18      1.0514  12.5959   5.6161   H         1 RES1   0.0000
    36 C14      5.7070  12.2001   7.0501   C.3       1 RES1   0.0000
    37 H19      5.5456  13.1434   6.8388   H         1 RES1   0.0000
    38 H20      6.6266  11.9637   6.8078   H         1 RES1   0.0000
    39 H21      5.5739  12.0530   8.0099   H         1 RES1   0.0000
    40 C15      9.5069   7.6630   3.7370   C.ar      1 RES1   0.0000
    41 C16     10.9075   7.7464   3.7780   C.ar      1 RES1   0.0000
    42 C17     11.6425   7.2033   2.7176   C.ar      1 RES1   0.0000
    43 H22     12.5908   7.2628   2.7452   H         1 RES1   0.0000
    44 C18     11.0580   6.5888   1.6377   C.ar      1 RES1   0.0000
    45 C19      9.6685   6.4971   1.6209   C.ar      1 RES1   0.0000
    46 H23      9.2446   6.0649   0.8892   H         1 RES1   0.0000
    47 C20      8.8826   7.0210   2.6461   C.ar      1 RES1   0.0000
    48 C21     11.6063   8.3956   4.9256   C.3       1 RES1   0.0000
    49 H24     11.6722   9.3599   4.7656   H         1 RES1   0.0000
    50 H25     12.5057   8.0172   5.0175   H         1 RES1   0.0000
    51 H26     11.0995   8.2353   5.7496   H         1 RES1   0.0000
    52 C22     11.8744   6.0330   0.4809   C.3       1 RES1   0.0000
    53 H27     12.0386   6.7430  -0.1746   H         1 RES1   0.0000
    54 H28     11.3798   5.3025   0.0536   H         1 RES1   0.0000
    55 H29     12.7303   5.6949   0.8174   H         1 RES1   0.0000
    56 C23      7.3936   6.8896   2.6031   C.3       1 RES1   0.0000
    57 H30      7.0858   6.4048   3.3979   H         1 RES1   0.0000
    58 H31      7.1327   6.3946   1.7982   H         1 RES1   0.0000
    59 H32      6.9871   7.7802   2.5856   H         1 RES1   0.0000
    60 C24      7.1598   9.4626   8.2970   C.3       1 RES1   0.0000
    61 H33      6.4930  10.1848   8.4827   H         1 RES1   0.0000
    62 C25      8.4755  10.1666   8.0167   C.ar      1 RES1   0.0000
    63 N3       8.9688  10.3682   6.7782   N.ar      1 RES1   0.0000
    64 C26     10.1170  10.9838   6.6142   C.ar      1 RES1   0.0000
    65 H34     10.4374  11.1009   5.7278   H         1 RES1   0.0000
    66 C27     10.8862  11.4717   7.6521   C.ar      1 RES1   0.0000
    67 H35     11.7154  11.9061   7.4902   H         1 RES1   0.0000
    68 C28     10.4099  11.3066   8.9233   C.ar      1 RES1   0.0000
    69 H36     10.9017  11.6280   9.6701   H         1 RES1   0.0000
    70 C29      9.2118  10.6701   9.1021   C.ar      1 RES1   0.0000
    71 H37      8.8693  10.5654   9.9824   H         1 RES1   0.0000
    72 C30      7.2858   8.6524   9.6063   C.3       1 RES1   0.0000
    73 H38      6.4305   8.2189   9.8064   H         1 RES1   0.0000
    74 H39      7.5288   9.2531  10.3405   H         1 RES1   0.0000
    75 H40      7.9812   7.9684   9.5003   H         1 RES1   0.0000
    76 P1       9.1360  13.4309   3.8218   P.3       1 RES1   0.0000
    77 C31     10.9730  13.4491   3.8618   C.3       1 RES1   0.0000
    78 H41     11.2964  12.6930   4.3946   H         1 RES1   0.0000
    79 H42     11.2835  14.2878   4.2621   H         1 RES1   0.0000
    80 H43     11.3207  13.3759   2.9475   H         1 RES1   0.0000
    81 C32      8.7588  14.0959   5.4922   C.3       1 RES1   0.0000
    82 H44      7.7932  14.2455   5.5737   H         1 RES1   0.0000
    83 H45      9.2324  14.9437   5.6212   H         1 RES1   0.0000
    84 H46      9.0477  13.4529   6.1729   H         1 RES1   0.0000
    85 C33      8.8936  14.9873   2.8535   C.3       1 RES1   0.0000
    86 H47      9.2060  14.8521   1.9342   H         1 RES1   0.0000
    87 H48      9.4057  15.7131   3.2683   H         1 RES1   0.0000
    88 H49      7.9428  15.2220   2.8443   H         1 RES1   0.0000
    89 P2       6.3076  12.4406   2.4871   P.3       1 RES1   0.0000
    90 C34      5.4011  13.5993   3.5606   C.3       1 RES1   0.0000
    91 H50      5.1035  13.1313   4.3684   H         1 RES1   0.0000
    92 H51      4.6225  13.9491   3.0796   H         1 RES1   0.0000
    93 H52      5.9907  14.3411   3.8114   H         1 RES1   0.0000
    94 C35      6.2915  13.4256   0.9317   C.3       1 RES1   0.0000
    95 H53      6.8844  14.1995   1.0288   H         1 RES1   0.0000
    96 H54      5.3788  13.7341   0.7502   H         1 RES1   0.0000
    97 H55      6.6011  12.8674   0.1883   H         1 RES1   0.0000
    98 C36      4.9774  11.2791   2.0650   C.3       1 RES1   0.0000
    99 H56      5.2996  10.6463   1.3881   H         1 RES1   0.0000
   100 H57      4.2113  11.7749   1.7089   H         1 RES1   0.0000
   101 H58      4.7055  10.7877   2.8674   H         1 RES1   0.0000
   102 P3       9.1669  11.1916   1.3987   P.3       1 RES1   0.0000
   103 C37      9.6441  12.5466   0.2396   C.3       1 RES1   0.0000
   104 H59      8.8525  13.0788   0.0156   H         1 RES1   0.0000
   105 H60     10.0193  12.1590  -0.5790   H         1 RES1   0.0000
   106 H61     10.3141  13.1204   0.6659   H         1 RES1   0.0000
   107 C38      8.3168  10.0831   0.2210   C.3       1 RES1   0.0000
   108 H62      8.1773   9.2079   0.6389   H         1 RES1   0.0000
   109 H63      8.8674   9.9772  -0.5830   H         1 RES1   0.0000
   110 H64      7.4508  10.4700  -0.0247   H         1 RES1   0.0000
   111 C39     10.7960  10.3840   1.4857   C.3       1 RES1   0.0000
   112 H65     11.3995  10.9244   2.0384   H         1 RES1   0.0000
   113 H66     11.1681  10.2995   0.5834   H         1 RES1   0.0000
   114 H67     10.6989   9.4939   1.8842   H         1 RES1   0.0000
@<TRIPOS>BOND
     1     1     3    1
     2     2     3    1
     3     4     1    1
     4     5     1    1
     5     6     2    1
     6     7     6    1
     7     8     7    1
     8     9     8    1
     9    10     8    2
    10    11     2    1
    11    12     7    1
    12    13    12    1
    13    14    12    1
    14    15    12    1
    15    16    10    1
    16    17    16    1
    17    18    16    1
    18    19    16    1
    19    20     6    1
    20    21    20   ar
    21    22    21   ar
    22    23    22    1
    23    24    22   ar
    24    25    24   ar
    25    26    25    1
    26    27    20   ar
    27    28    21    1
    28    29    28    1
    29    30    28    1
    30    31    28    1
    31    32    24    1
    32    33    32    1
    33    34    32    1
    34    35    32    1
    35    36    27    1
    36    37    36    1
    37    38    36    1
    38    39    36    1
    39    40    11    1
    40    41    40   ar
    41    42    41   ar
    42    43    42    1
    43    44    42   ar
    44    45    44   ar
    45    46    45    1
    46    47    40   ar
    47    48    41    1
    48    49    48    1
    49    50    48    1
    50    51    48    1
    51    52    44    1
    52    53    52    1
    53    54    52    1
    54    55    52    1
    55    56    47    1
    56    57    56    1
    57    58    56    1
    58    59    56    1
    59    60     7    1
    60    61    60    1
    61    62    60    1
    62    63     2    1
    63    64    63   ar
    64    65    64    1
    65    66    64   ar
    66    67    66    1
    67    68    66   ar
    68    69    68    1
    69    70    62   ar
    70    71    70    1
    71    72    60    1
    72    73    72    1
    73    74    72    1
    74    75    72    1
    75    76     1    1
    76    77    76    1
    77    78    77    1
    78    79    77    1
    79    80    77    1
    80    81    76    1
    81    82    81    1
    82    83    81    1
    83    84    81    1
    84    85    76    1
    85    86    85    1
    86    87    85    1
    87    88    85    1
    88    89     1    1
    89    90    89    1
    90    91    90    1
    91    92    90    1
    92    93    90    1
    93    94    89    1
    94    95    94    1
    95    96    94    1
    96    97    94    1
    97    98    89    1
    98    99    98    1
    99   100    98    1
   100   101    98    1
   101   102     1    1
   102   103   102    1
   103   104   103    1
   104   105   103    1
   105   106   103    1
   106   107   102    1
   107   108   107    1
   108   109   107    1
   109   110   107    1
   110   111   102    1
   111   112   111    1
   112   113   111    1
   113   114   111    1
   114     2     4    1
   115     2     5    1
   116    10    11    1
   117    25    27   ar
   118    45    47   ar
   119    62    63   ar
   120    68    70   ar
@<TRIPOS>SUBSTRUCTURE
     1 RES1        1 GROUP             0 ****  ****    0  
@<TRIPOS>CRYSIN
   12.8661   18.3430   18.3536   90.0000  103.0614   90.0000    14     1
