@<TRIPOS>MOLECULE
GETVAF01
   106   117     4     0     0
SMALL
USER_CHARGES
****
Generated from the CSD

@<TRIPOS>ATOM
     1 Fe1     12.4964  12.4964  12.4964   Fe        1 RES1   2.0000
     2 N1      14.6214  12.2006  12.6434   N.2       1 RES1   0.0000
     3 N2      12.7657  10.3673  12.2591   N.2       1 RES1   0.0000
     4 N3      16.3995  10.9221  12.5469   N.pl3     1 RES1   0.0000
     5 N4      14.0804   8.6271  11.9817   N.pl3     1 RES1   0.0000
     6 C1      15.7189  12.9897  12.8743   C.2       1 RES1   0.0000
     7 H1      15.7051  13.9167  13.0379   H         1 RES1   0.0000
     8 C2      16.8440  12.1954  12.8243   C.2       1 RES1   0.0000
     9 H2      17.7348  12.4676  12.9552   H         1 RES1   0.0000
    10 C3      12.0059   9.2473  12.0455   C.2       1 RES1   0.0000
    11 H3      11.0668   9.2249  12.0248   H         1 RES1   0.0000
    12 C4      12.8053   8.1929  11.8732   C.2       1 RES1   0.0000
    13 H4      12.5314   7.3090  11.7061   H         1 RES1   0.0000
    14 C5      15.0694  10.9583  12.4659   C.2       1 RES1   0.0000
    15 C6      14.0442   9.9486  12.2230   C.2       1 RES1   0.0000
    16 C7      17.3489   9.7866  12.3367   C.3       1 RES1   0.0000
    17 H5      17.2472   9.4541  11.4200   H         1 RES1   0.0000
    18 H6      18.2655  10.1192  12.4332   H         1 RES1   0.0000
    19 C8      17.1473   8.6512  13.2843   C.ar      1 RES1   0.0000
    20 C9      17.9657   8.5082  14.3871   C.ar      1 RES1   0.0000
    21 H7      18.6584   9.1302  14.5232   H         1 RES1   0.0000
    22 C10     17.8038   7.4933  15.2830   C.ar      1 RES1   0.0000
    23 H8      18.3741   7.4175  16.0273   H         1 RES1   0.0000
    24 C11     16.7786   6.5681  15.0762   C.ar      1 RES1   0.0000
    25 H9      16.6425   5.8737  15.6948   H         1 RES1   0.0000
    26 C12     15.9757   6.6715  13.9804   C.ar      1 RES1   0.0000
    27 H10     15.2985   6.0339  13.8478   H         1 RES1   0.0000
    28 C13     16.1324   7.6984  13.0483   C.ar      1 RES1   0.0000
    29 C14     15.2778   7.7604  11.8318   C.3       1 RES1   0.0000
    30 H11     15.8154   8.0929  11.0823   H         1 RES1   0.0000
    31 H12     14.9832   6.8524  11.6061   H         1 RES1   0.0000
    32 N1A     12.6434  14.6214  12.2006   N.2       1 RES1   0.0000
    33 N2A     12.2591  12.7657  10.3673   N.2       1 RES1   0.0000
    34 N3A     12.5469  16.3995  10.9221   N.pl3     1 RES1   0.0000
    35 N4A     11.9817  14.0804   8.6271   N.pl3     1 RES1   0.0000
    36 C1A     12.8743  15.7189  12.9897   C.2       1 RES1   0.0000
    37 H1A     13.0379  15.7051  13.9167   H         1 RES1   0.0000
    38 C2A     12.8243  16.8440  12.1954   C.2       1 RES1   0.0000
    39 H2A     12.9552  17.7348  12.4676   H         1 RES1   0.0000
    40 C3A     12.0455  12.0059   9.2473   C.2       1 RES1   0.0000
    41 H3A     12.0248  11.0668   9.2249   H         1 RES1   0.0000
    42 C4A     11.8732  12.8053   8.1929   C.2       1 RES1   0.0000
    43 H4A     11.7061  12.5314   7.3090   H         1 RES1   0.0000
    44 C5A     12.4659  15.0694  10.9583   C.2       1 RES1   0.0000
    45 C6A     12.2230  14.0442   9.9486   C.2       1 RES1   0.0000
    46 C7A     12.3367  17.3489   9.7866   C.3       1 RES1   0.0000
    47 H5A     11.4200  17.2472   9.4541   H         1 RES1   0.0000
    48 H6A     12.4332  18.2655  10.1192   H         1 RES1   0.0000
    49 C8A     13.2843  17.1473   8.6512   C.ar      1 RES1   0.0000
    50 C9A     14.3871  17.9657   8.5082   C.ar      1 RES1   0.0000
    51 H7A     14.5232  18.6584   9.1302   H         1 RES1   0.0000
    52 C10A    15.2830  17.8038   7.4933   C.ar      1 RES1   0.0000
    53 H8A     16.0273  18.3741   7.4175   H         1 RES1   0.0000
    54 C11A    15.0763  16.7786   6.5681   C.ar      1 RES1   0.0000
    55 H9A     15.6948  16.6425   5.8737   H         1 RES1   0.0000
    56 C12A    13.9804  15.9757   6.6715   C.ar      1 RES1   0.0000
    57 H10A    13.8478  15.2985   6.0339   H         1 RES1   0.0000
    58 C13A    13.0483  16.1324   7.6984   C.ar      1 RES1   0.0000
    59 C14A    11.8318  15.2778   7.7604   C.3       1 RES1   0.0000
    60 H11A    11.0823  15.8154   8.0929   H         1 RES1   0.0000
    61 H12A    11.6061  14.9832   6.8524   H         1 RES1   0.0000
    62 N1B     12.2006  12.6434  14.6214   N.2       1 RES1   0.0000
    63 N2B     10.3673  12.2591  12.7657   N.2       1 RES1   0.0000
    64 N3B     10.9221  12.5469  16.3995   N.pl3     1 RES1   0.0000
    65 N4B      8.6271  11.9817  14.0804   N.pl3     1 RES1   0.0000
    66 C1B     12.9897  12.8743  15.7189   C.2       1 RES1   0.0000
    67 H1B     13.9167  13.0379  15.7051   H         1 RES1   0.0000
    68 C2B     12.1954  12.8243  16.8440   C.2       1 RES1   0.0000
    69 H2B     12.4676  12.9552  17.7348   H         1 RES1   0.0000
    70 C3B      9.2473  12.0455  12.0059   C.2       1 RES1   0.0000
    71 H3B      9.2249  12.0248  11.0668   H         1 RES1   0.0000
    72 C4B      8.1929  11.8732  12.8053   C.2       1 RES1   0.0000
    73 H4B      7.3090  11.7061  12.5314   H         1 RES1   0.0000
    74 C5B     10.9583  12.4659  15.0694   C.2       1 RES1   0.0000
    75 C6B      9.9486  12.2230  14.0442   C.2       1 RES1   0.0000
    76 C7B      9.7866  12.3367  17.3489   C.3       1 RES1   0.0000
    77 H5B      9.4541  11.4200  17.2472   H         1 RES1   0.0000
    78 H6B     10.1192  12.4332  18.2655   H         1 RES1   0.0000
    79 C8B      8.6512  13.2843  17.1473   C.ar      1 RES1   0.0000
    80 C9B      8.5082  14.3871  17.9657   C.ar      1 RES1   0.0000
    81 H7B      9.1302  14.5232  18.6584   H         1 RES1   0.0000
    82 C10B     7.4933  15.2830  17.8038   C.ar      1 RES1   0.0000
    83 H8B      7.4175  16.0273  18.3741   H         1 RES1   0.0000
    84 C11B     6.5681  15.0763  16.7786   C.ar      1 RES1   0.0000
    85 H9B      5.8737  15.6948  16.6425   H         1 RES1   0.0000
    86 C12B     6.6715  13.9804  15.9757   C.ar      1 RES1   0.0000
    87 H10B     6.0339  13.8478  15.2985   H         1 RES1   0.0000
    88 C13B     7.6984  13.0483  16.1324   C.ar      1 RES1   0.0000
    89 C14B     7.7604  11.8318  15.2778   C.3       1 RES1   0.0000
    90 H11B     8.0929  11.0823  15.8154   H         1 RES1   0.0000
    91 H12B     6.8524  11.6061  14.9832   H         1 RES1   0.0000
    92 Cl1     11.4700   9.0182  17.1628   Cl        2 RES2   0.0000
    93 Cl2     13.4928   8.1084  15.4019   Cl        2 RES2   0.0000
    94 C15     12.0455   8.9923  15.6948   C.3       2 RES2   0.0000
    95 H13     12.2006   9.9193  15.4191   H         2 RES2   0.0000
    96 H14     11.3494   8.6288  15.1090   H         2 RES2   0.0000
    97 F1      14.4267   2.8033  11.4183   F         3 RES3   0.0000
    98 F2      13.5721   4.8485  11.6216   F         3 RES3   0.0000
    99 B1      13.5755   3.6545  12.2695   B         3 RES3  -1.0000
   100 F2E     12.3815   3.0066  12.2729   F         3 RES3   0.0000
   101 F2F     14.2234   3.6579  13.4635   F         3 RES3   0.0000
   102 F3      17.8072   8.0378   9.1922   F         4 RES4   0.0000
   103 F4      17.7762   6.3803  10.7119   F         4 RES4   0.0000
   104 B2      18.6084   7.2366   9.9934   B         4 RES4  -1.0000
   105 F4C     19.4647   6.5181   9.1612   F         4 RES4   0.0000
   106 F4D     19.3269   8.0688  10.8497   F         4 RES4   0.0000
@<TRIPOS>BOND
     1     1     2    1
     2     2     6    1
     3     3     1    1
     4     4     8    1
     5     5    12    1
     6     6     7    1
     7     8     6    2
     8     9     8    1
     9    10     3    1
    10    11    10    1
    11    12    10    2
    12    13    12    1
    13    14     2    2
    14    15     3    2
    15    16     4    1
    16    17    16    1
    17    18    16    1
    18    19    16    1
    19    20    19   ar
    20    21    20    1
    21    22    20   ar
    22    23    22    1
    23    24    22   ar
    24    25    24    1
    25    26    24   ar
    26    27    26    1
    27    28    19   ar
    28    29     5    1
    29    30    29    1
    30    31    29    1
    31    32     1    1
    32    33     1    1
    33    34    38    1
    34    35    42    1
    35    36    32    1
    36    37    36    1
    37    38    36    2
    38    39    38    1
    39    40    33    1
    40    41    40    1
    41    42    40    2
    42    43    42    1
    43    44    32    2
    44    45    33    2
    45    46    34    1
    46    47    46    1
    47    48    46    1
    48    49    46    1
    49    50    49   ar
    50    51    50    1
    51    52    50   ar
    52    53    52    1
    53    54    52   ar
    54    55    54    1
    55    56    54   ar
    56    57    56    1
    57    58    49   ar
    58    59    35    1
    59    60    59    1
    60    61    59    1
    61    62     1    1
    62    63     1    1
    63    64    68    1
    64    65    72    1
    65    66    62    1
    66    67    66    1
    67    68    66    2
    68    69    68    1
    69    70    63    1
    70    71    70    1
    71    72    70    2
    72    73    72    1
    73    74    62    2
    74    75    63    2
    75    76    64    1
    76    77    76    1
    77    78    76    1
    78    79    76    1
    79    80    79   ar
    80    81    80    1
    81    82    80   ar
    82    83    82    1
    83    84    82   ar
    84    85    84    1
    85    86    84   ar
    86    87    86    1
    87    88    79   ar
    88    89    65    1
    89    90    89    1
    90    91    89    1
    91     4    14    1
    92     5    15    1
    93    14    15    1
    94    26    28   ar
    95    28    29    1
    96    34    44    1
    97    35    45    1
    98    44    45    1
    99    56    58   ar
   100    58    59    1
   101    64    74    1
   102    65    75    1
   103    74    75    1
   104    86    88   ar
   105    88    89    1
   106    92    94    1
   107    93    94    1
   108    94    95    1
   109    96    94    1
   110    97    99    1
   111    98    99    1
   112    99   100    1
   113   101    99    1
   114   102   104    1
   115   103   104    1
   116   104   105    1
   117   106   104    1
@<TRIPOS>SUBSTRUCTURE
     1 RES1        1 GROUP             0 ****  ****    0  
     2 RES2       92 GROUP             0 ****  ****    0  
     3 RES3       97 GROUP             0 ****  ****    0  
     4 RES4      102 GROUP             0 ****  ****    0  
@<TRIPOS>CRYSIN
   17.2300   17.2300   17.2300   90.0000   90.0000   90.0000   198     1
