@<TRIPOS>MOLECULE
GETVAF
   106   117     4     0     0
SMALL
USER_CHARGES
****
Generated from the CSD

@<TRIPOS>ATOM
     1 Fe1     12.4015  12.4015  12.4015   Fe        1 RES1   2.0000
     2 N1      10.3789  12.2484  12.5859   N.2       1 RES1   0.0000
     3 N2      12.1837  12.5041  14.4214   N.2       1 RES1   0.0000
     4 N3       8.6150  11.9008  13.8760   N.pl3     1 RES1   0.0000
     5 N4      10.8867  12.4138  16.2296   N.pl3     1 RES1   0.0000
     6 C1       9.2677  12.0422  11.7781   C.2       1 RES1   0.0000
     7 H1       9.2660  12.0388  10.8288   H         1 RES1   0.0000
     8 C2       8.2077  11.8531  12.5535   C.2       1 RES1   0.0000
     9 H2       7.3198  11.7082  12.2519   H         1 RES1   0.0000
    10 C3      12.9728  12.6967  15.5206   C.2       1 RES1   0.0000
    11 H3      13.9118  12.8432  15.5002   H         1 RES1   0.0000
    12 C4      12.2007  12.6472  16.6659   C.2       1 RES1   0.0000
    13 H4      12.4990  12.7495  17.5623   H         1 RES1   0.0000
    14 C5       9.9204  12.1547  13.8504   C.2       1 RES1   0.0000
    15 C6      10.9396  12.3320  14.8866   C.2       1 RES1   0.0000
    16 C7       7.7475  11.6895  15.0332   C.3       1 RES1   0.0000
    17 H5       8.0884  10.9225  15.5581   H         1 RES1   0.0000
    18 H6       6.8375  11.4628  14.7179   H         1 RES1   0.0000
    19 C8       7.6742  12.9131  15.9296   C.ar      1 RES1   0.0000
    20 C9       6.6312  13.8709  15.7558   C.ar      1 RES1   0.0000
    21 H7       6.0092  13.7601  15.0468   H         1 RES1   0.0000
    22 C10      6.5136  14.9378  16.5875   C.ar      1 RES1   0.0000
    23 H8       5.8081  15.5581  16.4443   H         1 RES1   0.0000
    24 C11      7.3964  15.1508  17.6390   C.ar      1 RES1   0.0000
    25 H9       7.2857  15.8853  18.2321   H         1 RES1   0.0000
    26 C12      8.4599  14.2407  17.7958   C.ar      1 RES1   0.0000
    27 H10      9.0871  14.3805  18.4928   H         1 RES1   0.0000
    28 C13      8.6167  13.1415  16.9556   C.ar      1 RES1   0.0000
    29 C14      9.7619  12.1871  17.1788   C.3       1 RES1   0.0000
    30 H11     10.0943  12.2911  18.1060   H         1 RES1   0.0000
    31 H12      9.4347  11.2583  17.0766   H         1 RES1   0.0000
    32 N1A     12.5859  10.3789  12.2484   N.2       1 RES1   0.0000
    33 N2A     14.4214  12.1837  12.5041   N.2       1 RES1   0.0000
    34 N3A     13.8760   8.6150  11.9008   N.pl3     1 RES1   0.0000
    35 N4A     16.2296  10.8867  12.4138   N.pl3     1 RES1   0.0000
    36 C1A     11.7781   9.2677  12.0422   C.2       1 RES1   0.0000
    37 H1A     10.8288   9.2660  12.0388   H         1 RES1   0.0000
    38 C2A     12.5535   8.2077  11.8531   C.2       1 RES1   0.0000
    39 H2A     12.2519   7.3198  11.7082   H         1 RES1   0.0000
    40 C3A     15.5206  12.9728  12.6967   C.2       1 RES1   0.0000
    41 H3A     15.5002  13.9118  12.8432   H         1 RES1   0.0000
    42 C4A     16.6659  12.2007  12.6472   C.2       1 RES1   0.0000
    43 H4A     17.5623  12.4990  12.7495   H         1 RES1   0.0000
    44 C5A     13.8504   9.9204  12.1547   C.2       1 RES1   0.0000
    45 C6A     14.8866  10.9396  12.3320   C.2       1 RES1   0.0000
    46 C7A     15.0332   7.7475  11.6895   C.3       1 RES1   0.0000
    47 H5A     15.5581   8.0884  10.9225   H         1 RES1   0.0000
    48 H6A     14.7179   6.8375  11.4628   H         1 RES1   0.0000
    49 C8A     15.9296   7.6742  12.9131   C.ar      1 RES1   0.0000
    50 C9A     15.7558   6.6312  13.8709   C.ar      1 RES1   0.0000
    51 H7A     15.0468   6.0092  13.7601   H         1 RES1   0.0000
    52 C10A    16.5875   6.5136  14.9378   C.ar      1 RES1   0.0000
    53 H8A     16.4443   5.8081  15.5581   H         1 RES1   0.0000
    54 C11A    17.6390   7.3964  15.1508   C.ar      1 RES1   0.0000
    55 H9A     18.2321   7.2857  15.8853   H         1 RES1   0.0000
    56 C12A    17.7958   8.4599  14.2407   C.ar      1 RES1   0.0000
    57 H10A    18.4928   9.0871  14.3805   H         1 RES1   0.0000
    58 C13A    16.9556   8.6167  13.1415   C.ar      1 RES1   0.0000
    59 C14A    17.1788   9.7619  12.1871   C.3       1 RES1   0.0000
    60 H11A    18.1060  10.0943  12.2911   H         1 RES1   0.0000
    61 H12A    17.0766   9.4347  11.2583   H         1 RES1   0.0000
    62 N1B     12.2484  12.5859  10.3789   N.2       1 RES1   0.0000
    63 N2B     12.5041  14.4214  12.1837   N.2       1 RES1   0.0000
    64 N3B     11.9008  13.8760   8.6150   N.pl3     1 RES1   0.0000
    65 N4B     12.4138  16.2296  10.8867   N.pl3     1 RES1   0.0000
    66 C1B     12.0422  11.7781   9.2677   C.2       1 RES1   0.0000
    67 H1B     12.0388  10.8288   9.2660   H         1 RES1   0.0000
    68 C2B     11.8531  12.5535   8.2077   C.2       1 RES1   0.0000
    69 H2B     11.7082  12.2519   7.3198   H         1 RES1   0.0000
    70 C3B     12.6967  15.5206  12.9728   C.2       1 RES1   0.0000
    71 H3B     12.8432  15.5002  13.9118   H         1 RES1   0.0000
    72 C4B     12.6472  16.6659  12.2007   C.2       1 RES1   0.0000
    73 H4B     12.7495  17.5623  12.4990   H         1 RES1   0.0000
    74 C5B     12.1547  13.8504   9.9204   C.2       1 RES1   0.0000
    75 C6B     12.3320  14.8866  10.9396   C.2       1 RES1   0.0000
    76 C7B     11.6895  15.0332   7.7475   C.3       1 RES1   0.0000
    77 H5B     10.9225  15.5581   8.0884   H         1 RES1   0.0000
    78 H6B     11.4628  14.7179   6.8375   H         1 RES1   0.0000
    79 C8B     12.9131  15.9296   7.6742   C.ar      1 RES1   0.0000
    80 C9B     13.8709  15.7558   6.6312   C.ar      1 RES1   0.0000
    81 H7B     13.7601  15.0468   6.0092   H         1 RES1   0.0000
    82 C10B    14.9378  16.5875   6.5136   C.ar      1 RES1   0.0000
    83 H8B     15.5581  16.4443   5.8081   H         1 RES1   0.0000
    84 C11B    15.1508  17.6390   7.3964   C.ar      1 RES1   0.0000
    85 H9B     15.8853  18.2321   7.2857   H         1 RES1   0.0000
    86 C12B    14.2407  17.7958   8.4599   C.ar      1 RES1   0.0000
    87 H10B    14.3805  18.4928   9.0871   H         1 RES1   0.0000
    88 C13B    13.1415  16.9556   8.6167   C.ar      1 RES1   0.0000
    89 C14B    12.1871  17.1788   9.7619   C.3       1 RES1   0.0000
    90 H11B    12.2911  18.1060  10.0943   H         1 RES1   0.0000
    91 H12B    11.2583  17.0766   9.4347   H         1 RES1   0.0000
    92 Cl1      8.9064  17.1124  11.4560   Cl        2 RES2   0.0000
    93 Cl2      7.9980  15.2224  13.3886   Cl        2 RES2   0.0000
    94 C15      8.7973  15.5649  12.1769   C.3       2 RES2   0.0000
    95 H13      8.4838  14.9548  11.4645   H         2 RES2   0.0000
    96 H14      9.7279  15.2956  12.3831   H         2 RES2   0.0000
    97 F1       2.7984  11.3196  14.2441   F         3 RES3   0.0000
    98 F2       4.8588  11.5378  13.3409   F         3 RES3   0.0000
    99 B1       3.6181  12.1394  13.4244   B         3 RES3  -1.0000
   100 F2G      3.7016  13.3801  14.0260   F         3 RES3   0.0000
   101 F2H      3.0165  12.2229  12.1837   F         3 RES3   0.0000
   102 F3       7.9861   9.0564  17.5776   F         4 RES4   0.0000
   103 F4       8.0338  10.7095  19.0944   F         4 RES4   0.0000
   104 B2       7.2891   9.7534  18.2747   B         4 RES4  -1.0000
   105 F4E      6.3330  10.5732  17.5299   F         4 RES4   0.0000
   106 F4F      6.4693   9.0087  19.2308   F         4 RES4   0.0000
@<TRIPOS>BOND
     1     1     2    1
     2     2     6    1
     3     3     1    1
     4     4     8    1
     5     5    12    1
     6     6     7    1
     7     8     6    2
     8     9     8    1
     9    10     3    1
    10    11    10    1
    11    12    10    2
    12    13    12    1
    13    14     2    2
    14    15     3    2
    15    16     4    1
    16    17    16    1
    17    18    16    1
    18    19    16    1
    19    20    19   ar
    20    21    20    1
    21    22    20   ar
    22    23    22    1
    23    24    22   ar
    24    25    24    1
    25    26    24   ar
    26    27    26    1
    27    28    19   ar
    28    29     5    1
    29    30    29    1
    30    31    29    1
    31    32     1    1
    32    33     1    1
    33    34    38    1
    34    35    42    1
    35    36    32    1
    36    37    36    1
    37    38    36    2
    38    39    38    1
    39    40    33    1
    40    41    40    1
    41    42    40    2
    42    43    42    1
    43    44    32    2
    44    45    33    2
    45    46    34    1
    46    47    46    1
    47    48    46    1
    48    49    46    1
    49    50    49   ar
    50    51    50    1
    51    52    50   ar
    52    53    52    1
    53    54    52   ar
    54    55    54    1
    55    56    54   ar
    56    57    56    1
    57    58    49   ar
    58    59    35    1
    59    60    59    1
    60    61    59    1
    61    62     1    1
    62    63     1    1
    63    64    68    1
    64    65    72    1
    65    66    62    1
    66    67    66    1
    67    68    66    2
    68    69    68    1
    69    70    63    1
    70    71    70    1
    71    72    70    2
    72    73    72    1
    73    74    62    2
    74    75    63    2
    75    76    64    1
    76    77    76    1
    77    78    76    1
    78    79    76    1
    79    80    79   ar
    80    81    80    1
    81    82    80   ar
    82    83    82    1
    83    84    82   ar
    84    85    84    1
    85    86    84   ar
    86    87    86    1
    87    88    79   ar
    88    89    65    1
    89    90    89    1
    90    91    89    1
    91     4    14    1
    92     5    15    1
    93    14    15    1
    94    26    28   ar
    95    28    29    1
    96    34    44    1
    97    35    45    1
    98    44    45    1
    99    56    58   ar
   100    58    59    1
   101    64    74    1
   102    65    75    1
   103    74    75    1
   104    86    88   ar
   105    88    89    1
   106    92    94    1
   107    93    94    1
   108    94    95    1
   109    96    94    1
   110    97    99    1
   111    98    99    1
   112    99   100    1
   113   101    99    1
   114   102   104    1
   115   103   104    1
   116   104   105    1
   117   106   104    1
@<TRIPOS>SUBSTRUCTURE
     1 RES1        1 GROUP             0 ****  ****    0  
     2 RES2       92 GROUP             0 ****  ****    0  
     3 RES3       97 GROUP             0 ****  ****    0  
     4 RES4      102 GROUP             0 ****  ****    0  
@<TRIPOS>CRYSIN
   17.0425   17.0425   17.0425   90.0000   90.0000   90.0000   198     1
