@<TRIPOS>MOLECULE
GICRIX
   110   115     1     0     0
SMALL
USER_CHARGES
****
Generated from the CSD

@<TRIPOS>ATOM
     1 Fe1      7.2909   4.6477   8.2521   Fe        1 RES1   1.0000
     2 P1       5.9141   4.2044   6.6084   P.3       1 RES1   0.0000
     3 P2       7.2668   2.4244   8.6052   P.3       1 RES1   0.0000
     4 P3       9.4051   4.7208   7.4474   P.3       1 RES1   0.0000
     5 P4       7.3599   6.8481   7.8530   P.3       1 RES1   0.0000
     6 O1       5.0078   5.0226  10.2608   O.3       1 RES1   0.0000
     7 F1      -0.1521   4.9591  10.2498   F         1 RES1   0.0000
     8 F2       3.3854   6.7811  13.9076   F         1 RES1   0.0000
     9 F3       0.8034   7.1129  14.3196   F         1 RES1   0.0000
    10 F4      -1.0238   6.1887  12.5156   F         1 RES1   0.0000
    11 F5       2.4161   4.6251   9.7919   F         1 RES1   0.0000
    12 F6       4.3038   8.1704  11.4835   F         1 RES1   0.0000
    13 F7       6.0942  10.0537  12.0213   F         1 RES1   0.0000
    14 F8       8.5097   9.4089  13.1018   F         1 RES1   0.0000
    15 F9       7.3335   4.9074  13.1222   F         1 RES1   0.0000
    16 F10      9.0504   6.8193  13.7052   F         1 RES1   0.0000
    17 F11      4.4088   0.2539  14.7335   F         1 RES1   0.0000
    18 F12      3.9025   0.3022  12.0488   F         1 RES1   0.0000
    19 F13      4.0132   2.5589  10.7078   F         1 RES1   0.0000
    20 F14      4.9717   2.5806  16.0175   F         1 RES1   0.0000
    21 F15      5.1853   4.8505  14.6947   F         1 RES1   0.0000
    22 O2       7.2822   4.9652  10.3496   O.2       1 RES1   0.0000
    23 C1       4.1918   4.8003   6.9343   C.3       1 RES1   0.0000
    24 H1       4.0480   4.7599   7.9114   H         1 RES1   0.0000
    25 H2       4.1594   5.7559   6.6772   H         1 RES1   0.0000
    26 C2       3.0477   4.1413   6.2974   C.3       1 RES1   0.0000
    27 H3       3.0923   4.2731   5.3283   H         1 RES1   0.0000
    28 H4       2.2150   4.5277   6.6416   H         1 RES1   0.0000
    29 H5       3.0693   3.1827   6.4972   H         1 RES1   0.0000
    30 C3       6.2444   4.7194   4.8746   C.3       1 RES1   0.0000
    31 H6       6.0453   5.6870   4.8081   H         1 RES1   0.0000
    32 H7       7.2141   4.6101   4.7092   H         1 RES1   0.0000
    33 C4       5.5225   4.0365   3.7698   C.3       1 RES1   0.0000
    34 H8       5.8925   4.3255   2.9094   H         1 RES1   0.0000
    35 H9       4.5702   4.2656   3.8113   H         1 RES1   0.0000
    36 H10      5.6286   3.0659   3.8627   H         1 RES1   0.0000
    37 C5       5.7275   1.7733   7.8382   C.3       1 RES1   0.0000
    38 H11      5.7585   0.7848   7.7788   H         1 RES1   0.0000
    39 H12      4.9353   2.0370   8.3702   H         1 RES1   0.0000
    40 C6       7.2134   1.8392  10.3401   C.3       1 RES1   0.0000
    41 H13      6.5075   2.3380  10.8227   H         1 RES1   0.0000
    42 H14      6.9626   0.8822  10.3461   H         1 RES1   0.0000
    43 C7       8.5222   2.0070  11.0779   C.3       1 RES1   0.0000
    44 H15      9.2149   1.4693  10.6408   H         1 RES1   0.0000
    45 H16      8.4146   1.7074  12.0055   H         1 RES1   0.0000
    46 H17      8.7856   2.9506  11.0680   H         1 RES1   0.0000
    47 C8       8.5157   1.3135   7.8224   C.3       1 RES1   0.0000
    48 H18      8.4277   1.3989   6.8394   H         1 RES1   0.0000
    49 H19      9.4155   1.6430   8.0676   H         1 RES1   0.0000
    50 C9       8.4456  -0.1677   8.1744   C.3       1 RES1   0.0000
    51 H20      9.0220  -0.6755   7.5652   H         1 RES1   0.0000
    52 H21      7.5211  -0.4808   8.0854   H         1 RES1   0.0000
    53 H22      8.7496  -0.2996   9.0961   H         1 RES1   0.0000
    54 C10      9.8941   6.4553   6.9798   C.3       1 RES1   0.0000
    55 H23     10.3334   6.9017   7.7452   H         1 RES1   0.0000
    56 H24     10.5302   6.4344   6.2223   H         1 RES1   0.0000
    57 C11      8.6357   7.2207   6.5830   C.3       1 RES1   0.0000
    58 H25      8.3257   6.9331   5.6883   H         1 RES1   0.0000
    59 H26      8.8192   8.1942   6.5546   H         1 RES1   0.0000
    60 C12      7.9538   7.7779   9.3216   C.3       1 RES1   0.0000
    61 H27      7.2607   7.7075  10.0237   H         1 RES1   0.0000
    62 H28      8.7630   7.3196   9.6617   H         1 RES1   0.0000
    63 C13      8.2914   9.2472   9.1455   C.3       1 RES1   0.0000
    64 H29      8.9910   9.3430   8.4671   H         1 RES1   0.0000
    65 H30      8.6098   9.6141   9.9960   H         1 RES1   0.0000
    66 H31      7.4894   9.7339   8.8587   H         1 RES1   0.0000
    67 C14      5.9588   7.8737   7.2606   C.3       1 RES1   0.0000
    68 H32      6.3072   8.7514   6.9640   H         1 RES1   0.0000
    69 H33      5.5471   7.4319   6.4774   H         1 RES1   0.0000
    70 C15      4.8819   8.1029   8.3188   C.3       1 RES1   0.0000
    71 H34      4.0760   8.4608   7.8916   H         1 RES1   0.0000
    72 H35      5.2106   8.7409   8.9853   H         1 RES1   0.0000
    73 H36      4.6683   7.2522   8.7579   H         1 RES1   0.0000
    74 C16     10.7631   4.2701   8.6194   C.3       1 RES1   0.0000
    75 H37     10.6940   3.3041   8.8291   H         1 RES1   0.0000
    76 H38     11.6326   4.4184   8.1705   H         1 RES1   0.0000
    77 C17     10.7488   5.0504   9.9208   C.3       1 RES1   0.0000
    78 H39     10.9889   5.9850   9.7448   H         1 RES1   0.0000
    79 H40     11.3971   4.6595  10.5439   H         1 RES1   0.0000
    80 H41      9.8533   5.0130  10.3144   H         1 RES1   0.0000
    81 C18      9.8554   3.8522   5.8821   C.3       1 RES1   0.0000
    82 H42      9.4581   2.9446   5.9098   H         1 RES1   0.0000
    83 H43      9.4321   4.3360   5.1305   H         1 RES1   0.0000
    84 C19     11.3551   3.7085   5.5775   C.3       1 RES1   0.0000
    85 H44     11.4726   3.4104   4.6519   H         1 RES1   0.0000
    86 H45     11.7498   3.0509   6.1867   H         1 RES1   0.0000
    87 H46     11.7964   4.5742   5.7021   H         1 RES1   0.0000
    88 C20      6.1963   4.8969   9.7361   C.2       1 RES1   0.0000
    89 B1       4.6775   5.2511  11.7383   B         1 RES1  -1.0000
    90 C21      3.0737   5.6615  11.8354   C.ar      1 RES1   0.0000
    91 C22      2.0897   5.2392  10.9454   C.ar      1 RES1   0.0000
    92 C23      0.7345   5.3979  11.1649   C.ar      1 RES1   0.0000
    93 C24      0.2865   6.0255  12.2942   C.ar      1 RES1   0.0000
    94 C25      1.2104   6.4898  13.2021   C.ar      1 RES1   0.0000
    95 C26      2.5512   6.2996  12.9483   C.ar      1 RES1   0.0000
    96 C27      5.7031   6.4239  12.2846   C.ar      1 RES1   0.0000
    97 C28      5.4648   7.7674  12.0506   C.ar      1 RES1   0.0000
    98 C29      6.3828   8.7724  12.3200   C.ar      1 RES1   0.0000
    99 C30      7.5964   8.4459  12.8639   C.ar      1 RES1   0.0000
   100 C31      7.8656   7.1473  13.1506   C.ar      1 RES1   0.0000
   101 C32      6.9469   6.1648  12.8518   C.ar      1 RES1   0.0000
   102 C33      4.7008   3.8313  12.5953   C.ar      1 RES1   0.0000
   103 C34      4.9061   3.7474  13.9635   C.ar      1 RES1   0.0000
   104 C35      4.8149   2.5657  14.6795   C.ar      1 RES1   0.0000
   105 C36      4.5021   1.4049  14.0407   C.ar      1 RES1   0.0000
   106 C37      4.2528   1.4229  12.6977   C.ar      1 RES1   0.0000
   107 C38      4.3320   2.6241  12.0154   C.ar      1 RES1   0.0000
   108 C39      5.6702   2.3934   6.4418   C.3       1 RES1   0.0000
   109 H47      4.7931   2.2062   6.0225   H         1 RES1   0.0000
   110 H48      6.3797   2.0070   5.8702   H         1 RES1   0.0000
@<TRIPOS>BOND
     1     1     2    1
     2     2    23    1
     3     3     1    1
     4     4     1    1
     5     5     1    1
     6     6    88    1
     7     7    92    1
     8     8    95    1
     9     9    94    1
    10    10    93    1
    11    11    91    1
    12    12    97    1
    13    13    98    1
    14    14    99    1
    15    15   101    1
    16    16   100    1
    17    17   105    1
    18    18   106    1
    19    19   107    1
    20    20   104    1
    21    21   103    1
    22    22     1    1
    23    23    24    1
    24    25    23    1
    25    26    23    1
    26    27    26    1
    27    28    26    1
    28    29    26    1
    29    30     2    1
    30    31    30    1
    31    32    30    1
    32    33    30    1
    33    34    33    1
    34    35    33    1
    35    36    33    1
    36    37     3    1
    37    38    37    1
    38    39    37    1
    39    40     3    1
    40    41    40    1
    41    42    40    1
    42    43    40    1
    43    44    43    1
    44    45    43    1
    45    46    43    1
    46    47     3    1
    47    48    47    1
    48    49    47    1
    49    50    47    1
    50    51    50    1
    51    52    50    1
    52    53    50    1
    53    54     4    1
    54    55    54    1
    55    56    54    1
    56    57     5    1
    57    58    57    1
    58    59    57    1
    59    60     5    1
    60    61    60    1
    61    62    60    1
    62    63    60    1
    63    64    63    1
    64    65    63    1
    65    66    63    1
    66    67     5    1
    67    68    67    1
    68    69    67    1
    69    70    67    1
    70    71    70    1
    71    72    70    1
    72    73    70    1
    73    74     4    1
    74    75    74    1
    75    76    74    1
    76    77    74    1
    77    78    77    1
    78    79    77    1
    79    80    77    1
    80    81     4    1
    81    82    81    1
    82    83    81    1
    83    84    81    1
    84    85    84    1
    85    86    84    1
    86    87    84    1
    87    88     1    1
    88    89     6    1
    89    90    89    1
    90    91    90   ar
    91    92    91   ar
    92    93    92   ar
    93    94    93   ar
    94    95    90   ar
    95    96    89    1
    96    97    96   ar
    97    98    97   ar
    98    99    98   ar
    99   100    99   ar
   100   101    96   ar
   101   102    89    1
   102   103   102   ar
   103   104   103   ar
   104   105   104   ar
   105   106   105   ar
   106   107   102   ar
   107   108     2    1
   108   109   108    1
   109   110   108    1
   110    22    88    2
   111    37   108    1
   112    54    57    1
   113    94    95   ar
   114   100   101   ar
   115   106   107   ar
@<TRIPOS>SUBSTRUCTURE
     1 RES1        1 GROUP             0 ****  ****    0  
@<TRIPOS>CRYSIN
   14.7572   14.9776   20.2694   90.0000  102.6370   90.0000     9     1
