@<TRIPOS>MOLECULE
GICROD
   146   150     4     0     0
SMALL
NO_CHARGES
****
Generated from the CSD

@<TRIPOS>ATOM
     1 Fe1     11.4711   8.4979   6.2733   Fe        1 RES1   0.0000
     2 P1      12.4067   6.5350   5.5609   P.3       1 RES1   0.0000
     3 P2      11.6036   9.1330   4.0800   P.3       1 RES1   0.0000
     4 P3      10.7285  10.4925   7.1029   P.3       1 RES1   0.0000
     5 P4      11.0404   7.7469   8.3515   P.3       1 RES1   0.0000
     6 Al1      7.9556   7.6375   5.5925   Al        1 RES1   0.0000
     7 O1       9.5777   7.9142   5.9560   O.3       1 RES1   0.0000
     8 F1       5.2388   7.8548   7.6987   F         1 RES1   0.0000
     9 F2       4.2393   6.0541   9.3553   F         1 RES1   0.0000
    10 F3       8.5139   4.6936   6.3414   F         1 RES1   0.0000
    11 F4       7.5168   2.9581   8.0534   F         1 RES1   0.0000
    12 F5       5.3226   3.5988   9.5644   F         1 RES1   0.0000
    13 F6       4.8472  13.0196   4.8365   F         1 RES1   0.0000
    14 F7       5.6365  11.5808   2.6817   F         1 RES1   0.0000
    15 F8       6.8441   9.2513   2.9606   F         1 RES1   0.0000
    16 F9       5.4883  12.1141   7.3440   F         1 RES1   0.0000
    17 F10      6.8789   9.8558   7.6536   F         1 RES1   0.0000
    18 F11      8.5128   4.9509   0.8344   F         1 RES1   0.0000
    19 F12      4.1605   5.4732   2.5464   F         1 RES1   0.0000
    20 F13      5.1281   6.8198   4.6274   F         1 RES1   0.0000
    21 F14      5.8134   4.5509   0.6171   F         1 RES1   0.0000
    22 F15      9.4944   6.2513   2.9257   F         1 RES1   0.0000
    23 O2      14.1577   9.3045   6.9503   O.2       1 RES1   0.0000
    24 C1      13.2622   6.9020   3.9898   C.3       1 RES1   0.0000
    25 H1      14.0900   7.4127   4.1702   H         1 RES1   0.0000
    26 H2      13.5100   6.0587   3.5387   H         1 RES1   0.0000
    27 C2      12.3127   7.7397   3.0713   C.3       1 RES1   0.0000
    28 H3      11.5840   7.1655   2.7248   H         1 RES1   0.0000
    29 H4      12.8188   8.1003   2.3004   H         1 RES1   0.0000
    30 C3      12.6306  10.5645   3.5428   C.3       1 RES1   0.0000
    31 H5      12.4579  10.7206   2.5792   H         1 RES1   0.0000
    32 H6      12.3181  11.3669   4.0308   H         1 RES1   0.0000
    33 C4      14.0998  10.4546   3.7314   C.3       1 RES1   0.0000
    34 H7      14.3210  10.6173   4.6725   H         1 RES1   0.0000
    35 H8      14.5528  11.1175   3.1717   H         1 RES1   0.0000
    36 H9      14.3954   9.5548   3.4793   H         1 RES1   0.0000
    37 C5      10.0334   9.5137   3.2373   C.3       1 RES1   0.0000
    38 H10      9.3535   8.8632   3.5449   H         1 RES1   0.0000
    39 H11      9.7380  10.4122   3.5305   H         1 RES1   0.0000
    40 C6      10.0513   9.4943   1.6915   C.3       1 RES1   0.0000
    41 H12     10.7069  10.1437   1.3634   H         1 RES1   0.0000
    42 H13      9.1616   9.7278   1.3532   H         1 RES1   0.0000
    43 H14     10.2942   8.5977   1.3798   H         1 RES1   0.0000
    44 C7      11.2935   5.1191   5.2466   C.3       1 RES1   0.0000
    45 H15     11.2777   4.5590   6.0626   H         1 RES1   0.0000
    46 H16     10.3796   5.4754   5.1174   H         1 RES1   0.0000
    47 C8      11.6219   4.1940   4.0390   C.3       1 RES1   0.0000
    48 H17     11.5953   4.7157   3.2107   H         1 RES1   0.0000
    49 H18     10.9590   3.4723   3.9918   H         1 RES1   0.0000
    50 H19     12.5147   3.8089   4.1558   H         1 RES1   0.0000
    51 C9      13.7646   5.8439   6.5587   C.3       1 RES1   0.0000
    52 H20     14.4389   6.5569   6.6879   H         1 RES1   0.0000
    53 H21     13.4014   5.6190   7.4506   H         1 RES1   0.0000
    54 C10     14.4803   4.6228   6.0298   C.3       1 RES1   0.0000
    55 H22     13.8544   3.8698   5.9908   H         1 RES1   0.0000
    56 H23     15.2257   4.3979   6.6264   H         1 RES1   0.0000
    57 H24     14.8240   4.8086   5.1318   H         1 RES1   0.0000
    58 C11      9.5809  11.5378   6.1179   C.3       1 RES1   0.0000
    59 H25     10.0872  11.9110   5.3532   H         1 RES1   0.0000
    60 H26      8.8778  10.9511   5.7448   H         1 RES1   0.0000
    61 C12      8.8974  12.6885   6.8355   C.3       1 RES1   0.0000
    62 H27      8.3769  12.3412   7.5900   H         1 RES1   0.0000
    63 H28      8.3005  13.1548   6.2143   H         1 RES1   0.0000
    64 H29      9.5746  13.3150   7.1677   H         1 RES1   0.0000
    65 C13      9.8558  10.1897   8.7012   C.3       1 RES1   0.0000
    66 H30     10.4031  10.5524   9.4414   H         1 RES1   0.0000
    67 H31      8.9947  10.6788   8.6951   H         1 RES1   0.0000
    68 C14      9.5869   8.7172   8.9596   C.3       1 RES1   0.0000
    69 H32      8.7667   8.4339   8.4860   H         1 RES1   0.0000
    70 H33      9.4574   8.5617   9.9293   H         1 RES1   0.0000
    71 C15     12.3218   8.0727   9.5828   C.3       1 RES1   0.0000
    72 H34     13.1459   8.2163   9.0621   H         1 RES1   0.0000
    73 H35     12.0827   8.9540   9.9703   H         1 RES1   0.0000
    74 C16     12.6858   7.3162  10.6326   C.3       1 RES1   0.0000
    75 H36     12.9017   6.4105  10.3230   H         1 RES1   0.0000
    76 H37     11.9538   7.2741  11.2804   H         1 RES1   0.0000
    77 H38     13.4772   7.7112  11.0570   H         1 RES1   0.0000
    78 C17     10.4922   6.0187   8.5762   C.3       1 RES1   0.0000
    79 H39     10.0329   5.7301   7.7479   H         1 RES1   0.0000
    80 H40     11.2963   5.4511   8.6807   H         1 RES1   0.0000
    81 C18      9.5639   5.7519   9.7510   C.3       1 RES1   0.0000
    82 H41      9.9925   6.0543  10.5813   H         1 RES1   0.0000
    83 H42      9.3799   4.7909   9.8104   H         1 RES1   0.0000
    84 H43      8.7232   6.2379   9.6218   H         1 RES1   0.0000
    85 C19     11.9652  11.7130   7.7089   C.3       1 RES1   0.0000
    86 H44     11.4905  12.3819   8.2625   H         1 RES1   0.0000
    87 H45     12.6017  11.2385   8.3014   H         1 RES1   0.0000
    88 C20     12.7635  12.4528   6.6592   C.3       1 RES1   0.0000
    89 H46     13.2155  11.8080   6.0769   H         1 RES1   0.0000
    90 H47     13.4321  13.0200   7.0979   H         1 RES1   0.0000
    91 H48     12.1615  13.0111   6.1241   H         1 RES1   0.0000
    92 C21      6.9984   6.4316   6.9688   C.ar      1 RES1   0.0000
    93 C22      5.8888   6.6723   7.7602   C.ar      1 RES1   0.0000
    94 C23      5.3174   5.7484   8.6172   C.ar      1 RES1   0.0000
    95 C24      5.8753   4.4841   8.7279   C.ar      1 RES1   0.0000
    96 C25      6.9562   4.1666   7.9488   C.ar      1 RES1   0.0000
    97 C26      7.4456   5.1270   7.1020   C.ar      1 RES1   0.0000
    98 C27      6.8841   9.3815   5.3429   C.ar      1 RES1   0.0000
    99 C28      6.5074  10.1840   6.4009   C.ar      1 RES1   0.0000
   100 C29      5.7945  11.3729   6.2491   C.ar      1 RES1   0.0000
   101 C30      5.5120  11.8389   5.0457   C.ar      1 RES1   0.0000
   102 C31      5.8879  11.1332   3.9406   C.ar      1 RES1   0.0000
   103 C32      6.5394   9.9215   4.1046   C.ar      1 RES1   0.0000
   104 C33      7.3919   6.5854   3.9201   C.ar      1 RES1   0.0000
   105 C34      8.1503   6.0762   2.9052   C.ar      1 RES1   0.0000
   106 C35      7.6780   5.4148   1.7919   C.ar      1 RES1   0.0000
   107 C36      6.3299   5.2100   1.6730   C.ar      1 RES1   0.0000
   108 C37      5.4754   5.6901   2.6448   C.ar      1 RES1   0.0000
   109 C38      6.0253   6.3581   3.7314   C.ar      1 RES1   0.0000
   110 C39     13.0844   8.9871   6.6366   C.1       1 RES1   0.0000
   111 C40      5.2560   1.9701   3.1922   C.ar      2 RES2   0.0000
   112 H49      4.3339   1.9825   3.4137   H         2 RES2   0.0000
   113 C41      5.7933   1.3503   2.0564   C.ar      2 RES2   0.0000
   114 H50      5.1736   0.8963   1.5028   H         2 RES2   0.0000
   115 C42      7.0659   1.3285   1.6484   C.ar      2 RES2   0.0000
   116 H51      7.3142   0.8964   0.8386   H         2 RES2   0.0000
   117 C43      8.0568   1.9734   2.4972   C.ar      2 RES2   0.0000
   118 H52      8.9814   1.9652   2.2737   H         2 RES2   0.0000
   119 C44      6.3513   2.6146   4.0185   C.ar      2 RES2   0.0000
   120 H53      6.1241   3.0442   4.8365   H         2 RES2   0.0000
   121 C45      7.6108   2.5879   3.6146   C.ar      2 RES2   0.0000
   122 H54      8.2554   3.0353   4.1538   H         2 RES2   0.0000
   123 C46      4.4653  15.4006  11.5695   C.ar      3 RES3   0.0000
   124 H55      4.5563  15.7039  12.4655   H         3 RES3   0.0000
   125 C47      3.2886  14.8262  11.1226   C.ar      3 RES3   0.0000
   126 H56      2.5743  14.7176  11.7397   H         3 RES3   0.0000
   127 C48      5.5065  15.5175  10.6613   C.ar      3 RES3   0.0000
   128 H57      6.3394  15.8855  10.9340   H         3 RES3   0.0000
   129 C46A     4.1483  14.5284   8.9329   C.ar      3 RES3   0.0000
   130 H55A     4.0572  14.2251   8.0370   H         3 RES3   0.0000
   131 C47A     5.3250  15.1028   9.3799   C.ar      3 RES3   0.0000
   132 H56A     6.0392  15.2114   8.7627   H         3 RES3   0.0000
   133 C48A     3.1070  14.4115   9.8412   C.ar      3 RES3   0.0000
   134 H57A     2.2741  14.0435   9.5685   H         3 RES3   0.0000
   135 C49     11.6833   2.0172  -0.2050   C.ar      4 RES4   0.0000
   136 H58     11.1929   1.2356  -0.4511   H         4 RES4   0.0000
   137 C50     11.0883   3.3044  -0.3198   C.ar      4 RES4   0.0000
   138 H59     10.2214   3.4144  -0.6909   H         4 RES4   0.0000
   139 C51     11.7970   4.3655   0.1169   C.ar      4 RES4   0.0000
   140 H60     11.3948   5.2245   0.0656   H         4 RES4   0.0000
   141 C52     13.0892   4.2711   0.6376   C.ar      4 RES4   0.0000
   142 H61     13.5785   5.0486   0.8775   H         4 RES4   0.0000
   143 C53     13.5985   3.0943   0.7811   C.ar      4 RES4   0.0000
   144 H62     14.4220   3.0176   1.2465   H         4 RES4   0.0000
   145 C54     13.0026   1.9188   0.2809   C.ar      4 RES4   0.0000
   146 H63     13.4676   1.0930   0.2727   H         4 RES4   0.0000
@<TRIPOS>BOND
     1     1     2    1
     2     2    24    1
     3     3     1    1
     4     4     1    1
     5     5     1    1
     6     6     7    1
     7     7     1    1
     8     8    93    1
     9     9    94    1
    10    10    97    1
    11    11    96    1
    12    12    95    1
    13    13   101    1
    14    14   102    1
    15    15   103    1
    16    16   100    1
    17    17    99    1
    18    18   106    1
    19    19   108    1
    20    20   109    1
    21    21   107    1
    22    22   105    1
    23    23   110    3
    24    24    25    1
    25    26    24    1
    26    27     3    1
    27    28    27    1
    28    29    27    1
    29    30     3    1
    30    31    30    1
    31    32    30    1
    32    33    30    1
    33    34    33    1
    34    35    33    1
    35    36    33    1
    36    37     3    1
    37    38    37    1
    38    39    37    1
    39    40    37    1
    40    41    40    1
    41    42    40    1
    42    43    40    1
    43    44     2    1
    44    45    44    1
    45    46    44    1
    46    47    44    1
    47    48    47    1
    48    49    47    1
    49    50    47    1
    50    51     2    1
    51    52    51    1
    52    53    51    1
    53    54    51    1
    54    55    54    1
    55    56    54    1
    56    57    54    1
    57    58     4    1
    58    59    58    1
    59    60    58    1
    60    61    58    1
    61    62    61    1
    62    63    61    1
    63    64    61    1
    64    65     4    1
    65    66    65    1
    66    67    65    1
    67    68     5    1
    68    69    68    1
    69    70    68    1
    70    71     5    1
    71    72    71    1
    72    73    71    1
    73    74    71    1
    74    75    74    1
    75    76    74    1
    76    77    74    1
    77    78     5    1
    78    79    78    1
    79    80    78    1
    80    81    78    1
    81    82    81    1
    82    83    81    1
    83    84    81    1
    84    85     4    1
    85    86    85    1
    86    87    85    1
    87    88    85    1
    88    89    88    1
    89    90    88    1
    90    91    88    1
    91    92     6    1
    92    93    92   ar
    93    94    93   ar
    94    95    94   ar
    95    96    95   ar
    96    97    92   ar
    97    98     6    1
    98    99    98   ar
    99   100    99   ar
   100   101   100   ar
   101   102   101   ar
   102   103    98   ar
   103   104     6    1
   104   105   104   ar
   105   106   105   ar
   106   107   106   ar
   107   108   107   ar
   108   109   104   ar
   109   110     1    1
   110    24    27    1
   111    65    68    1
   112    96    97   ar
   113   102   103   ar
   114   108   109   ar
   115   111   112    1
   116   113   111   ar
   117   114   113    1
   118   115   113   ar
   119   116   115    1
   120   117   115   ar
   121   118   117    1
   122   119   111   ar
   123   120   119    1
   124   121   117   ar
   125   122   121    1
   126   119   121   ar
   127   123   124    1
   128   125   123   ar
   129   126   125    1
   130   127   123   ar
   131   128   127    1
   132   129   130    1
   133   131   127   ar
   134   132   131    1
   135   133   125   ar
   136   134   133    1
   137   129   131   ar
   138   129   133   ar
   139   135   136    1
   140   137   135   ar
   141   138   137    1
   142   139   137   ar
   143   140   139    1
   144   141   139   ar
   145   142   141    1
   146   143   141   ar
   147   144   143    1
   148   145   135   ar
   149   146   145    1
   150   143   145   ar
@<TRIPOS>SUBSTRUCTURE
     1 RES1        1 GROUP             0 ****  ****    0  
     2 RES2      111 GROUP             0 ****  ****    0  
     3 RES3      123 GROUP             0 ****  ****    0  
     4 RES4      135 GROUP             0 ****  ****    0  
@<TRIPOS>CRYSIN
   11.5800   12.5200   21.3930   73.4250   86.0060   73.4720     2     1
