@<TRIPOS>MOLECULE
GIGGUA07
   103   108     3     0     0
SMALL
USER_CHARGES
****
Generated from the CSD

@<TRIPOS>ATOM
     1 Fe1      6.8311   3.7775  14.9654   Fe        1 RES1   2.0000
     2 N1       6.6168   3.5843  16.9222   N.2       1 RES1   0.0000
     3 N2       5.2672   2.5539  14.9872   N.2       1 RES1   0.0000
     4 N3       8.1224   2.2789  14.8373   N.2       1 RES1   0.0000
     5 N4       7.0831   3.7394  12.9895   N.2       1 RES1   0.0000
     6 N5       8.2765   5.0781  15.2774   N.2       1 RES1   0.0000
     7 N6       5.7528   5.4567  15.0575   N.2       1 RES1   0.0000
     8 N7       4.1941   4.2575  12.8369   N.3       1 RES1   0.0000
     9 N8       5.3968   2.7697  18.5786   N.pl3     1 RES1   0.0000
    10 N9       9.3955   1.0303  13.5154   N.pl3     1 RES1   0.0000
    11 N10      8.8230   7.1291  15.9237   N.pl3     1 RES1   0.0000
    12 C1       7.1280   4.0400  18.1045   C.2       1 RES1   0.0000
    13 H1       7.8839   4.6084  18.1975   H         1 RES1   0.0000
    14 C2       6.3760   3.5460  19.1349   C.2       1 RES1   0.0000
    15 H2       6.5088   3.7110  20.0620   H         1 RES1   0.0000
    16 C3       5.5699   2.8128  17.2373   C.2       1 RES1   0.0000
    17 C4       4.8505   2.2016  16.1636   C.2       1 RES1   0.0000
    18 H3       4.1329   1.5931  16.2999   H         1 RES1   0.0000
    19 C5       4.5772   2.0034  13.8200   C.3       1 RES1   0.0000
    20 H4       4.0837   1.1884  14.0884   H         1 RES1   0.0000
    21 H5       5.2458   1.7439  13.1386   H         1 RES1   0.0000
    22 C6       3.6017   3.0045  13.2129   C.3       1 RES1   0.0000
    23 H6       3.1875   2.5967  12.4118   H         1 RES1   0.0000
    24 H7       2.8794   3.1797  13.8675   H         1 RES1   0.0000
    25 C7       4.2529   2.1628  19.2856   C.3       1 RES1   0.0000
    26 H8       4.4587   2.1005  20.2520   H         1 RES1   0.0000
    27 H9       4.1038   1.2457  18.9429   H         1 RES1   0.0000
    28 C8       2.9803   2.9926  19.0895   C.3       1 RES1   0.0000
    29 H10      2.7619   3.0180  18.1252   H         1 RES1   0.0000
    30 H11      2.2319   2.5417  19.5561   H         1 RES1   0.0000
    31 C9       3.0894   4.4224  19.6077   C.3       1 RES1   0.0000
    32 H12      3.4091   4.4026  20.5431   H         1 RES1   0.0000
    33 H13      3.7627   4.9093  19.0688   H         1 RES1   0.0000
    34 C10      1.7728   5.1801  19.5520   C.3       1 RES1   0.0000
    35 H14      1.9005   6.0829  19.9113   H         1 RES1   0.0000
    36 H15      1.1012   4.7068  20.0868   H         1 RES1   0.0000
    37 H16      1.4680   5.2382  18.6228   H         1 RES1   0.0000
    38 C11      9.6993   0.7025  14.8132   C.2       1 RES1   0.0000
    39 H17     10.3391   0.0604  15.1002   H         1 RES1   0.0000
    40 C12      8.9057   1.4753  15.6164   C.2       1 RES1   0.0000
    41 H18      8.9009   1.4559  16.5662   H         1 RES1   0.0000
    42 C13      8.4552   2.0015  13.5660   C.2       1 RES1   0.0000
    43 C14      7.8768   2.8260  12.5542   C.2       1 RES1   0.0000
    44 H19      8.0626   2.7075  11.6292   H         1 RES1   0.0000
    45 C15      6.5074   4.6652  12.0071   C.3       1 RES1   0.0000
    46 H20      7.0515   4.6437  11.1811   H         1 RES1   0.0000
    47 H21      6.5414   5.5861  12.3705   H         1 RES1   0.0000
    48 C16      5.0685   4.3129  11.6684   C.3       1 RES1   0.0000
    49 H22      4.7142   4.9865  11.0366   H         1 RES1   0.0000
    50 H23      5.0516   3.4338  11.2142   H         1 RES1   0.0000
    51 C17      9.9553   0.4000  12.2941   C.3       1 RES1   0.0000
    52 H24     10.9026   0.1636  12.4593   H         1 RES1   0.0000
    53 H25      9.9325   1.0567  11.5549   H         1 RES1   0.0000
    54 C18      9.1963  -0.8515  11.8728   C.3       1 RES1   0.0000
    55 H26      8.2624  -0.5994  11.6622   H         1 RES1   0.0000
    56 H27      9.6045  -1.2041  11.0428   H         1 RES1   0.0000
    57 C19      9.1763  -1.9586  12.9115   C.3       1 RES1   0.0000
    58 H28      8.6373  -1.6667  13.6899   H         1 RES1   0.0000
    59 H29     10.1000  -2.1251  13.2274   H         1 RES1   0.0000
    60 C20      8.5942  -3.2573  12.3540   C.3       1 RES1   0.0000
    61 H30      8.6058  -3.9470  13.0498   H         1 RES1   0.0000
    62 H31      9.1321  -3.5552  11.5900   H         1 RES1   0.0000
    63 H32      7.6712  -3.1018  12.0607   H         1 RES1   0.0000
    64 C21      9.6123   5.1056  15.5751   C.2       1 RES1   0.0000
    65 H33     10.2053   4.3666  15.5070   H         1 RES1   0.0000
    66 C22      9.9567   6.3630  15.9839   C.2       1 RES1   0.0000
    67 H34     10.8195   6.6511  16.2586   H         1 RES1   0.0000
    68 C23      7.8224   6.3196  15.4987   C.2       1 RES1   0.0000
    69 C24      6.4090   6.5262  15.3666   C.2       1 RES1   0.0000
    70 H35      5.9940   7.3716  15.4925   H         1 RES1   0.0000
    71 C25      4.2909   5.5983  14.9412   C.3       1 RES1   0.0000
    72 H36      4.0208   6.4790  15.3046   H         1 RES1   0.0000
    73 H37      3.8525   4.8979  15.4863   H         1 RES1   0.0000
    74 C26      3.8108   5.4827  13.4876   C.3       1 RES1   0.0000
    75 H38      2.8228   5.5552  13.4710   H         1 RES1   0.0000
    76 H39      4.1744   6.2441  12.9693   H         1 RES1   0.0000
    77 C27      8.6827   8.5079  16.3969   C.3       1 RES1   0.0000
    78 H40      8.0035   8.9744  15.8477   H         1 RES1   0.0000
    79 H41      9.5444   8.9816  16.2833   H         1 RES1   0.0000
    80 C28      8.2672   8.5637  17.8691   C.3       1 RES1   0.0000
    81 H42      7.3633   8.1721  17.9683   H         1 RES1   0.0000
    82 H43      8.8947   8.0185  18.4060   H         1 RES1   0.0000
    83 C29      8.2565   9.9865  18.4039   C.3       1 RES1   0.0000
    84 H44      7.6741  10.5454  17.8299   H         1 RES1   0.0000
    85 H45      9.1730  10.3575  18.3585   H         1 RES1   0.0000
    86 C30      7.7555  10.0552  19.8452   C.3       1 RES1   0.0000
    87 H46      7.7605  10.9871  20.1487   H         1 RES1   0.0000
    88 H47      8.3427   9.5207  20.4213   H         1 RES1   0.0000
    89 H48      6.8430   9.7012  19.8927   H         1 RES1   0.0000
    90 P1      11.7407  -1.5031  17.6552   P.3       2 RES2  -1.0000
    91 F1      12.2887  -3.0007  17.7795   F         2 RES2   0.0000
    92 F2      11.1916   0.0037  17.5202   F         2 RES2   0.0000
    93 F3      10.4126  -1.9123  18.4547   F         2 RES2   0.0000
    94 F4      12.4573  -1.1111  19.0308   F         2 RES2   0.0000
    95 F5      13.0610  -1.0784  16.8446   F         2 RES2   0.0000
    96 F6      11.0203  -1.8881  16.2654   F         2 RES2   0.0000
    97 P2       5.8589   9.1749  12.1809   P.3       3 RES3  -1.0000
    98 F7       6.8424   8.9946  10.9288   F         3 RES3   0.0000
    99 F8       4.8657   9.3380  13.4365   F         3 RES3   0.0000
   100 F9       7.0166   9.9280  12.9883   F         3 RES3   0.0000
   101 F10      5.3455  10.5656  11.5811   F         3 RES3   0.0000
   102 F11      4.6969   8.4022  11.3670   F         3 RES3   0.0000
   103 F12      6.3535   7.7700  12.7808   F         3 RES3   0.0000
@<TRIPOS>BOND
     1     1     2    1
     2     2    12    1
     3     3     1    1
     4     4     1    1
     5     5     1    1
     6     6     1    1
     7     7     1    1
     8     8    22    1
     9     9    14    1
    10    10    38    1
    11    11    66    1
    12    12    13    1
    13    14    12    2
    14    15    14    1
    15    16     2    2
    16    17     3    2
    17    18    17    1
    18    19     3    1
    19    20    19    1
    20    21    19    1
    21    22    19    1
    22    23    22    1
    23    24    22    1
    24    25     9    1
    25    26    25    1
    26    27    25    1
    27    28    25    1
    28    29    28    1
    29    30    28    1
    30    31    28    1
    31    32    31    1
    32    33    31    1
    33    34    31    1
    34    35    34    1
    35    36    34    1
    36    37    34    1
    37    38    39    1
    38    40     4    1
    39    41    40    1
    40    42     4    2
    41    43     5    2
    42    44    43    1
    43    45     5    1
    44    46    45    1
    45    47    45    1
    46    48     8    1
    47    49    48    1
    48    50    48    1
    49    51    10    1
    50    52    51    1
    51    53    51    1
    52    54    51    1
    53    55    54    1
    54    56    54    1
    55    57    54    1
    56    58    57    1
    57    59    57    1
    58    60    57    1
    59    61    60    1
    60    62    60    1
    61    63    60    1
    62    64     6    1
    63    65    64    1
    64    66    64    2
    65    67    66    1
    66    68     6    2
    67    69     7    2
    68    70    69    1
    69    71     7    1
    70    72    71    1
    71    73    71    1
    72    74     8    1
    73    75    74    1
    74    76    74    1
    75    77    11    1
    76    78    77    1
    77    79    77    1
    78    80    77    1
    79    81    80    1
    80    82    80    1
    81    83    80    1
    82    84    83    1
    83    85    83    1
    84    86    83    1
    85    87    86    1
    86    88    86    1
    87    89    86    1
    88     9    16    1
    89    10    42    1
    90    11    68    1
    91    16    17    1
    92    38    40    2
    93    42    43    1
    94    45    48    1
    95    68    69    1
    96    71    74    1
    97    90    91    1
    98    92    90    1
    99    93    90    1
   100    94    90    1
   101    95    90    1
   102    96    90    1
   103    97    98    1
   104    99    97    1
   105   100    97    1
   106   101    97    1
   107   102    97    1
   108   103    97    1
@<TRIPOS>SUBSTRUCTURE
     1 RES1        1 GROUP             0 ****  ****    0  
     2 RES2       90 GROUP             0 ****  ****    0  
     3 RES3       97 GROUP             0 ****  ****    0  
@<TRIPOS>CRYSIN
    9.0037   10.6349   20.9238   87.4270   80.8380   83.9260     2     1
