@<TRIPOS>MOLECULE
GIGGUA
   103   108     3     0     0
SMALL
USER_CHARGES
****
Generated from the CSD

@<TRIPOS>ATOM
     1 Fe1      0.9909   6.0126  16.1577   Fe        1 RES1   2.0000
     2 N1       0.6024   6.0473  14.2169   N.2       1 RES1   0.0000
     3 N2      -0.4904   7.3213  16.1538   N.2       1 RES1   0.0000
     4 N3       2.3515   7.4137  16.0594   N.2       1 RES1   0.0000
     5 N4       1.4229   6.1776  18.0871   N.2       1 RES1   0.0000
     6 N5       2.3679   4.6626  15.8924   N.2       1 RES1   0.0000
     7 N6      -0.1360   4.3828  16.3124   N.2       1 RES1   0.0000
     8 N7      -1.4165   5.8761  18.4600   N.3       1 RES1   0.0000
     9 N8      -0.6516   6.8332  12.5793   N.pl3     1 RES1   0.0000
    10 N9       3.8784   8.6498  17.1115   N.pl3     1 RES1   0.0000
    11 N10      2.8499   2.5297  15.4984   N.pl3     1 RES1   0.0000
    12 C1       1.0149   5.4844  13.0360   C.2       1 RES1   0.0000
    13 H1       1.7094   4.8744  12.9381   H         1 RES1   0.0000
    14 C2       0.2285   5.9738  12.0260   C.2       1 RES1   0.0000
    15 H2       0.2911   5.7539  11.1243   H         1 RES1   0.0000
    16 C3      -0.4148   6.8436  13.9106   C.2       1 RES1   0.0000
    17 C4      -1.0039   7.5918  14.9914   C.2       1 RES1   0.0000
    18 H3      -1.6890   8.2094  14.8706   H         1 RES1   0.0000
    19 C5      -1.0435   8.0282  17.3133   C.3       1 RES1   0.0000
    20 H4      -1.5132   8.8223  17.0113   H         1 RES1   0.0000
    21 H5      -0.3204   8.3093  17.8943   H         1 RES1   0.0000
    22 C6      -2.0040   7.1338  18.0921   C.3       1 RES1   0.0000
    23 H6      -2.2873   7.5980  18.8959   H         1 RES1   0.0000
    24 H7      -2.7927   6.9694  17.5507   H         1 RES1   0.0000
    25 C7      -1.7517   7.5431  11.8885   C.3       1 RES1   0.0000
    26 H8      -1.5607   7.5701  10.9390   H         1 RES1   0.0000
    27 H9      -1.7858   8.4582  12.2092   H         1 RES1   0.0000
    28 C8      -3.1006   6.8993  12.0989   C.3       1 RES1   0.0000
    29 H10     -3.7809   7.4632  11.6990   H         1 RES1   0.0000
    30 H11     -3.2784   6.8552  13.0526   H         1 RES1   0.0000
    31 C9      -3.2208   5.5004  11.5158   C.3       1 RES1   0.0000
    32 H12     -2.5712   4.9182  11.9406   H         1 RES1   0.0000
    33 H13     -3.0227   5.5304  10.5662   H         1 RES1   0.0000
    34 C10     -4.6263   4.9248  11.7220   C.3       1 RES1   0.0000
    35 H14     -5.2786   5.5535  11.4054   H         1 RES1   0.0000
    36 H15     -4.7695   4.7588  12.6570   H         1 RES1   0.0000
    37 H16     -4.7104   4.1026  11.2347   H         1 RES1   0.0000
    38 C11      3.1164   8.0815  15.1246   C.2       1 RES1   0.0000
    39 H17      3.0158   8.0203  14.2021   H         1 RES1   0.0000
    40 C12      4.0394   8.8422  15.7639   C.2       1 RES1   0.0000
    41 H18      4.6690   9.3954  15.3620   H         1 RES1   0.0000
    42 C13      2.8590   7.7643  17.2362   C.2       1 RES1   0.0000
    43 C14      2.3209   7.0625  18.3878   C.2       1 RES1   0.0000
    44 H19      2.5950   7.2320  19.2603   H         1 RES1   0.0000
    45 C15      0.8899   5.3508  19.1749   C.3       1 RES1   0.0000
    46 H20      1.4835   5.3999  19.9413   H         1 RES1   0.0000
    47 H21      0.8455   4.4247  18.8876   H         1 RES1   0.0000
    48 C16     -0.5110   5.8296  19.5810   C.3       1 RES1   0.0000
    49 H22     -0.8693   5.2319  20.2557   H         1 RES1   0.0000
    50 H23     -0.4438   6.7147  19.9725   H         1 RES1   0.0000
    51 C17      4.6021   9.3593  18.1816   C.3       1 RES1   0.0000
    52 H24      5.5557   9.2975  18.0192   H         1 RES1   0.0000
    53 H25      4.4151   8.9310  19.0313   H         1 RES1   0.0000
    54 C18      4.2026  10.8188  18.2608   C.3       1 RES1   0.0000
    55 H26      4.3651  11.2303  17.3966   H         1 RES1   0.0000
    56 H27      4.7741  11.2612  18.9063   H         1 RES1   0.0000
    57 C19      2.7455  11.0664  18.6502   C.3       1 RES1   0.0000
    58 H28      2.1667  10.6952  17.9671   H         1 RES1   0.0000
    59 H29      2.5574  10.6038  19.4811   H         1 RES1   0.0000
    60 C20      2.4326  12.5331  18.8188   C.3       1 RES1   0.0000
    61 H30      2.1541  12.8999  17.9775   H         1 RES1   0.0000
    62 H31      3.2168  12.9944  19.1270   H         1 RES1   0.0000
    63 H32      1.7276  12.6371  19.4623   H         1 RES1   0.0000
    64 C21      3.6918   4.5802  15.5536   C.2       1 RES1   0.0000
    65 H33      4.2857   5.2938  15.5036   H         1 RES1   0.0000
    66 C22      3.9924   3.2670  15.3037   C.2       1 RES1   0.0000
    67 H34      4.8225   2.9346  15.0455   H         1 RES1   0.0000
    68 C23      1.8879   3.4056  15.8493   C.2       1 RES1   0.0000
    69 C24      0.4669   3.2657  16.1075   C.2       1 RES1   0.0000
    70 H35      0.0319   2.4439  16.1242   H         1 RES1   0.0000
    71 C25     -1.5948   4.3381  16.5261   C.3       1 RES1   0.0000
    72 H36     -1.9250   3.4583  16.2866   H         1 RES1   0.0000
    73 H37     -2.0220   4.9852  15.9430   H         1 RES1   0.0000
    74 C26     -1.9763   4.6409  17.9838   C.3       1 RES1   0.0000
    75 H38     -2.9428   4.6826  18.0567   H         1 RES1   0.0000
    76 H39     -1.6690   3.9151  18.5502   H         1 RES1   0.0000
    77 C27      2.6901   1.0966  15.2787   C.3       1 RES1   0.0000
    78 H40      1.9633   0.7740  15.8347   H         1 RES1   0.0000
    79 H41      3.5004   0.6441  15.5640   H         1 RES1   0.0000
    80 C28      2.4128   0.7390  13.8814   C.3       1 RES1   0.0000
    81 H42      1.5404   1.1003  13.6565   H         1 RES1   0.0000
    82 H43      2.3383  -0.2267  13.8377   H         1 RES1   0.0000
    83 C29      3.3487   1.1593  12.8277   C.3       1 RES1   0.0000
    84 H44      4.2407   0.8741  13.0797   H         1 RES1   0.0000
    85 H45      3.3532   2.1280  12.7902   H         1 RES1   0.0000
    86 C30      3.0524   0.6264  11.4304   C.3       1 RES1   0.0000
    87 H46      3.4454   1.2080  10.7765   H         1 RES1   0.0000
    88 H47      2.1022   0.5904  11.2971   H         1 RES1   0.0000
    89 H48      3.4220  -0.2546  11.3388   H         1 RES1   0.0000
    90 P1       0.2754   1.1027  20.2768   P.3       2 RES2  -1.0000
    91 F1       0.3072   1.2492  18.6927   F         2 RES2   0.0000
    92 F2       1.3379  -0.1172  20.2003   F         2 RES2   0.0000
    93 F3      -0.9276   0.0674  20.1741   F         2 RES2   0.0000
    94 F4      -0.7699   2.3048  20.3571   F         2 RES2   0.0000
    95 F5       1.4762   2.1287  20.4204   F         2 RES2   0.0000
    96 F6       0.2428   0.9518  21.8704   F         2 RES2   0.0000
    97 P2      -1.7701   1.4151  13.2023   P.3       3 RES3  -1.0000
    98 F7      -0.6698   0.9385  12.1464   F         3 RES3   0.0000
    99 F8      -2.5814   2.1505  12.0420   F         3 RES3   0.0000
   100 F9      -0.9302   2.7414  13.4876   F         3 RES3   0.0000
   101 F10     -0.9574   0.6501  14.3820   F         3 RES3   0.0000
   102 F11     -2.5959   0.0742  12.9481   F         3 RES3   0.0000
   103 F12     -2.8661   1.8634  14.2867   F         3 RES3   0.0000
@<TRIPOS>BOND
     1     1     2    1
     2     2    12    1
     3     3     1    1
     4     4     1    1
     5     5     1    1
     6     6     1    1
     7     7     1    1
     8     8    22    1
     9     9    14    1
    10    10    40    1
    11    11    66    1
    12    12    13    1
    13    14    12    2
    14    15    14    1
    15    16     2    2
    16    17     3    2
    17    18    17    1
    18    19     3    1
    19    20    19    1
    20    21    19    1
    21    22    19    1
    22    23    22    1
    23    24    22    1
    24    25     9    1
    25    26    25    1
    26    27    25    1
    27    28    25    1
    28    29    28    1
    29    30    28    1
    30    31    28    1
    31    32    31    1
    32    33    31    1
    33    34    31    1
    34    35    34    1
    35    36    34    1
    36    37    34    1
    37    38     4    1
    38    39    38    1
    39    40    38    2
    40    41    40    1
    41    42     4    2
    42    43     5    2
    43    44    43    1
    44    45     5    1
    45    46    45    1
    46    47    45    1
    47    48     8    1
    48    49    48    1
    49    50    48    1
    50    51    10    1
    51    52    51    1
    52    53    51    1
    53    54    51    1
    54    55    54    1
    55    56    54    1
    56    57    54    1
    57    58    57    1
    58    59    57    1
    59    60    57    1
    60    61    60    1
    61    62    60    1
    62    63    60    1
    63    64     6    1
    64    65    64    1
    65    66    64    2
    66    67    66    1
    67    68     6    2
    68    69     7    2
    69    70    69    1
    70    71     7    1
    71    72    71    1
    72    73    71    1
    73    74     8    1
    74    75    74    1
    75    76    74    1
    76    77    11    1
    77    78    77    1
    78    79    77    1
    79    80    77    1
    80    81    80    1
    81    82    80    1
    82    83    80    1
    83    84    83    1
    84    85    83    1
    85    86    83    1
    86    87    86    1
    87    88    86    1
    88    89    86    1
    89     9    16    1
    90    10    42    1
    91    11    68    1
    92    16    17    1
    93    42    43    1
    94    45    48    1
    95    68    69    1
    96    71    74    1
    97    90    91    1
    98    92    90    1
    99    93    90    1
   100    94    90    1
   101    95    90    1
   102    96    90    1
   103    97    98    1
   104    99    97    1
   105   100    97    1
   106   101    97    1
   107   102    97    1
   108   103    97    1
@<TRIPOS>SUBSTRUCTURE
     1 RES1        1 GROUP             0 ****  ****    0  
     2 RES2       90 GROUP             0 ****  ****    0  
     3 RES3       97 GROUP             0 ****  ****    0  
@<TRIPOS>CRYSIN
    9.5190    9.9990   20.9010   92.8620   93.4190  100.1950     2     1
