@<TRIPOS>MOLECULE
GIGGUA09
   103   108     3     0     0
SMALL
USER_CHARGES
****
Generated from the CSD

@<TRIPOS>ATOM
     1 Fe1      1.0336   7.9381   6.0500   Fe        1 RES1   2.0000
     2 N1       0.9890   7.8415   3.8275   N.2       1 RES1   0.0000
     3 N2       2.6886   6.6401   5.5010   N.2       1 RES1   0.0000
     4 N3      -0.5254   6.3845   6.2605   N.2       1 RES1   0.0000
     5 N4       0.8529   7.6079   8.2184   N.2       1 RES1   0.0000
     6 N5      -0.5164   9.4367   5.8061   N.2       1 RES1   0.0000
     7 N6       2.1240   9.8344   5.8984   N.2       1 RES1   0.0000
     8 N7       3.5506   8.1626   7.6687   N.3       1 RES1   0.0000
     9 N8       2.1297   7.2793   2.0131   N.pl3     1 RES1   0.0000
    10 N9      -1.6679   5.1099   7.6628   N.pl3     1 RES1   0.0000
    11 N10     -0.9661  11.4935   5.1369   N.pl3     1 RES1   0.0000
    12 C1       0.3764   8.3762   2.7244   C.2       1 RES1   0.0000
    13 H1      -0.3954   8.8954   2.7397   H         1 RES1   0.0000
    14 C2       1.0586   8.0387   1.6272   C.2       1 RES1   0.0000
    15 H2       0.8438   8.2771   0.7547   H         1 RES1   0.0000
    16 C3       2.0386   7.1816   3.3557   C.2       1 RES1   0.0000
    17 C4       2.9233   6.4944   4.2709   C.2       1 RES1   0.0000
    18 H3       3.6303   5.9710   3.9677   H         1 RES1   0.0000
    19 C5       3.5988   6.0285   6.4718   C.3       1 RES1   0.0000
    20 H4       4.1842   5.3954   6.0269   H         1 RES1   0.0000
    21 H5       3.0947   5.5568   7.1524   H         1 RES1   0.0000
    22 C6       4.4220   7.1526   7.1066   C.3       1 RES1   0.0000
    23 H6       4.9868   6.7862   7.8046   H         1 RES1   0.0000
    24 H7       4.9953   7.5548   6.4348   H         1 RES1   0.0000
    25 C7       3.2225   6.7944   1.1626   C.3       1 RES1   0.0000
    26 H8       2.8604   6.4969   0.3141   H         1 RES1   0.0000
    27 H9       3.6468   6.0334   1.5902   H         1 RES1   0.0000
    28 C8       4.2466   7.8641   0.9205   C.3       1 RES1   0.0000
    29 H10      4.9336   7.4374   0.3861   H         1 RES1   0.0000
    30 H11      3.8102   8.5014   0.3316   H         1 RES1   0.0000
    31 C9       4.8658   8.5603   1.7494   C.3       1 RES1   0.0000
    32 H12      5.2494   7.9324   2.3820   H         1 RES1   0.0000
    33 H13      4.1869   9.0519   2.2358   H         1 RES1   0.0000
    34 C10      5.9416   9.5428   1.4593   C.3       1 RES1   0.0000
    35 H14      6.5902   9.5256   2.1682   H         1 RES1   0.0000
    36 H15      5.5625  10.4218   1.3960   H         1 RES1   0.0000
    37 H16      6.3670   9.3161   0.6304   H         1 RES1   0.0000
    38 C11     -1.4226   5.6210   5.5514   C.2       1 RES1   0.0000
    39 H17     -1.5330   5.6396   4.6265   H         1 RES1   0.0000
    40 C12     -2.1147   4.8393   6.4042   C.2       1 RES1   0.0000
    41 H18     -2.7761   4.2271   6.1752   H         1 RES1   0.0000
    42 C13     -0.6975   6.0520   7.5320   C.2       1 RES1   0.0000
    43 C14      0.0461   6.6970   8.5790   C.2       1 RES1   0.0000
    44 H19     -0.0582   6.4592   9.4733   H         1 RES1   0.0000
    45 C15      1.6753   8.2686   9.2399   C.3       1 RES1   0.0000
    46 H20      1.3844   7.9960  10.1233   H         1 RES1   0.0000
    47 H21      1.5756   9.2312   9.1701   H         1 RES1   0.0000
    48 C16      3.1223   7.8879   9.0370   C.3       1 RES1   0.0000
    49 H22      3.6779   8.3875   9.6543   H         1 RES1   0.0000
    50 H23      3.2367   6.9431   9.2268   H         1 RES1   0.0000
    51 C17     -2.1305   4.4977   8.9171   C.3       1 RES1   0.0000
    52 H24     -2.1461   5.1782   9.6085   H         1 RES1   0.0000
    53 H25     -3.0399   4.1830   8.7949   H         1 RES1   0.0000
    54 C18     -1.3050   3.3830   9.3751   C.3       1 RES1   0.0000
    55 H26     -0.4123   3.7118   9.5627   H         1 RES1   0.0000
    56 H27     -1.6747   3.0407  10.2062   H         1 RES1   0.0000
    57 C19     -1.2106   2.2967   8.4285   C.3       1 RES1   0.0000
    58 H28     -0.6538   2.5757   7.6846   H         1 RES1   0.0000
    59 H29     -2.0952   2.1047   8.0795   H         1 RES1   0.0000
    60 C20     -0.5999   0.9621   9.0610   C.3       1 RES1   0.0000
    61 H30     -0.5926   1.0378  10.0186   H         1 RES1   0.0000
    62 H31      0.2968   0.8391   8.7447   H         1 RES1   0.0000
    63 H32     -1.1378   0.2108   8.8036   H         1 RES1   0.0000
    64 C21     -1.8550   9.5371   5.5470   C.2       1 RES1   0.0000
    65 H33     -2.4708   8.8469   5.6386   H         1 RES1   0.0000
    66 C22     -2.1447  10.7824   5.1413   C.2       1 RES1   0.0000
    67 H34     -2.9850  11.1055   4.9057   H         1 RES1   0.0000
    68 C23     -0.0166  10.6327   5.5383   C.2       1 RES1   0.0000
    69 C24      1.4250  10.8602   5.6451   C.2       1 RES1   0.0000
    70 H35      1.8033  11.7027   5.5339   H         1 RES1   0.0000
    71 C25      3.5789  10.0133   6.0683   C.3       1 RES1   0.0000
    72 H36      3.8129  10.9498   5.9614   H         1 RES1   0.0000
    73 H37      4.0563   9.5031   5.3943   H         1 RES1   0.0000
    74 C26      3.9695   9.5358   7.4534   C.3       1 RES1   0.0000
    75 H38      4.9312   9.5992   7.5581   H         1 RES1   0.0000
    76 H39      3.5554  10.1063   8.1209   H         1 RES1   0.0000
    77 C27     -0.7917  12.8612   4.6548   C.3       1 RES1   0.0000
    78 H40      0.0886  13.1888   4.8948   H         1 RES1   0.0000
    79 H41     -1.4563  13.4435   5.0540   H         1 RES1   0.0000
    80 C28     -0.9627  12.8471   3.0254   C.3       1 RES1   0.0000
    81 H42     -0.2620  12.3051   2.6306   H         1 RES1   0.0000
    82 H43     -1.8167  12.4511   2.7920   H         1 RES1   0.0000
    83 C29     -0.8940  14.1479   2.5107   C.3       1 RES1   0.0000
    84 H44     -0.0060  14.5132   2.6524   H         1 RES1   0.0000
    85 H45     -1.5337  14.7175   2.9665   H         1 RES1   0.0000
    86 C30     -1.2040  14.1033   1.0274   C.3       1 RES1   0.0000
    87 H46     -1.1058  13.2038   0.7067   H         1 RES1   0.0000
    88 H47     -0.5971  14.6795   0.5562   H         1 RES1   0.0000
    89 H48     -2.1056  14.3995   0.8812   H         1 RES1   0.0000
    90 P1       3.3587   2.9097   9.0032   P.3       2 RES2  -1.0000
    91 F1       2.3655   2.9505  10.2370   F         2 RES2   0.0000
    92 F2       2.8969   1.4267   8.6880   F         2 RES2   0.0000
    93 F3       4.5113   2.3559   9.9536   F         2 RES2   0.0000
    94 F4       4.3671   2.8533   7.7699   F         2 RES2   0.0000
    95 F5       3.8571   4.3864   9.2850   F         2 RES2   0.0000
    96 F6       2.2388   3.4634   8.0474   F         2 RES2   0.0000
    97 P2       5.3633   3.1162   3.0582   P.3       3 RES3  -1.0000
    98 F7       4.4734   3.4446   4.3338   F         3 RES3   0.0000
    99 F8       4.7280   1.6978   3.0080   F         3 RES3   0.0000
   100 F9       6.4943   2.6197   4.0026   F         3 RES3   0.0000
   101 F10      6.2290   2.7899   1.7804   F         3 RES3   0.0000
   102 F11      5.9149   4.5902   3.1585   F         3 RES3   0.0000
   103 F12      4.2145   3.6910   2.1411   F         3 RES3   0.0000
@<TRIPOS>BOND
     1     1     2    1
     2     2    12    1
     3     3     1    1
     4     4     1    1
     5     5     1    1
     6     6     1    1
     7     7     1    1
     8     8    22    1
     9     9    14    1
    10    10    40    1
    11    11    66    1
    12    12    13    1
    13    14    12    2
    14    15    14    1
    15    16     2    2
    16    17     3    2
    17    18    17    1
    18    19     3    1
    19    20    19    1
    20    21    19    1
    21    22    19    1
    22    23    22    1
    23    24    22    1
    24    25     9    1
    25    26    25    1
    26    27    25    1
    27    28    25    1
    28    29    28    1
    29    30    28    1
    30    31    28    1
    31    32    31    1
    32    33    31    1
    33    34    31    1
    34    35    34    1
    35    36    34    1
    36    37    34    1
    37    38     4    1
    38    39    38    1
    39    40    38    2
    40    41    40    1
    41    42     4    2
    42    43     5    2
    43    44    43    1
    44    45     5    1
    45    46    45    1
    46    47    45    1
    47    48     8    1
    48    49    48    1
    49    50    48    1
    50    51    10    1
    51    52    51    1
    52    53    51    1
    53    54    51    1
    54    55    54    1
    55    56    54    1
    56    57    54    1
    57    58    57    1
    58    59    57    1
    59    60    57    1
    60    61    60    1
    61    62    60    1
    62    63    60    1
    63    64     6    1
    64    65    64    1
    65    66    64    2
    66    67    66    1
    67    68     6    2
    68    69     7    2
    69    70    69    1
    70    71     7    1
    71    72    71    1
    72    73    71    1
    73    74     8    1
    74    75    74    1
    75    76    74    1
    76    77    11    1
    77    78    77    1
    78    79    77    1
    79    80    77    1
    80    81    80    1
    81    82    80    1
    82    83    80    1
    83    84    83    1
    84    85    83    1
    85    86    83    1
    86    87    86    1
    87    88    86    1
    88    89    86    1
    89     9    16    1
    90    10    42    1
    91    11    68    1
    92    16    17    1
    93    42    43    1
    94    45    48    1
    95    68    69    1
    96    71    74    1
    97    90    91    1
    98    92    90    1
    99    93    90    1
   100    94    90    1
   101    95    90    1
   102    96    90    1
   103    97    98    1
   104    99    97    1
   105   100    97    1
   106   101    97    1
   107   102    97    1
   108   103    97    1
@<TRIPOS>SUBSTRUCTURE
     1 RES1        1 GROUP             0 ****  ****    0  
     2 RES2       90 GROUP             0 ****  ****    0  
     3 RES3       97 GROUP             0 ****  ****    0  
@<TRIPOS>CRYSIN
    9.3885   10.2632   22.2730   91.7790  101.1060   98.9040     2     1
