@<TRIPOS>MOLECULE
GITYUE
   126   136     2     0     0
SMALL
USER_CHARGES
****
Generated from the CSD

@<TRIPOS>ATOM
     1 Fe1      1.3530   5.5117  10.7303   Fe        1 RES1   2.0000
     2 O1       0.9770   7.5477  11.5533   O.2       1 RES1   0.0000
     3 O2       1.0772   9.6455  12.3115   O.3       1 RES1   0.0000
     4 N1       3.2879   6.2161  10.2146   N.2       1 RES1   0.0000
     5 N2       5.2323   7.1707  10.5644   N.pl3     1 RES1   0.0000
     6 N3       3.2147   5.4555  14.4792   N.pl3     1 RES1   0.0000
     7 N4       2.1828   4.9958  12.5888   N.2       1 RES1   0.0000
     8 C1       4.0022   6.2414   9.0259   C.2       1 RES1   0.0000
     9 H1       3.6946   5.8997   8.1937   H         1 RES1   0.0000
    10 C2       5.1918   6.8224   9.2306   C.2       1 RES1   0.0000
    11 H2       5.8734   6.9657   8.5842   H         1 RES1   0.0000
    12 C3       4.0756   6.7761  11.1265   C.2       1 RES1   0.0000
    13 C4       3.7061   7.0120  12.5656   C.3       1 RES1   0.0000
    14 H3       4.5713   7.1189  13.0545   H         1 RES1   0.0000
    15 C5       3.0201   5.8237  13.2015   C.2       1 RES1   0.0000
    16 C6       2.4655   4.3168  14.6919   C.2       1 RES1   0.0000
    17 H4       2.4012   3.8207  15.5010   H         1 RES1   0.0000
    18 C7       1.8427   4.0456  13.5333   C.2       1 RES1   0.0000
    19 H5       1.2562   3.3125  13.3850   H         1 RES1   0.0000
    20 C8       2.9426   8.3491  12.7635   C.3       1 RES1   0.0000
    21 H6       2.8453   8.5112  13.7348   H         1 RES1   0.0000
    22 H7       3.4962   9.0811  12.3956   H         1 RES1   0.0000
    23 C9       1.5840   8.4263  12.1364   C.2       1 RES1   0.0000
    24 C10      6.4026   7.7252  11.2396   C.3       1 RES1   0.0000
    25 H8       6.1259   8.4616  11.8226   H         1 RES1   0.0000
    26 H9       7.0381   8.0592  10.5715   H         1 RES1   0.0000
    27 H10      6.8317   7.0263  11.7754   H         1 RES1   0.0000
    28 C11      3.9819   6.1599  15.5014   C.3       1 RES1   0.0000
    29 H11      4.8929   6.3153  15.1769   H         1 RES1   0.0000
    30 H12      4.0146   5.6175  16.3165   H         1 RES1   0.0000
    31 H13      3.5542   7.0197  15.6963   H         1 RES1   0.0000
    32 C12     -0.2711   9.8847  11.7668   C.3       1 RES1   0.0000
    33 H14     -0.9314   9.2795  12.1875   H         1 RES1   0.0000
    34 H15     -0.2823   9.7403  10.7861   H         1 RES1   0.0000
    35 C13     -0.5902  11.3806  12.1124   C.3       1 RES1   0.0000
    36 H16      0.0981  11.9549  11.6874   H         1 RES1   0.0000
    37 H17     -1.4635  11.6165  11.7110   H         1 RES1   0.0000
    38 C14     -0.6325  11.6749  13.4880   C.3       1 RES1   0.0000
    39 H18     -1.2843  11.0895  13.9279   H         1 RES1   0.0000
    40 H19     -0.8968  12.6097  13.6146   H         1 RES1   0.0000
    41 H20      0.2547  11.5305  13.8807   H         1 RES1   0.0000
    42 O1B      1.7291   3.4757   9.9073   O.2       1 RES1   0.0000
    43 O2B      1.6289   1.3779   9.1491   O.3       1 RES1   0.0000
    44 N1B     -0.5818   4.8073  11.2460   N.2       1 RES1   0.0000
    45 N2B     -2.5262   3.8527  10.8962   N.pl3     1 RES1   0.0000
    46 N3B     -0.5086   5.5679   6.9813   N.pl3     1 RES1   0.0000
    47 N4B      0.5233   6.0276   8.8718   N.2       1 RES1   0.0000
    48 C1B     -1.2961   4.7820  12.4347   C.2       1 RES1   0.0000
    49 H1B     -0.9886   5.1237  13.2669   H         1 RES1   0.0000
    50 C2B     -2.4857   4.2010  12.2300   C.2       1 RES1   0.0000
    51 H2B     -3.1673   4.0577  12.8764   H         1 RES1   0.0000
    52 C3B     -1.3695   4.2473  10.3341   C.2       1 RES1   0.0000
    53 C4B     -1.0001   4.0114   8.8950   C.3       1 RES1   0.0000
    54 H3B     -1.8652   3.9045   8.4061   H         1 RES1   0.0000
    55 C5B     -0.3140   5.1997   8.2591   C.2       1 RES1   0.0000
    56 C6B      0.2406   6.7066   6.7687   C.2       1 RES1   0.0000
    57 H4B      0.3049   7.2027   5.9596   H         1 RES1   0.0000
    58 C7B      0.8634   6.9778   7.9273   C.2       1 RES1   0.0000
    59 H5B      1.4499   7.7109   8.0756   H         1 RES1   0.0000
    60 C8B     -0.2365   2.6743   8.6971   C.3       1 RES1   0.0000
    61 H6B     -0.1392   2.5122   7.7258   H         1 RES1   0.0000
    62 H7B     -0.7901   1.9423   9.0650   H         1 RES1   0.0000
    63 C9B      1.1221   2.5971   9.3242   C.2       1 RES1   0.0000
    64 C10B    -3.6965   3.2982  10.2210   C.3       1 RES1   0.0000
    65 H8B     -3.4198   2.5618   9.6379   H         1 RES1   0.0000
    66 H9B     -4.3320   2.9642  10.8891   H         1 RES1   0.0000
    67 H10B    -4.1256   3.9971   9.6852   H         1 RES1   0.0000
    68 C11B    -1.2758   4.8635   5.9592   C.3       1 RES1   0.0000
    69 H11B    -2.1868   4.7081   6.2837   H         1 RES1   0.0000
    70 H12B    -1.3085   5.4059   5.1441   H         1 RES1   0.0000
    71 H13B    -0.8481   4.0037   5.7643   H         1 RES1   0.0000
    72 C12B     2.9772   1.1387   9.6937   C.3       1 RES1   0.0000
    73 H14B     3.6374   1.7439   9.2731   H         1 RES1   0.0000
    74 H15B     2.9884   1.2831  10.6745   H         1 RES1   0.0000
    75 C13B     3.2963  -0.3572   9.3482   C.3       1 RES1   0.0000
    76 H16B     2.6080  -0.9315   9.7732   H         1 RES1   0.0000
    77 H17B     4.1696  -0.5931   9.7495   H         1 RES1   0.0000
    78 C14B     3.3386  -0.6515   7.9726   C.3       1 RES1   0.0000
    79 H18B     3.9904  -0.0661   7.5327   H         1 RES1   0.0000
    80 H19B     3.6029  -1.5863   7.8460   H         1 RES1   0.0000
    81 H20B     2.4514  -0.5071   7.5799   H         1 RES1   0.0000
    82 C15      0.5938  -0.5633   3.8204   C.ar      2 RES2   0.0000
    83 C16      1.9657  -0.6647   4.0365   C.ar      2 RES2   0.0000
    84 H21      2.4389   0.1080   4.3200   H         2 RES2   0.0000
    85 C17      2.6693  -1.8464   3.8545   C.ar      2 RES2   0.0000
    86 H22      3.6044  -1.8674   4.0196   H         2 RES2   0.0000
    87 C18      2.0264  -2.9840   3.4382   C.ar      2 RES2   0.0000
    88 H23      2.5093  -3.7932   3.3092   H         2 RES2   0.0000
    89 C19      0.6666  -2.9322   3.2088   C.ar      2 RES2   0.0000
    90 H24      0.2020  -3.7094   2.9208   H         2 RES2   0.0000
    91 C20     -0.0187  -1.7516   3.3981   C.ar      2 RES2   0.0000
    92 H25     -0.9544  -1.7428   3.2341   H         2 RES2   0.0000
    93 C21     -1.2094   1.0505   2.6899   C.ar      2 RES2   0.0000
    94 C22     -2.5868   1.3030   2.6221   C.ar      2 RES2   0.0000
    95 H26     -3.0927   1.2765   3.4251   H         2 RES2   0.0000
    96 C23     -3.2432   1.5885   1.4331   C.ar      2 RES2   0.0000
    97 H27     -4.1793   1.7538   1.4400   H         2 RES2   0.0000
    98 C24     -2.5533   1.6359   0.2483   C.ar      2 RES2   0.0000
    99 H28     -2.9994   1.8398  -0.5644   H         2 RES2   0.0000
   100 C25     -1.1950   1.3801   0.2603   C.ar      2 RES2   0.0000
   101 H29     -0.7004   1.3989  -0.5515   H         2 RES2   0.0000
   102 C26     -0.5592   1.0957   1.4514   C.ar      2 RES2   0.0000
   103 H30      0.3750   0.9205   1.4293   H         2 RES2   0.0000
   104 C27     -1.2718   0.5699   5.3969   C.ar      2 RES2   0.0000
   105 C28     -1.1865  -0.5291   6.2457   C.ar      2 RES2   0.0000
   106 H31     -0.5555  -1.2104   6.0412   H         2 RES2   0.0000
   107 C29     -1.9818  -0.6779   7.3816   C.ar      2 RES2   0.0000
   108 H32     -1.8946  -1.4529   7.9232   H         2 RES2   0.0000
   109 C30     -2.8889   0.2921   7.7149   C.ar      2 RES2   0.0000
   110 H33     -3.4347   0.1962   8.4855   H         2 RES2   0.0000
   111 C31     -2.9988   1.4099   6.9170   C.ar      2 RES2   0.0000
   112 H34     -3.6239   2.0911   7.1399   H         2 RES2   0.0000
   113 C32     -2.2033   1.5433   5.7939   C.ar      2 RES2   0.0000
   114 H35     -2.2911   2.3281   5.2664   H         2 RES2   0.0000
   115 C33      0.6390   2.0911   4.3700   C.ar      2 RES2   0.0000
   116 C34      0.7962   3.1902   3.5191   C.ar      2 RES2   0.0000
   117 H36      0.3207   3.2045   2.6976   H         2 RES2   0.0000
   118 C35      1.6257   4.2650   3.8320   C.ar      2 RES2   0.0000
   119 H37      1.7020   4.9947   3.2298   H         2 RES2   0.0000
   120 C36      2.3340   4.2716   5.0141   C.ar      2 RES2   0.0000
   121 H38      2.9026   5.0013   5.2278   H         2 RES2   0.0000
   122 C37      2.2083   3.2188   5.8755   C.ar      2 RES2   0.0000
   123 H39      2.6903   3.2188   6.6936   H         2 RES2   0.0000
   124 C38      1.3782   2.1474   5.5637   C.ar      2 RES2   0.0000
   125 H40      1.3084   1.4275   6.1806   H         2 RES2   0.0000
   126 B1      -0.3223   0.7794   4.0597   B         2 RES2  -1.0000
@<TRIPOS>BOND
     1     1     2    1
     2     2    23    2
     3     3    23    1
     4     4     1    1
     5     5    10    1
     6     6    15    1
     7     7     1    1
     8     8     4    1
     9     9     8    1
    10    10     8    2
    11    11    10    1
    12    12     4    2
    13    13    12    1
    14    14    13    1
    15    15     7    2
    16    16     6    1
    17    17    16    1
    18    18     7    1
    19    19    18    1
    20    20    13    1
    21    21    20    1
    22    22    20    1
    23    23    20    1
    24    24     5    1
    25    25    24    1
    26    26    24    1
    27    27    24    1
    28    28     6    1
    29    29    28    1
    30    30    28    1
    31    31    28    1
    32    32     3    1
    33    33    32    1
    34    34    32    1
    35    35    32    1
    36    36    35    1
    37    37    35    1
    38    38    35    1
    39    39    38    1
    40    40    38    1
    41    41    38    1
    42    42     1    1
    43    43    63    1
    44    44     1    1
    45    45    50    1
    46    46    55    1
    47    47     1    1
    48    48    44    1
    49    49    48    1
    50    50    48    2
    51    51    50    1
    52    52    44    2
    53    53    52    1
    54    54    53    1
    55    55    47    2
    56    56    46    1
    57    57    56    1
    58    58    47    1
    59    59    58    1
    60    60    53    1
    61    61    60    1
    62    62    60    1
    63    63    42    2
    64    64    45    1
    65    65    64    1
    66    66    64    1
    67    67    64    1
    68    68    46    1
    69    69    68    1
    70    70    68    1
    71    71    68    1
    72    72    43    1
    73    73    72    1
    74    74    72    1
    75    75    72    1
    76    76    75    1
    77    77    75    1
    78    78    75    1
    79    79    78    1
    80    80    78    1
    81    81    78    1
    82     5    12    1
    83    13    15    1
    84    16    18    2
    85    45    52    1
    86    53    55    1
    87    56    58    2
    88    60    63    1
    89    82    83   ar
    90    83    84    1
    91    85    83   ar
    92    86    85    1
    93    87    85   ar
    94    88    87    1
    95    89    87   ar
    96    90    89    1
    97    91    82   ar
    98    92    91    1
    99    93    94   ar
   100    94    95    1
   101    96    94   ar
   102    97    96    1
   103    98    96   ar
   104    99    98    1
   105   100    98   ar
   106   101   100    1
   107   102    93   ar
   108   103   102    1
   109   104   105   ar
   110   105   106    1
   111   107   105   ar
   112   108   107    1
   113   109   107   ar
   114   110   109    1
   115   111   109   ar
   116   112   111    1
   117   113   104   ar
   118   114   113    1
   119   115   116   ar
   120   116   117    1
   121   118   116   ar
   122   119   118    1
   123   120   118   ar
   124   121   120    1
   125   122   120   ar
   126   123   122    1
   127   124   115   ar
   128   125   124    1
   129   126    82    1
   130    89    91   ar
   131    93   126    1
   132   100   102   ar
   133   104   126    1
   134   111   113   ar
   135   115   126    1
   136   122   124   ar
@<TRIPOS>SUBSTRUCTURE
     1 RES1        1 GROUP             0 ****  ****    0  
     2 RES2       82 GROUP             0 ****  ****    0  
@<TRIPOS>CRYSIN
   14.9857   11.0234   24.7254   90.0000  119.7779   90.0000    14     1
