@<TRIPOS>MOLECULE
GIXGUS
   174   181     5     0     0
SMALL
USER_CHARGES
****
Generated from the CSD

@<TRIPOS>ATOM
     1 Fe1      6.0294   6.3600   8.9121   Fe        1 RES1   2.0000
     2 H1       3.6847   6.9663   9.4762   H         1 RES1   0.0000
     3 O1       7.8118   6.1820   7.9676   O.3       1 RES1  -1.0000
     4 N1       7.8896   5.9663   6.5885   N.4       1 RES1   1.0000
     5 C1       2.5274   4.9259   3.7689   C.3       1 RES1   0.0000
     6 H2       2.6973   5.8004   3.3614   H         1 RES1   0.0000
     7 H3       1.5611   4.7717   3.8217   H         1 RES1   0.0000
     8 H4       2.9396   4.2249   3.2200   H         1 RES1   0.0000
     9 O2       5.3804   4.7843   7.5976   O.2       1 RES1   0.0000
    10 N2       6.0836   9.2472   7.8797   N.4       1 RES1   1.0000
    11 C2       3.1177   4.8921   5.1497   C.3       1 RES1   0.0000
    12 H5       4.0881   5.1162   5.0660   H         1 RES1   0.0000
    13 O3       5.3583   8.0495   7.9494   O.3       1 RES1  -1.0000
    14 N3       7.1929   9.6540  11.3930   N.am      1 RES1   0.0000
    15 H6       7.2102  10.5337  11.3688   H         1 RES1   0.0000
    16 C3       2.4859   5.9146   6.1288   C.3       1 RES1   0.0000
    17 H7       2.4246   6.7909   5.6922   H         1 RES1   0.0000
    18 H8       3.0448   5.9887   6.9303   H         1 RES1   0.0000
    19 H9       1.5884   5.6141   6.3829   H         1 RES1   0.0000
    20 N4       5.4531   3.2832   5.9147   N.am      1 RES1   0.0000
    21 H10      5.9367   2.9659   5.2514   H         1 RES1   0.0000
    22 O4       6.7673   7.7483  10.3110   O.2       1 RES1   0.0000
    23 C4       3.0204   3.4742   5.7239   C.ar      1 RES1   0.0000
    24 C5       1.7593   2.8584   5.8981   C.ar      1 RES1   0.0000
    25 H11      0.9656   3.3445   5.7039   H         1 RES1   0.0000
    26 O5       6.7232   4.8225  10.3309   O.3       1 RES1   0.0000
    27 C6       1.6750   1.5933   6.3346   C.ar      1 RES1   0.0000
    28 H12      0.8233   1.1777   6.3857   H         1 RES1   0.0000
    29 O6       4.1180   6.2697   9.8562   O.3       1 RES1   0.0000
    30 H13      3.7925   5.5022   9.7550   H         1 RES1   0.0000
    31 C7       2.7959   0.8787   6.7113   C.ar      1 RES1   0.0000
    32 H14      2.7041  -0.0073   7.0423   H         1 RES1   0.0000
    33 C8       4.0415   1.4405   6.6084   C.ar      1 RES1   0.0000
    34 C9       4.1375   2.7393   6.1006   C.ar      1 RES1   0.0000
    35 C10      5.2961   0.6831   7.0930   C.3       1 RES1   0.0000
    36 H15      6.0537   0.9799   6.5117   H         1 RES1   0.0000
    37 C11      5.1728  -0.8157   6.9122   C.3       1 RES1   0.0000
    38 H16      5.0725  -1.0220   5.9592   H         1 RES1   0.0000
    39 H17      4.3895  -1.1407   7.4016   H         1 RES1   0.0000
    40 H18      5.9793  -1.2539   7.2572   H         1 RES1   0.0000
    41 C12      5.9915   4.2337   6.6732   C.2       1 RES1   0.0000
    42 C13      5.6295   1.0944   8.4556   C.3       1 RES1   0.0000
    43 H19      6.2169   0.4269   8.8653   H         1 RES1   0.0000
    44 H20      4.8055   1.1721   8.9828   H         1 RES1   0.0000
    45 H21      6.0840   1.9619   8.4327   H         1 RES1   0.0000
    46 C14      7.4264   4.5618   6.2881   C.3       1 RES1   0.0000
    47 H22      7.5066   4.4289   5.2997   H         1 RES1   0.0000
    48 C15      8.4903   3.7079   6.9437   C.3       1 RES1   0.0000
    49 H23      8.4566   2.7729   6.6203   H         1 RES1   0.0000
    50 H24      8.4057   3.7163   7.9306   H         1 RES1   0.0000
    51 C16      9.7825   4.4225   6.4790   C.3       1 RES1   0.0000
    52 H25     10.1128   3.9936   5.6391   H         1 RES1   0.0000
    53 C17      9.3790   5.8944   6.1786   C.3       1 RES1   0.0000
    54 H26      9.4876   6.0986   5.2060   H         1 RES1   0.0000
    55 C18     10.3275   6.7371   7.0134   C.3       1 RES1   0.0000
    56 H27     10.9792   7.1991   6.4279   H         1 RES1   0.0000
    57 H28      9.8220   7.4202   7.5208   H         1 RES1   0.0000
    58 C19     11.0190   5.8405   7.9262   C.3       1 RES1   0.0000
    59 H29     11.9723   6.0999   7.9851   H         1 RES1   0.0000
    60 H30     10.6228   5.9206   8.8302   H         1 RES1   0.0000
    61 C20     10.9243   4.4989   7.4880   C.3       1 RES1   0.0000
    62 H31     10.7400   3.9020   8.2564   H         1 RES1   0.0000
    63 H32     11.7720   4.2168   7.0660   H         1 RES1   0.0000
    64 C21      7.1112   6.9506   5.8036   C.3       1 RES1   0.0000
    65 H33      6.1592   6.8797   6.0683   H         1 RES1   0.0000
    66 H34      7.1723   6.7070   4.8463   H         1 RES1   0.0000
    67 C22      7.5562   8.4180   5.9662   C.3       1 RES1   0.0000
    68 H35      8.4963   8.4846   5.6638   H         1 RES1   0.0000
    69 H36      7.0118   8.9693   5.3485   H         1 RES1   0.0000
    70 C23      7.4667   9.0315   7.3221   C.3       1 RES1   0.0000
    71 H37      7.9292   9.9063   7.2956   H         1 RES1   0.0000
    72 H38      7.9665   8.4540   7.9536   H         1 RES1   0.0000
    73 C24      6.2146   9.8697   9.2522   C.3       1 RES1   0.0000
    74 H39      6.8179  10.6638   9.1734   H         1 RES1   0.0000
    75 C25      4.7797  10.3865   9.4945   C.3       1 RES1   0.0000
    76 H40      4.1584   9.6403   9.6890   H         1 RES1   0.0000
    77 H41      4.7534  11.0349  10.2419   H         1 RES1   0.0000
    78 C26      4.4437  11.0585   8.1585   C.3       1 RES1   0.0000
    79 H42      4.7124  12.0220   8.1719   H         1 RES1   0.0000
    80 C27      5.2623  10.2787   7.1030   C.3       1 RES1   0.0000
    81 H43      5.8756  10.9049   6.6209   H         1 RES1   0.0000
    82 C28      4.2880   9.6967   6.1471   C.3       1 RES1   0.0000
    83 H44      4.5720   8.7883   5.8716   H         1 RES1   0.0000
    84 H45      4.2127  10.2634   5.3384   H         1 RES1   0.0000
    85 C29      2.9659   9.6405   6.8856   C.3       1 RES1   0.0000
    86 H46      2.9075   8.8324   7.4530   H         1 RES1   0.0000
    87 H47      2.2036   9.6496   6.2537   H         1 RES1   0.0000
    88 C30      2.9919  10.9124   7.7353   C.3       1 RES1   0.0000
    89 H48      2.6996  11.6950   7.2058   H         1 RES1   0.0000
    90 H49      2.4032  10.8189   8.5246   H         1 RES1   0.0000
    91 C31      6.7505   8.9910  10.3226   C.2       1 RES1   0.0000
    92 C32      9.0093   8.8719  12.8352   C.ar      1 RES1   0.0000
    93 C33     10.0187   9.3843  11.8328   C.3       1 RES1   0.0000
    94 H50      9.5931  10.1501  11.3510   H         1 RES1   0.0000
    95 C34      9.4050   8.2809  14.0218   C.ar      1 RES1   0.0000
    96 H51     10.3317   8.2168  14.2224   H         1 RES1   0.0000
    97 C35      8.4735   7.7776  14.9279   C.ar      1 RES1   0.0000
    98 H52      8.7667   7.3533  15.7267   H         1 RES1   0.0000
    99 C36      7.1112   7.8989  14.6607   C.ar      1 RES1   0.0000
   100 H53      6.4783   7.5523  15.2799   H         1 RES1   0.0000
   101 C37      6.6713   8.5124  13.5090   C.ar      1 RES1   0.0000
   102 C38      7.6457   8.9865  12.5879   C.ar      1 RES1   0.0000
   103 C39     10.3223   8.3101  10.7906   C.3       1 RES1   0.0000
   104 H54      9.4884   8.0327  10.3555   H         1 RES1   0.0000
   105 H55     10.7353   7.5376  11.2280   H         1 RES1   0.0000
   106 H56     10.9358   8.6726  10.1177   H         1 RES1   0.0000
   107 C40     11.2863   9.8989  12.4485   C.3       1 RES1   0.0000
   108 H57     12.0320   9.7601  11.8267   H         1 RES1   0.0000
   109 H58     11.4648   9.4146  13.2827   H         1 RES1   0.0000
   110 H59     11.1938  10.8547  12.6393   H         1 RES1   0.0000
   111 C41      5.1949   8.6517  13.1887   C.3       1 RES1   0.0000
   112 H60      5.1003   8.5201  12.2018   H         1 RES1   0.0000
   113 C42      4.3061   7.6023  13.8641   C.3       1 RES1   0.0000
   114 H61      3.4442   7.5593  13.4018   H         1 RES1   0.0000
   115 H62      4.1637   7.8510  14.8012   H         1 RES1   0.0000
   116 H63      4.7449   6.7268  13.8216   H         1 RES1   0.0000
   117 C43      4.6720  10.0652  13.5057   C.3       1 RES1   0.0000
   118 H64      5.1448  10.7203  12.9509   H         1 RES1   0.0000
   119 H65      4.8252  10.2659  14.4518   H         1 RES1   0.0000
   120 H66      3.7115  10.1076  13.3135   H         1 RES1   0.0000
   121 C44      8.0803   4.8989  10.8238   C.3       1 RES1   0.0000
   122 H67      8.5165   5.7380  10.5283   H         1 RES1   0.0000
   123 H68      8.6162   4.1302  10.5053   H         1 RES1   0.0000
   124 C45      7.9415   4.8697  12.2792   C.3       1 RES1   0.0000
   125 H69      8.6996   4.3781  12.6851   H         1 RES1   0.0000
   126 H70      7.9364   5.7916  12.6410   H         1 RES1   0.0000
   127 C46      6.7090   4.2135  12.5796   C.3       1 RES1   0.0000
   128 H71      6.8670   3.2889  12.8965   H         1 RES1   0.0000
   129 H72      6.2029   4.7086  13.2721   H         1 RES1   0.0000
   130 C47      6.0395   4.2135  11.3897   C.3       1 RES1   0.0000
   131 H73      5.1739   4.6808  11.5160   H         1 RES1   0.0000
   132 H74      5.8380   3.2775  11.1405   H         1 RES1   0.0000
   133 S1       1.1782   8.2546  10.9449   S.o2      2 RES2   0.0000
   134 F1      -1.2079   7.6427  10.4056   F         2 RES2   0.0000
   135 F2      -0.3386   8.7394   8.9501   F         2 RES2   0.0000
   136 F3       0.3218   6.7371   9.0879   F         2 RES2   0.0000
   137 O7       0.7175   9.4764  11.5092   O.2       2 RES2   0.0000
   138 O8       2.3483   8.3011  10.1251   O.2       2 RES2   0.0000
   139 O9       1.1794   7.1483  11.8594   O.3       2 RES2  -1.0000
   140 C48     -0.1194   7.7888   9.7633   C.3       2 RES2   0.0000
   141 F4      -3.8741   8.0899  11.5075   F         3 RES3   0.0000
   142 F5      -3.7145   9.7191   9.7069   F         3 RES3   0.0000
   143 S2      -5.6568   8.9304  10.2496   S.o2      3 RES3   0.0000
   144 F6      -3.9922   7.5124   9.3302   F         3 RES3   0.0000
   145 C49     -4.1933   8.5528  10.1666   C.3       3 RES3   0.0000
   146 O10     -6.2795   9.1236   8.9982   O.2       3 RES3   0.0000
   147 O11     -5.8267   9.9843  11.3034   O.2       3 RES3   0.0000
   148 O12     -6.1900   7.4045  10.9466   O.3       3 RES3  -1.0000
   149 O13     10.3158   7.9978   3.8950   O.3       4 RES4   0.0000
   150 C50      9.5205   7.8562   2.7250   C.3       4 RES4   0.0000
   151 H75      9.3937   6.9019   2.4970   H         4 RES4   0.0000
   152 H76      8.6342   8.2791   2.8466   H         4 RES4   0.0000
   153 C51     10.2626   8.5214   1.7094   C.3       4 RES4   0.0000
   154 H77      9.6587   9.0696   1.1548   H         4 RES4   0.0000
   155 H78     10.7157   7.8605   1.1349   H         4 RES4   0.0000
   156 C52     11.1137   9.1326   3.7357   C.3       4 RES4   0.0000
   157 H79     10.6812   9.9021   4.1821   H         4 RES4   0.0000
   158 H80     11.9892   8.9791   4.1740   H         4 RES4   0.0000
   159 C53     11.3187   9.4382   2.4064   C.3       4 RES4   0.0000
   160 H81     12.2399   9.2059   2.1286   H         4 RES4   0.0000
   161 H82     11.1487  10.3920   2.2304   H         4 RES4   0.0000
   162 O14      2.6999   3.9933  10.4205   O.3       5 RES5   0.0000
   163 C54      2.2160   3.2854   9.4148   C.3       5 RES5   0.0000
   164 H83      2.9532   2.8347   8.9311   H         5 RES5   0.0000
   165 H84      1.7421   3.8781   8.7795   H         5 RES5   0.0000
   166 C55      1.2507   2.2472   9.9791   C.3       5 RES5   0.0000
   167 H85      0.4661   2.1347   9.3867   H         5 RES5   0.0000
   168 H86      1.6989   1.3708  10.0890   H         5 RES5   0.0000
   169 C56      0.8745   2.7641  11.2022   C.3       5 RES5   0.0000
   170 H87      0.8749   2.0591  11.8971   H         5 RES5   0.0000
   171 H88     -0.0301   3.1626  11.1518   H         5 RES5   0.0000
   172 C57      1.8242   3.7393  11.4926   C.3       5 RES5   0.0000
   173 H89      2.3538   3.4501  12.2776   H         5 RES5   0.0000
   174 H90      1.3607   4.5798  11.7337   H         5 RES5   0.0000
@<TRIPOS>BOND
     1     1     3    1
     2     2    29    1
     3     3     4    1
     4     4    46    1
     5     5     6    1
     6     7     5    1
     7     8     5    1
     8     9     1    1
     9    10    13    1
    10    11     5    1
    11    12    11    1
    12    13     1    1
    13    14    15    1
    14    16    11    1
    15    17    16    1
    16    18    16    1
    17    19    16    1
    18    20    21    1
    19    22     1    1
    20    23    11    1
    21    24    23   ar
    22    25    24    1
    23    26     1    1
    24    27    24   ar
    25    28    27    1
    26    29     1    1
    27    30    29    1
    28    31    27   ar
    29    32    31    1
    30    33    31   ar
    31    34    20    1
    32    35    33    1
    33    36    35    1
    34    37    35    1
    35    38    37    1
    36    39    37    1
    37    40    37    1
    38    41     9    2
    39    42    35    1
    40    43    42    1
    41    44    42    1
    42    45    42    1
    43    46    41    1
    44    47    46    1
    45    48    46    1
    46    49    48    1
    47    50    48    1
    48    51    48    1
    49    52    51    1
    50    53     4    1
    51    54    53    1
    52    55    53    1
    53    56    55    1
    54    57    55    1
    55    58    55    1
    56    59    58    1
    57    60    58    1
    58    61    51    1
    59    62    61    1
    60    63    61    1
    61    64     4    1
    62    65    64    1
    63    66    64    1
    64    67    64    1
    65    68    67    1
    66    69    67    1
    67    70    10    1
    68    71    70    1
    69    72    70    1
    70    73    10    1
    71    74    73    1
    72    75    73    1
    73    76    75    1
    74    77    75    1
    75    78    75    1
    76    79    78    1
    77    80    10    1
    78    81    80    1
    79    82    80    1
    80    83    82    1
    81    84    82    1
    82    85    82    1
    83    86    85    1
    84    87    85    1
    85    88    78    1
    86    89    88    1
    87    90    88    1
    88    91    14   am
    89    92    93    1
    90    93    94    1
    91    95    92   ar
    92    96    95    1
    93    97    95   ar
    94    98    97    1
    95    99    97   ar
    96   100    99    1
    97   101    99   ar
    98   102    14    1
    99   103    93    1
   100   104   103    1
   101   105   103    1
   102   106   103    1
   103   107    93    1
   104   108   107    1
   105   109   107    1
   106   110   107    1
   107   111   101    1
   108   112   111    1
   109   113   111    1
   110   114   113    1
   111   115   113    1
   112   116   113    1
   113   117   111    1
   114   118   117    1
   115   119   117    1
   116   120   117    1
   117   121    26    1
   118   122   121    1
   119   123   121    1
   120   124   121    1
   121   125   124    1
   122   126   124    1
   123   127   124    1
   124   128   127    1
   125   129   127    1
   126   130    26    1
   127   131   130    1
   128   132   130    1
   129    20    41   am
   130    22    91    2
   131    23    34   ar
   132    33    34   ar
   133    51    53    1
   134    58    61    1
   135    67    70    1
   136    73    91    1
   137    78    80    1
   138    85    88    1
   139    92   102   ar
   140   101   102   ar
   141   127   130    1
   142   133   137    2
   143   134   140    1
   144   135   140    1
   145   136   140    1
   146   138   133    2
   147   139   133    1
   148   140   133    1
   149   141   145    1
   150   142   145    1
   151   143   145    1
   152   144   145    1
   153   146   143    2
   154   147   143    2
   155   148   143    1
   156   149   150    1
   157   150   151    1
   158   152   150    1
   159   153   150    1
   160   154   153    1
   161   155   153    1
   162   156   149    1
   163   157   156    1
   164   158   156    1
   165   159   153    1
   166   160   159    1
   167   161   159    1
   168   156   159    1
   169   162   163    1
   170   163   164    1
   171   165   163    1
   172   166   163    1
   173   167   166    1
   174   168   166    1
   175   169   166    1
   176   170   169    1
   177   171   169    1
   178   172   162    1
   179   173   172    1
   180   174   172    1
   181   169   172    1
@<TRIPOS>SUBSTRUCTURE
     1 RES1        1 GROUP             0 ****  ****    0  
     2 RES2      133 GROUP             0 ****  ****    0  
     3 RES3      141 GROUP             0 ****  ****    0  
     4 RES4      149 GROUP             0 ****  ****    0  
     5 RES5      162 GROUP             0 ****  ****    0  
@<TRIPOS>CRYSIN
   25.9484   25.9484   16.5958   90.0000   90.0000  120.0000   173     1
