@<TRIPOS>MOLECULE
GOCVUR
   294   368     1     0     0
SMALL
NO_CHARGES
****
Generated from the CSD

@<TRIPOS>ATOM
     1 Fe1      6.5052   8.7474  20.5659   Fe        1 RES1   0.0000
     2 Fe2      3.1318   7.9205  17.4689   Fe        1 RES1   0.0000
     3 Fe3      3.4144  10.8569  16.3685   Fe        1 RES1   0.0000
     4 Fe4      5.8086   9.0614  17.2517   Fe        1 RES1   0.0000
     5 Fe5      3.3625   7.3978  20.8609   Fe        1 RES1   0.0000
     6 Fe6      4.3214   8.3634  14.6161   Fe        1 RES1   0.0000
     7 Gd1      3.6845  10.7576  20.1831   Gd        1 RES1   0.0000
     8 Gd2      4.9511   8.7926  23.6507   Gd        1 RES1   0.0000
     9 O1       4.2447  12.5919  16.7559   O.co2     1 RES1   0.0000
    10 O2       1.6938  11.4903  19.0947   O.co2     1 RES1   0.0000
    11 O3       4.3209  12.6421  18.9832   O.co2     1 RES1   0.0000
    12 O4       1.6158  11.3815  16.8554   O.co2     1 RES1   0.0000
    13 O5       3.0833  11.4568  14.4589   O.co2     1 RES1   0.0000
    14 O6       3.6865   9.7193  13.2307   O.co2     1 RES1   0.0000
    15 O7       4.7638   5.9320  26.2863   O.co2     1 RES1   0.0000
    16 O8       3.2717   6.9918  13.7343   O.co2     1 RES1   0.0000
    17 O9       2.6716   8.9914  15.7288   O.3       1 RES1   0.0000
    18 O10      5.1563  10.0317  15.5596   O.3       1 RES1   0.0000
    19 O11      3.9872   9.7249  17.8865   O.3       1 RES1   0.0000
    20 O12      1.2761   8.4559  18.2328   O.co2     1 RES1   0.0000
    21 O13      2.0884   8.9161  20.2631   O.co2     1 RES1   0.0000
    22 O14      2.0551   6.3057  16.7141   O.co2     1 RES1   0.0000
    23 O15      7.5540   8.6791  16.2244   O.co2     1 RES1   0.0000
    24 O16      6.7839  10.8098  17.7710   O.co2     1 RES1   0.0000
    25 O17      6.1439  10.6843  19.9207   O.co2     1 RES1   0.0000
    26 O18      6.3161   8.1771  18.7543   O.3       1 RES1   0.0000
    27 O19      8.4766   9.3428  20.1835   O.co2     1 RES1   0.0000
    28 O20      3.6227   7.0364  18.9892   O.3       1 RES1   0.0000
    29 O21      4.6670   8.8269  21.2424   O.3       1 RES1   0.0000
    30 O22      3.6171   4.8164  17.2794   O.co2     1 RES1   0.0000
    31 O23      4.6817  12.0034  21.8973   O.co2     1 RES1   0.0000
    32 O24      5.5306  11.1361  23.7763   O.co2     1 RES1   0.0000
    33 O25      2.1497  11.0998  21.9789   O.co2     1 RES1   0.0000
    34 O26      9.0984   7.6053  18.8917   O.co2     1 RES1   0.0000
    35 O27      7.6419   6.5260  16.8614   O.co2     1 RES1   0.0000
    36 O28      4.7848   7.5133  16.3319   O.3       1 RES1   0.0000
    37 O29      4.0413   5.0340  14.4668   O.co2     1 RES1   0.0000
    38 O30      3.9933   7.8982  25.6195   O.co2     1 RES1   0.0000
    39 O31      3.0160  10.0986  23.7763   O.co2     1 RES1   0.0000
    40 C1       4.0410   6.9555  26.4137   C.2       1 RES1   0.0000
    41 C2       3.1895   6.9667  27.5742   C.2       1 RES1   0.0000
    42 C3       3.2739   6.0491  28.6430   C.2       1 RES1   0.0000
    43 H1       3.8629   5.3296  28.6032   H         1 RES1   0.0000
    44 C4       2.3974   6.2583  29.8154   C.2       1 RES1   0.0000
    45 H2       2.3922   5.8176  30.6335   H         1 RES1   0.0000
    46 C5       2.1828   7.8508  27.8329   C.2       1 RES1   0.0000
    47 H3       1.9751   8.5563  27.2636   H         1 RES1   0.0000
    48 C6       2.1669  10.8209  23.1792   C.2       1 RES1   0.0000
    49 C7       1.1057  11.4680  24.0172   C.2       1 RES1   0.0000
    50 C8       1.0543  11.3118  25.3906   C.2       1 RES1   0.0000
    51 H4       1.6451  10.8098  25.9021   H         1 RES1   0.0000
    52 C9      -0.8969  12.6895  24.6581   C.2       1 RES1   0.0000
    53 H5      -1.6732  13.1971  24.5586   H         1 RES1   0.0000
    54 C10      0.0431  12.1652  23.5315   C.2       1 RES1   0.0000
    55 H6      -0.1056  12.3158  22.6238   H         1 RES1   0.0000
    56 C11      1.1042   8.7265  19.4530   C.2       1 RES1   0.0000
    57 C12     -0.2932   8.7683  19.9844   C.2       1 RES1   0.0000
    58 C13     -0.5955   9.1141  21.2305   C.2       1 RES1   0.0000
    59 H7       0.0285   9.3484  21.8794   H         1 RES1   0.0000
    60 C14     -2.6817   8.6038  20.0282   C.2       1 RES1   0.0000
    61 H8      -3.5473   8.4448  19.7317   H         1 RES1   0.0000
    62 C15     -1.4080   8.4810  19.2599   C.2       1 RES1   0.0000
    63 H9      -1.3771   8.2300  18.3662   H         1 RES1   0.0000
    64 C16      1.0979  11.5851  18.0059   C.2       1 RES1   0.0000
    65 C17     -0.3452  11.8807  17.9800   C.2       1 RES1   0.0000
    66 C18     -1.0971  12.1735  19.0967   C.2       1 RES1   0.0000
    67 H10     -0.7443  12.2461  19.9546   H         1 RES1   0.0000
    68 C19     -2.6719  12.3799  18.7404   C.2       1 RES1   0.0000
    69 H11     -3.3973  12.5807  19.2898   H         1 RES1   0.0000
    70 C20     -1.0640  11.8723  16.8176   C.2       1 RES1   0.0000
    71 H12     -0.7253  11.7357  15.9617   H         1 RES1   0.0000
    72 C21      2.4041   5.1232  16.8693   C.2       1 RES1   0.0000
    73 C22      1.4637   4.0327  16.6066   C.2       1 RES1   0.0000
    74 C23      0.1097   4.1387  16.5807   C.2       1 RES1   0.0000
    75 H13     -0.3516   4.9391  16.6763   H         1 RES1   0.0000
    76 C24     -0.5634   2.7861  16.3737   C.2       1 RES1   0.0000
    77 H14     -1.4773   2.6076  16.3976   H         1 RES1   0.0000
    78 C25      1.8622   2.7610  16.4294   C.2       1 RES1   0.0000
    79 H15      2.7455   2.4654  16.4712   H         1 RES1   0.0000
    80 C26      3.2606   5.7228  13.7841   C.2       1 RES1   0.0000
    81 C27      2.2297   5.0674  12.9660   C.2       1 RES1   0.0000
    82 C28      1.2385   5.7200  12.2236   C.2       1 RES1   0.0000
    83 H16      1.1752   6.6459  12.2036   H         1 RES1   0.0000
    84 C29      0.3393   4.9029  11.5090   C.2       1 RES1   0.0000
    85 H17     -0.3849   5.1790  10.9954   H         1 RES1   0.0000
    86 C30      2.1143   3.7288  12.7630   C.2       1 RES1   0.0000
    87 H18      2.6868   3.0985  13.1372   H         1 RES1   0.0000
    88 C31      3.3038  10.8962  13.3701   C.2       1 RES1   0.0000
    89 C32      3.1288  11.6715  12.1459   C.2       1 RES1   0.0000
    90 C33      3.2131  11.1221  10.9118   C.2       1 RES1   0.0000
    91 H19      3.3679  10.2213  10.7367   H         1 RES1   0.0000
    92 C34      2.8230  13.6266  10.7526   C.2       1 RES1   0.0000
    93 H20      2.7014  14.5190  10.5237   H         1 RES1   0.0000
    94 C35      2.8990  13.0632  12.1001   C.2       1 RES1   0.0000
    95 H21      2.8042  13.5819  12.8665   H         1 RES1   0.0000
    96 C36      8.1152   7.5635  16.2523   C.2       1 RES1   0.0000
    97 C37      9.4046   7.4324  15.5317   C.2       1 RES1   0.0000
    98 C38     10.0554   6.2471  15.4123   C.2       1 RES1   0.0000
    99 H22      9.7572   5.4384  15.7666   H         1 RES1   0.0000
   100 C39     11.4553   7.9846  14.2877   C.2       1 RES1   0.0000
   101 H23     12.1003   8.4950  13.8538   H         1 RES1   0.0000
   102 C40     10.0928   8.4587  14.9406   C.2       1 RES1   0.0000
   103 H24      9.7944   9.3372  14.9266   H         1 RES1   0.0000
   104 C41      9.2834   8.7237  19.4231   C.2       1 RES1   0.0000
   105 C42     10.5922   9.3958  19.1425   C.2       1 RES1   0.0000
   106 C43     11.5507   8.8882  18.3224   C.2       1 RES1   0.0000
   107 H25     11.4826   8.0516  17.9223   H         1 RES1   0.0000
   108 C44     12.3227  11.1417  19.0609   C.2       1 RES1   0.0000
   109 H26     12.7588  11.9449  19.2340   H         1 RES1   0.0000
   110 C45     10.9410  10.6424  19.5844   C.2       1 RES1   0.0000
   111 H27     10.3982  11.1472  20.1477   H         1 RES1   0.0000
   112 C46      6.8187  11.2225  18.9454   C.2       1 RES1   0.0000
   113 C47      7.6831  12.3465  19.2818   C.2       1 RES1   0.0000
   114 C48      8.4794  12.9572  18.3085   C.2       1 RES1   0.0000
   115 H28      8.5227  12.7174  17.4107   H         1 RES1   0.0000
   116 C49      8.8713  14.1537  20.4701   C.2       1 RES1   0.0000
   117 H29      9.1281  14.7142  21.1668   H         1 RES1   0.0000
   118 C50      7.8435  12.9321  20.5040   C.2       1 RES1   0.0000
   119 H30      7.4041  12.6505  21.2723   H         1 RES1   0.0000
   120 C51      4.4509  13.1469  17.8526   C.2       1 RES1   0.0000
   121 C52      5.0133  14.5302  17.8108   C.2       1 RES1   0.0000
   122 C53      5.1577  15.3529  16.7121   C.2       1 RES1   0.0000
   123 H31      4.9229  15.0573  15.8622   H         1 RES1   0.0000
   124 C54      5.6970  16.7306  16.9211   C.2       1 RES1   0.0000
   125 H32      5.8515  17.3999  16.2941   H         1 RES1   0.0000
   126 C55      5.3684  15.2246  18.9315   C.2       1 RES1   0.0000
   127 H33      5.2877  14.8732  19.7894   H         1 RES1   0.0000
   128 C56      5.2505  12.1094  22.9901   C.2       1 RES1   0.0000
   129 C57      5.6568  13.4509  23.3921   C.2       1 RES1   0.0000
   130 C58      5.2939  14.5915  22.6875   C.2       1 RES1   0.0000
   131 H34      4.7332  14.5859  21.9451   H         1 RES1   0.0000
   132 C59      6.7596  15.3947  24.5446   C.2       1 RES1   0.0000
   133 H35      7.2328  15.8716  25.1876   H         1 RES1   0.0000
   134 C60      6.5522  13.7855  24.4272   C.2       1 RES1   0.0000
   135 H36      6.9760  13.1608  24.9746   H         1 RES1   0.0000
   136 S1       1.3707   7.5691  29.2422   S.3       1 RES1   0.0000
   137 S2      -0.2660  12.1847  25.9798   S.3       1 RES1   0.0000
   138 S3      -2.2095   9.0723  21.4773   S.3       1 RES1   0.0000
   139 S4      -2.6033  12.1429  17.2017   S.3       1 RES1   0.0000
   140 S5       0.5406   1.7933  16.1209   S.3       1 RES1   0.0000
   141 S6       0.8401   3.3467  11.7737   S.3       1 RES1   0.0000
   142 S7       2.9934  12.3381   9.7175   S.3       1 RES1   0.0000
   143 S8      11.4427   6.4396  14.5504   S.3       1 RES1   0.0000
   144 S9      12.8111   9.8588  18.1074   S.3       1 RES1   0.0000
   145 S10      9.3313  14.1676  19.0210   S.3       1 RES1   0.0000
   146 S11      5.9545  16.7501  18.6349   S.3       1 RES1   0.0000
   147 S12      5.9630  15.9497  23.3026   S.3       1 RES1   0.0000
   148 Fe1F     4.1827   5.1971  19.2438   Fe        1 RES1   0.0000
   149 Fe2F     7.5561   6.0240  22.3408   Fe        1 RES1   0.0000
   150 Fe3F     7.2735   3.0876  23.4411   Fe        1 RES1   0.0000
   151 Fe4F     4.8794   4.8831  22.5579   Fe        1 RES1   0.0000
   152 Fe5F     7.3254   6.5467  18.9488   Fe        1 RES1   0.0000
   153 Fe6F     6.3665   5.5811  25.1935   Fe        1 RES1   0.0000
   154 Gd1F     7.0035   3.1869  19.6266   Gd        1 RES1   0.0000
   155 Gd2F     5.7368   5.1519  16.1589   Gd        1 RES1   0.0000
   156 O1F      6.4432   1.3526  23.0538   O.co2     1 RES1   0.0000
   157 O2F      8.9941   2.4542  20.7149   O.co2     1 RES1   0.0000
   158 O3F      6.3670   1.3024  20.8264   O.co2     1 RES1   0.0000
   159 O4F      9.0721   2.5630  22.9542   O.co2     1 RES1   0.0000
   160 O5F      7.6047   2.4877  25.3508   O.co2     1 RES1   0.0000
   161 O6F      7.0015   4.2252  26.5789   O.co2     1 RES1   0.0000
   162 O7F      5.9241   8.0125  13.5233   O.co2     1 RES1   0.0000
   163 O8F      7.4162   6.9527  26.0753   O.co2     1 RES1   0.0000
   164 O9F      8.0163   4.9531  24.0809   O.3       1 RES1   0.0000
   165 O10F     5.5316   3.9128  24.2500   O.3       1 RES1   0.0000
   166 O11F     6.7008   4.2196  21.9232   O.3       1 RES1   0.0000
   167 O12F     9.4118   5.4886  21.5768   O.co2     1 RES1   0.0000
   168 O13F     8.5996   5.0284  19.5465   O.co2     1 RES1   0.0000
   169 O14F     8.6328   7.6388  23.0956   O.co2     1 RES1   0.0000
   170 O15F     3.1339   5.2654  23.5852   O.co2     1 RES1   0.0000
   171 O16F     3.9040   3.1347  22.0386   O.co2     1 RES1   0.0000
   172 O17F     4.5441   3.2602  19.8889   O.co2     1 RES1   0.0000
   173 O18F     4.3718   5.7674  21.0553   O.3       1 RES1   0.0000
   174 O19F     2.2113   4.6017  19.6262   O.co2     1 RES1   0.0000
   175 O20F     7.0653   6.9081  20.8204   O.3       1 RES1   0.0000
   176 O21F     6.0210   5.1176  18.5672   O.3       1 RES1   0.0000
   177 O22F     7.0708   9.1281  22.5303   O.co2     1 RES1   0.0000
   178 O23F     6.0062   1.9411  17.9123   O.co2     1 RES1   0.0000
   179 O24F     5.1574   2.8084  16.0333   O.co2     1 RES1   0.0000
   180 O25F     8.5382   2.8447  17.8307   O.co2     1 RES1   0.0000
   181 O26F     1.5895   6.3392  20.9180   O.co2     1 RES1   0.0000
   182 O27F     3.0460   7.4185  22.9483   O.co2     1 RES1   0.0000
   183 O28F     5.9032   6.4312  23.4777   O.3       1 RES1   0.0000
   184 O29F     6.6466   8.9105  25.3428   O.co2     1 RES1   0.0000
   185 O30F     6.6946   6.0463  14.1901   O.co2     1 RES1   0.0000
   186 O31F     7.6719   3.8459  16.0333   O.co2     1 RES1   0.0000
   187 C1F      6.6469   6.9890  13.3959   C.2       1 RES1   0.0000
   188 C2F      7.4984   6.9778  12.2355   C.2       1 RES1   0.0000
   189 C3F      7.4141   7.8954  11.1666   C.2       1 RES1   0.0000
   190 H1F      6.8250   8.6149  11.2064   H         1 RES1   0.0000
   191 C4F      8.2905   7.6862   9.9942   C.2       1 RES1   0.0000
   192 H2F      8.2958   8.1269   9.1761   H         1 RES1   0.0000
   193 C5F      8.5051   6.0937  11.9767   C.2       1 RES1   0.0000
   194 H3F      8.7129   5.3882  12.5460   H         1 RES1   0.0000
   195 C6F      8.5210   3.1236  16.6305   C.2       1 RES1   0.0000
   196 C7F      9.5823   2.4765  15.7925   C.2       1 RES1   0.0000
   197 C8F      9.6336   2.6327  14.4191   C.2       1 RES1   0.0000
   198 H4F      9.0428   3.1347  13.9075   H         1 RES1   0.0000
   199 C9F     11.5848   1.2550  15.1516   C.2       1 RES1   0.0000
   200 H5F     12.3612   0.7474  15.2511   H         1 RES1   0.0000
   201 C10F    10.6449   1.7793  16.2782   C.2       1 RES1   0.0000
   202 H6F     10.7935   1.6287  17.1858   H         1 RES1   0.0000
   203 C11F     9.5837   5.2180  20.3567   C.2       1 RES1   0.0000
   204 C12F    10.9811   5.1762  19.8252   C.2       1 RES1   0.0000
   205 C13F    11.2834   4.8304  18.5792   C.2       1 RES1   0.0000
   206 H7F     10.6594   4.5961  17.9303   H         1 RES1   0.0000
   207 C14F    13.3696   5.3407  19.7814   C.2       1 RES1   0.0000
   208 H8F     14.2353   5.4997  20.0780   H         1 RES1   0.0000
   209 C15F    12.0960   5.4635  20.5497   C.2       1 RES1   0.0000
   210 H9F     12.0650   5.7145  21.4435   H         1 RES1   0.0000
   211 C16F     9.5900   2.3594  21.8037   C.2       1 RES1   0.0000
   212 C17F    11.0331   2.0638  21.8296   C.2       1 RES1   0.0000
   213 C18F    11.7850   1.7710  20.7130   C.2       1 RES1   0.0000
   214 H10F    11.4322   1.6984  19.8551   H         1 RES1   0.0000
   215 C19F    13.3599   1.5646  21.0693   C.2       1 RES1   0.0000
   216 H11F    14.0852   1.3638  20.5199   H         1 RES1   0.0000
   217 C20F    11.7519   2.0722  22.9921   C.2       1 RES1   0.0000
   218 H12F    11.4132   2.2088  23.8480   H         1 RES1   0.0000
   219 C21F     8.2838   8.8213  22.9403   C.2       1 RES1   0.0000
   220 C22F     9.2242   9.9118  23.2031   C.2       1 RES1   0.0000
   221 C23F    10.5783   9.8058  23.2289   C.2       1 RES1   0.0000
   222 H13F    11.0395   9.0054  23.1334   H         1 RES1   0.0000
   223 C24F    11.2514  11.1584  23.4359   C.2       1 RES1   0.0000
   224 H14F    12.1653  11.3369  23.4121   H         1 RES1   0.0000
   225 C25F     8.8257  11.1835  23.3802   C.2       1 RES1   0.0000
   226 H15F     7.9424  11.4791  23.3384   H         1 RES1   0.0000
   227 C26F     7.4274   8.2217  26.0256   C.2       1 RES1   0.0000
   228 C27F     8.4582   8.8771  26.8436   C.2       1 RES1   0.0000
   229 C28F     9.4495   8.2245  27.5861   C.2       1 RES1   0.0000
   230 H16F     9.5127   7.2986  27.6060   H         1 RES1   0.0000
   231 C29F    10.3486   9.0416  28.3007   C.2       1 RES1   0.0000
   232 H17F    11.0729   8.7655  28.8142   H         1 RES1   0.0000
   233 C30F     8.5736  10.2157  27.0467   C.2       1 RES1   0.0000
   234 H18F     8.0011  10.8460  26.6725   H         1 RES1   0.0000
   235 C31F     7.3841   3.0483  26.4396   C.2       1 RES1   0.0000
   236 C32F     7.5592   2.2730  27.6637   C.2       1 RES1   0.0000
   237 C33F     7.4749   2.8224  28.8978   C.2       1 RES1   0.0000
   238 H19F     7.3200   3.7232  29.0730   H         1 RES1   0.0000
   239 C34F     7.8650   0.3179  29.0571   C.2       1 RES1   0.0000
   240 H20F     7.9865  -0.5745  29.2860   H         1 RES1   0.0000
   241 C35F     7.7889   0.8813  27.7095   C.2       1 RES1   0.0000
   242 H21F     7.8838   0.3626  26.9432   H         1 RES1   0.0000
   243 C36F     2.5728   6.3810  23.5574   C.2       1 RES1   0.0000
   244 C37F     1.2833   6.5121  24.2779   C.2       1 RES1   0.0000
   245 C38F     0.6325   7.6974  24.3973   C.2       1 RES1   0.0000
   246 H22F     0.9308   8.5061  24.0430   H         1 RES1   0.0000
   247 C39F    -0.7674   5.9599  25.5220   C.2       1 RES1   0.0000
   248 H23F    -1.4124   5.4495  25.9559   H         1 RES1   0.0000
   249 C40F     0.5952   5.4858  24.8691   C.2       1 RES1   0.0000
   250 H24F     0.8936   4.6073  24.8830   H         1 RES1   0.0000
   251 C41F     1.4046   5.2208  20.3865   C.2       1 RES1   0.0000
   252 C42F     0.0957   4.5487  20.6672   C.2       1 RES1   0.0000
   253 C43F    -0.8627   5.0563  21.4873   C.2       1 RES1   0.0000
   254 H25F    -0.7947   5.8929  21.8873   H         1 RES1   0.0000
   255 C44F    -1.6347   2.8028  20.7488   C.2       1 RES1   0.0000
   256 H26F    -2.0709   1.9996  20.5756   H         1 RES1   0.0000
   257 C45F    -0.2530   3.3021  20.2253   C.2       1 RES1   0.0000
   258 H27F     0.2897   2.7973  19.6620   H         1 RES1   0.0000
   259 C46F     3.8693   2.7220  20.8642   C.2       1 RES1   0.0000
   260 C47F     3.0048   1.5980  20.5278   C.2       1 RES1   0.0000
   261 C48F     2.2085   0.9873  21.5012   C.2       1 RES1   0.0000
   262 H28F     2.1653   1.2271  22.3989   H         1 RES1   0.0000
   263 C49F     1.8167  -0.2092  19.3395   C.2       1 RES1   0.0000
   264 H29F     1.5599  -0.7697  18.6429   H         1 RES1   0.0000
   265 C50F     2.8444   1.0124  19.3057   C.2       1 RES1   0.0000
   266 H30F     3.2839   1.2940  18.5374   H         1 RES1   0.0000
   267 C51F     6.2371   0.7976  21.9570   C.2       1 RES1   0.0000
   268 C52F     5.6746  -0.5857  21.9988   C.2       1 RES1   0.0000
   269 C53F     5.5302  -1.4084  23.0976   C.2       1 RES1   0.0000
   270 H31F     5.7651  -1.1128  23.9475   H         1 RES1   0.0000
   271 C54F     4.9909  -2.7861  22.8886   C.2       1 RES1   0.0000
   272 H32F     4.8364  -3.4554  23.5156   H         1 RES1   0.0000
   273 C55F     5.3195  -1.2801  20.8782   C.2       1 RES1   0.0000
   274 H33F     5.4002  -0.9287  20.0203   H         1 RES1   0.0000
   275 C56F     5.4375   1.8351  16.8196   C.2       1 RES1   0.0000
   276 C57F     5.0312   0.4936  16.4175   C.2       1 RES1   0.0000
   277 C58F     5.3940  -0.6470  17.1221   C.2       1 RES1   0.0000
   278 H34F     5.9548  -0.6414  17.8646   H         1 RES1   0.0000
   279 C59F     3.9283  -1.4502  15.2650   C.2       1 RES1   0.0000
   280 H35F     3.4551  -1.9271  14.6221   H         1 RES1   0.0000
   281 C60F     4.1358   0.1590  15.3824   C.2       1 RES1   0.0000
   282 H36F     3.7120   0.7837  14.8351   H         1 RES1   0.0000
   283 S1F      9.3173   6.3754  10.5675   S.3       1 RES1   0.0000
   284 S2F     10.9539   1.7598  13.8299   S.3       1 RES1   0.0000
   285 S3F     12.8975   4.8722  18.3323   S.3       1 RES1   0.0000
   286 S4F     13.2913   1.8016  22.6079   S.3       1 RES1   0.0000
   287 S5F     10.1473  12.1512  23.6887   S.3       1 RES1   0.0000
   288 S6F      9.8478  10.5978  28.0359   S.3       1 RES1   0.0000
   289 S7F      7.6946   1.6064  30.0921   S.3       1 RES1   0.0000
   290 S8F     -0.7548   7.5049  25.2592   S.3       1 RES1   0.0000
   291 S9F     -2.1232   4.0857  21.7022   S.3       1 RES1   0.0000
   292 S10F     1.3566  -0.2231  20.7886   S.3       1 RES1   0.0000
   293 S11F     4.7334  -2.8056  21.1747   S.3       1 RES1   0.0000
   294 S12F     4.7249  -2.0052  16.5071   S.3       1 RES1   0.0000
@<TRIPOS>BOND
     1     1    25    1
     2     2    17    1
     3     3     9    1
     4     4    18    1
     5     5    21    1
     6     6    14    1
     7     7    10    1
     8     8    29    1
     9     9   120   un
    10    10    64   un
    11    11     7    1
    12    12     3    1
    13    13     3    1
    14    14    88   un
    15    15    40   un
    16    16     6    1
    17    17     3    1
    18    18     3    1
    19    19     2    1
    20    20     2    1
    21    21     7    1
    22    22     2    1
    23    23     4    1
    24    24     4    1
    25    25     7    1
    26    26     1    1
    27    27     1    1
    28    28     2    1
    29    29     1    1
    30    30    72   un
    31    31     7    1
    32    32     8    1
    33    33     7    1
    34    34   104   un
    35    35    96   un
    36    36     2    1
    37    37    80   un
    38    38     8    1
    39    39     8    1
    40    40    38   un
    41    41    40    1
    42    42    41    1
    43    43    42    1
    44    44    42    2
    45    45    44    1
    46    46    41    2
    47    47    46    1
    48    48    33   un
    49    49    48    1
    50    50    49    2
    51    51    50    1
    52    52    53    1
    53    54    49    1
    54    55    54    1
    55    56    20   un
    56    57    56    1
    57    58    57    2
    58    59    58    1
    59    60    61    1
    60    62    57    1
    61    63    62    1
    62    64    12   un
    63    65    64    1
    64    66    65    1
    65    67    66    1
    66    68    66    2
    67    69    68    1
    68    70    65    2
    69    71    70    1
    70    72    22   un
    71    73    72    1
    72    74    73    1
    73    75    74    1
    74    76    74    2
    75    77    76    1
    76    78    73    2
    77    79    78    1
    78    80    16   un
    79    81    80    1
    80    82    81    1
    81    83    82    1
    82    84    82    2
    83    85    84    1
    84    86    81    2
    85    87    86    1
    86    88    13   un
    87    89    88    1
    88    90    89    2
    89    91    90    1
    90    92    93    1
    91    94    89    1
    92    95    94    1
    93    96    23   un
    94    97    96    1
    95    98    97    2
    96    99    98    1
    97   100   101    1
    98   102    97    1
    99   103   102    1
   100   104    27   un
   101   105   104    1
   102   106   105    2
   103   107   106    1
   104   108   109    1
   105   110   105    1
   106   111   110    1
   107   112    24   un
   108   113   112    1
   109   114   113    2
   110   115   114    1
   111   116   117    1
   112   118   113    1
   113   119   118    1
   114   120    11   un
   115   121   120    1
   116   122   121    1
   117   123   122    1
   118   124   122    2
   119   125   124    1
   120   126   121    2
   121   127   126    1
   122   128    31   un
   123   129   128    1
   124   130   129    2
   125   131   130    1
   126   132   133    1
   127   134   129    1
   128   135   134    1
   129   136    44    1
   130   137    50    1
   131   138    58    1
   132   139    68    1
   133   140    76    1
   134   141    84    1
   135   142    90    1
   136   143    98    1
   137   144   106    1
   138   145   114    1
   139   146   124    1
   140   147   130    1
   141   148    28    1
   142   149   164    1
   143   150   156    1
   144   151   165    1
   145   152    26    1
   146   153    15    1
   147   154   157    1
   148   155    30    1
   149   156   267   un
   150   157   211   un
   151   158   154    1
   152   159   150    1
   153   160   150    1
   154   161   153    1
   155   162     6    1
   156   163   153    1
   157   164   150    1
   158   165   150    1
   159   166   149    1
   160   167   149    1
   161   168   152    1
   162   169   149    1
   163   170   151    1
   164   171   151    1
   165   172   148    1
   166   173     5    1
   167   174   148    1
   168   175     1    1
   169   176   148    1
   170   177     1    1
   171   178   154    1
   172   179   155    1
   173   180   154    1
   174   181     5    1
   175   182     5    1
   176   183     8    1
   177   184     8    1
   178   185   155    1
   179   186   155    1
   180   187   162   un
   181   188   187    1
   182   189   188    1
   183   190   189    1
   184   191   189    2
   185   192   191    1
   186   193   188    2
   187   194   193    1
   188   195   180   un
   189   196   195    1
   190   197   196    2
   191   198   197    1
   192   199   200    1
   193   201   196    1
   194   202   201    1
   195   203   167   un
   196   204   203    1
   197   205   204    2
   198   206   205    1
   199   207   208    1
   200   209   204    1
   201   210   209    1
   202   211   159   un
   203   212   211    1
   204   213   212    1
   205   214   213    1
   206   215   213    2
   207   216   215    1
   208   217   212    2
   209   218   217    1
   210   219   169   un
   211   220   219    1
   212   221   220    1
   213   222   221    1
   214   223   221    2
   215   224   223    1
   216   225   220    2
   217   226   225    1
   218   227   163   un
   219   228   227    1
   220   229   228    1
   221   230   229    1
   222   231   229    2
   223   232   231    1
   224   233   228    2
   225   234   233    1
   226   235   160   un
   227   236   235    1
   228   237   236    2
   229   238   237    1
   230   239   240    1
   231   241   236    1
   232   242   241    1
   233   243   170   un
   234   244   243    1
   235   245   244    2
   236   246   245    1
   237   247   248    1
   238   249   244    1
   239   250   249    1
   240   251   174   un
   241   252   251    1
   242   253   252    2
   243   254   253    1
   244   255   256    1
   245   257   252    1
   246   258   257    1
   247   259   171   un
   248   260   259    1
   249   261   260    2
   250   262   261    1
   251   263   264    1
   252   265   260    1
   253   266   265    1
   254   267   158   un
   255   268   267    1
   256   269   268    1
   257   270   269    1
   258   271   269    2
   259   272   271    1
   260   273   268    2
   261   274   273    1
   262   275   178   un
   263   276   275    1
   264   277   276    2
   265   278   277    1
   266   279   280    1
   267   281   276    1
   268   282   281    1
   269   283   191    1
   270   284   197    1
   271   285   205    1
   272   286   215    1
   273   287   223    1
   274   288   231    1
   275   289   237    1
   276   290   245    1
   277   291   253    1
   278   292   261    1
   279   293   271    1
   280   294   277    1
   281     3    19    1
   282     4    19    1
   283     4    26    1
   284     4    36    1
   285     5    28    1
   286     5    29    1
   287     6    17    1
   288     6    18    1
   289     6    36    1
   290     7    19    1
   291     7    29    1
   292     8   177    1
   293     8   182    1
   294    21    56   un
   295    25   112   un
   296    30   148    1
   297    32   128   un
   298    34   152    1
   299    35   152    1
   300    35   155    1
   301    36   155    1
   302    37   155    1
   303    39    48   un
   304    46   136    1
   305    52    54    2
   306    52   137    1
   307    60    62    2
   308    60   138    1
   309    70   139    1
   310    78   140    1
   311    86   141    1
   312    92    94    2
   313    92   142    1
   314   100   102    2
   315   100   143    1
   316   108   110    2
   317   108   144    1
   318   116   118    2
   319   116   145    1
   320   126   146    1
   321   132   134    2
   322   132   147    1
   323   148   173    1
   324   149   175    1
   325   149   183    1
   326   150   166    1
   327   151   166    1
   328   151   173    1
   329   151   183    1
   330   152   175    1
   331   152   176    1
   332   153   164    1
   333   153   165    1
   334   153   183    1
   335   154   166    1
   336   154   168    1
   337   154   172    1
   338   154   176    1
   339   155   176    1
   340   161   235   un
   341   168   203   un
   342   172   259   un
   343   177   219   un
   344   179   275   un
   345   181   251   un
   346   182   243   un
   347   184   227   un
   348   185   187   un
   349   186   195   un
   350   193   283    1
   351   199   201    2
   352   199   284    1
   353   207   209    2
   354   207   285    1
   355   217   286    1
   356   225   287    1
   357   233   288    1
   358   239   241    2
   359   239   289    1
   360   247   249    2
   361   247   290    1
   362   255   257    2
   363   255   291    1
   364   263   265    2
   365   263   292    1
   366   273   293    1
   367   279   281    2
   368   279   294    1
@<TRIPOS>SUBSTRUCTURE
     1 RES1        1 GROUP             0 ****  ****    0  
@<TRIPOS>CRYSIN
   29.6880   27.8890   20.0130   90.0000   95.9600   90.0000    15     1
