@<TRIPOS>MOLECULE
GOCVOL
   294   368     1     0     0
SMALL
NO_CHARGES
****
Generated from the CSD

@<TRIPOS>ATOM
     1 C1       4.2902  17.0122   3.3573   C.2       1 RES1   0.0000
     2 C2       4.1463  16.2273   2.1251   C.2       1 RES1   0.0000
     3 C3       3.9046  14.8280   2.0854   C.2       1 RES1   0.0000
     4 H1       3.8048  14.3113   2.8533   H         1 RES1   0.0000
     5 C4       3.8280  14.2946   0.8056   C.2       1 RES1   0.0000
     6 H2       3.6971  13.4008   0.5893   H         1 RES1   0.0000
     7 C5       4.2397  16.7664   0.8909   C.2       1 RES1   0.0000
     8 H3       4.4069  17.6629   0.7123   H         1 RES1   0.0000
     9 C6       2.1440  16.3335   8.0241   C.2       1 RES1   0.0000
    10 C7       0.6703  16.0123   8.0618   C.2       1 RES1   0.0000
    11 C8      -0.1347  16.0123   6.8891   C.2       1 RES1   0.0000
    12 H4       0.2079  16.1715   6.0399   H         1 RES1   0.0000
    13 C9      -1.5786  15.7330   7.1471   C.2       1 RES1   0.0000
    14 H5      -2.2712  15.6939   6.5300   H         1 RES1   0.0000
    15 C10     -0.0694  15.7609   9.1611   C.2       1 RES1   0.0000
    16 H6       0.2644  15.7274  10.0301   H         1 RES1   0.0000
    17 C11      2.0918  19.2186   9.4825   C.2       1 RES1   0.0000
    18 C12      0.7482  19.1656   9.9944   C.2       1 RES1   0.0000
    19 C13     -0.4112  19.4225   9.2821   C.2       1 RES1   0.0000
    20 H7      -0.3947  19.6404   8.3793   H         1 RES1   0.0000
    21 C14     -1.6899  19.3304  10.0460   C.2       1 RES1   0.0000
    22 H8      -2.5525  19.5091   9.7444   H         1 RES1   0.0000
    23 C15      0.4104  18.7857  11.2425   C.2       1 RES1   0.0000
    24 H9       1.0230  18.5148  11.8874   H         1 RES1   0.0000
    25 C16      3.2141  17.0932  13.1771   C.2       1 RES1   0.0000
    26 C17      2.1180  16.5038  14.0065   C.2       1 RES1   0.0000
    27 C18      1.0068  15.7721  13.4807   C.2       1 RES1   0.0000
    28 H10      0.8819  15.6240  12.5699   H         1 RES1   0.0000
    29 C19      0.0910  15.2749  14.5085   C.2       1 RES1   0.0000
    30 H11     -0.6770  14.7694  14.3755   H         1 RES1   0.0000
    31 C20      2.0064  16.6239  15.3557   C.2       1 RES1   0.0000
    32 H12      2.5856  17.1099  15.8974   H         1 RES1   0.0000
    33 C21      5.0219  20.9447  16.4173   C.2       1 RES1   0.0000
    34 C22      4.1457  20.9475  17.5741   C.2       1 RES1   0.0000
    35 C23      4.1651  21.9446  18.5285   C.2       1 RES1   0.0000
    36 H13      4.7628  22.6540  18.4809   H         1 RES1   0.0000
    37 C24      3.1626  21.8217  19.6476   C.2       1 RES1   0.0000
    38 H14      3.0285  22.3859  20.3758   H         1 RES1   0.0000
    39 C25      3.1993  20.0649  17.8618   C.2       1 RES1   0.0000
    40 H15      3.0409  19.3248  17.3201   H         1 RES1   0.0000
    41 C26      8.4019  19.6711  16.0363   C.2       1 RES1   0.0000
    42 C27      9.4335  19.0399  16.8915   C.2       1 RES1   0.0000
    43 C28     10.4395  19.7242  17.5979   C.2       1 RES1   0.0000
    44 H16     10.5265  20.6514  17.5880   H         1 RES1   0.0000
    45 C29     11.2995  18.8919  18.3122   C.2       1 RES1   0.0000
    46 H17     12.0376  19.1656  18.8082   H         1 RES1   0.0000
    47 C30      9.5149  17.7188  17.0721   C.2       1 RES1   0.0000
    48 H18      8.9480  17.1015  16.6653   H         1 RES1   0.0000
    49 C31      9.2546  19.1153  12.9648   C.2       1 RES1   0.0000
    50 C32     10.2167  18.0009  13.2227   C.2       1 RES1   0.0000
    51 C33     11.5748  18.1294  13.2128   C.2       1 RES1   0.0000
    52 H19     11.9824  18.9505  13.0580   H         1 RES1   0.0000
    53 C34     12.3326  16.9731  13.4410   C.2       1 RES1   0.0000
    54 H20     13.2577  16.8865  13.4350   H         1 RES1   0.0000
    55 C35      9.8454  16.7524  13.4807   C.2       1 RES1   0.0000
    56 H21      8.9671  16.4480  13.5203   H         1 RES1   0.0000
    57 C36     10.3019  19.2019   9.4309   C.2       1 RES1   0.0000
    58 C37     11.5968  18.4729   9.1531   C.2       1 RES1   0.0000
    59 C38     12.5714  19.0064   8.3237   C.2       1 RES1   0.0000
    60 H22     12.4900  19.8554   7.9487   H         1 RES1   0.0000
    61 C39     13.8148  18.1042   8.0559   C.2       1 RES1   0.0000
    62 H23     14.5726  18.2495   7.5360   H         1 RES1   0.0000
    63 C40     11.9250  17.2691   9.6035   C.2       1 RES1   0.0000
    64 H24     11.4122  16.7608  10.1869   H         1 RES1   0.0000
    65 C41      7.8495  16.6910   8.9785   C.2       1 RES1   0.0000
    66 C42      8.7085  15.5682   9.2861   C.2       1 RES1   0.0000
    67 C43      8.8714  15.0180  10.5341   C.2       1 RES1   0.0000
    68 H25      8.4327  15.3475  11.2842   H         1 RES1   0.0000
    69 C44      9.8449  13.7946  10.6016   C.2       1 RES1   0.0000
    70 H26     10.0750  13.2668  11.3318   H         1 RES1   0.0000
    71 C45      9.5197  14.9230   8.3773   C.2       1 RES1   0.0000
    72 H27      9.6162  15.1297   7.4745   H         1 RES1   0.0000
    73 C46      9.1444  20.3554   6.2879   C.2       1 RES1   0.0000
    74 C47     10.4045  20.5062   5.5320   C.2       1 RES1   0.0000
    75 C48     11.1039  19.4644   4.9208   C.2       1 RES1   0.0000
    76 H28     10.8004  18.5846   4.9327   H         1 RES1   0.0000
    77 C49     12.4289  19.8722   4.2224   C.2       1 RES1   0.0000
    78 H29     13.0443  19.3499   3.7601   H         1 RES1   0.0000
    79 C50     11.0596  21.7156   5.4189   C.2       1 RES1   0.0000
    80 H30     10.7907  22.5311   5.7720   H         1 RES1   0.0000
    81 C51      5.4907  14.7778   7.8991   C.2       1 RES1   0.0000
    82 C52      6.0126  13.3645   7.8674   C.2       1 RES1   0.0000
    83 C53      6.1236  12.5322   6.7463   C.2       1 RES1   0.0000
    84 H31      5.8738  12.8115   5.8951   H         1 RES1   0.0000
    85 C54      6.6674  11.1804   7.0082   C.2       1 RES1   0.0000
    86 H32      6.8185  10.4961   6.3990   H         1 RES1   0.0000
    87 C55      6.3819  12.6858   8.9864   C.2       1 RES1   0.0000
    88 H33      6.3229  13.0405   9.8436   H         1 RES1   0.0000
    89 C56      6.2491  15.8391  13.0025   C.2       1 RES1   0.0000
    90 C57      6.6359  14.4873  13.4033   C.2       1 RES1   0.0000
    91 C58      7.5101  14.1326  14.4549   C.2       1 RES1   0.0000
    92 H34      7.8903  14.7582  15.0283   H         1 RES1   0.0000
    93 C59      7.7848  12.6020  14.5740   C.2       1 RES1   0.0000
    94 H35      8.2918  12.1523  15.2089   H         1 RES1   0.0000
    95 C60      6.2787  13.3617  12.7247   C.2       1 RES1   0.0000
    96 H36      5.7017  13.3533  11.9965   H         1 RES1   0.0000
    97 Dy1      4.7042  17.1825  10.1847   Dy        1 RES1   0.0000
    98 Dy2      5.9570  19.1533  13.6555   Dy        1 RES1   0.0000
    99 Fe1      7.5128  19.1765  10.5897   Fe        1 RES1   0.0000
   100 Fe2      4.4297  17.0339   6.3850   Fe        1 RES1   0.0000
   101 Fe3      4.1410  19.9895   7.4814   Fe        1 RES1   0.0000
   102 Fe4      6.8264  18.8530   7.2699   Fe        1 RES1   0.0000
   103 Fe5      4.3599  20.5168  10.8780   Fe        1 RES1   0.0000
   104 Fe6      7.3566  22.3426  15.2178   Fe        1 RES1   0.0000
   105 O1       5.0035  18.1768   7.9110   O.3       1 RES1   0.0000
   106 O2       5.6589  19.0985  11.2603   O.3       1 RES1   0.0000
   107 O3       6.8896  21.4893  13.4965   O.3       1 RES1   0.0000
   108 O4       7.3268  19.7633   8.7682   O.3       1 RES1   0.0000
   109 O5       4.6219  20.8888   9.0142   O.3       1 RES1   0.0000
   110 O6       6.1985  17.8584   5.5736   O.3       1 RES1   0.0000
   111 O7       3.7015  18.9198   5.7601   O.3       1 RES1   0.0000
   112 O8       4.1026  16.4368   4.4744   O.co2     1 RES1   0.0000
   113 O9       4.7042  18.2187   3.2263   O.co2     1 RES1   0.0000
   114 O10      2.7256  16.4340   9.1253   O.co2     1 RES1   0.0000
   115 O11      2.6621  16.4983   6.8911   O.co2     1 RES1   0.0000
   116 O12      3.0853  18.9896  10.2782   O.co2     1 RES1   0.0000
   117 O13      2.2828  19.4477   8.2503   O.co2     1 RES1   0.0000
   118 O14      4.0269  17.8249  13.7783   O.co2     1 RES1   0.0000
   119 O15      3.2156  16.8613  11.9707   O.co2     1 RES1   0.0000
   120 O16      5.7495  22.0060  16.2903   O.co2     1 RES1   0.0000
   121 O17      5.0040  20.0063  15.6415   O.co2     1 RES1   0.0000
   122 O18      8.4137  20.9615  16.0641   O.co2     1 RES1   0.0000
   123 O19      7.6204  19.0175  15.3359   O.co2     1 RES1   0.0000
   124 O20      8.0708  18.8053  12.5640   O.co2     1 RES1   0.0000
   125 O21      9.6491  20.2939  13.1275   O.co2     1 RES1   0.0000
   126 O22      9.4986  18.5874  10.2107   O.co2     1 RES1   0.0000
   127 O23     10.1132  20.3191   8.8952   O.co2     1 RES1   0.0000
   128 O24      7.1454  17.2328   9.9389   O.co2     1 RES1   0.0000
   129 O25      7.7858  17.1071   7.7999   O.co2     1 RES1   0.0000
   130 O26      8.5717  19.2354   6.2403   O.co2     1 RES1   0.0000
   131 O27      8.6590  21.3888   6.8653   O.co2     1 RES1   0.0000
   132 O28      5.3180  15.2833   9.0162   O.co2     1 RES1   0.0000
   133 O29      5.2651  15.3280   6.7661   O.co2     1 RES1   0.0000
   134 O30      6.5427  16.8278  13.7485   O.co2     1 RES1   0.0000
   135 O31      5.6802  15.9508  11.8933   O.co2     1 RES1   0.0000
   136 S1       4.0096  15.5654  -0.2837   S.3       1 RES1   0.0000
   137 S2      -1.6573  15.5179   8.7424   S.3       1 RES1   0.0000
   138 S3      -1.2343  18.8611  11.4945   S.3       1 RES1   0.0000
   139 S4       0.6774  15.7777  15.8974   S.3       1 RES1   0.0000
   140 S5       2.3159  20.3414  19.2249   S.3       1 RES1   0.0000
   141 S6      10.7628  17.3026  18.1217   S.3       1 RES1   0.0000
   142 S7      11.2206  15.8084  13.7267   S.3       1 RES1   0.0000
   143 S8      13.3691  16.8111   8.9825   S.3       1 RES1   0.0000
   144 S9      10.3015  13.6997   9.2126   S.3       1 RES1   0.0000
   145 S10     12.4460  21.4111   4.5061   S.3       1 RES1   0.0000
   146 S11      6.9431  11.1720   8.6710   S.3       1 RES1   0.0000
   147 S12      6.9914  12.0099  13.3477   S.3       1 RES1   0.0000
   148 C1F      8.4043  24.8828  16.4847   C.2       1 RES1   0.0000
   149 C2F      8.5482  25.6677  17.7169   C.2       1 RES1   0.0000
   150 C3F      8.7899  27.0670  17.7566   C.2       1 RES1   0.0000
   151 H1F      8.8897  27.5837  16.9887   H         1 RES1   0.0000
   152 C4F      8.8665  27.6004  19.0364   C.2       1 RES1   0.0000
   153 H2F      8.9974  28.4942  19.2527   H         1 RES1   0.0000
   154 C5F      8.4548  25.1286  18.9511   C.2       1 RES1   0.0000
   155 H3F      8.2876  24.2321  19.1297   H         1 RES1   0.0000
   156 C6F     10.5505  25.5615  11.8179   C.2       1 RES1   0.0000
   157 C7F     12.0242  25.8827  11.7802   C.2       1 RES1   0.0000
   158 C8F     12.8292  25.8827  12.9529   C.2       1 RES1   0.0000
   159 H4F     12.4866  25.7235  13.8021   H         1 RES1   0.0000
   160 C9F     14.2731  26.1620  12.6949   C.2       1 RES1   0.0000
   161 H5F     14.9657  26.2011  13.3120   H         1 RES1   0.0000
   162 C10F    12.7639  26.1341  10.6810   C.2       1 RES1   0.0000
   163 H6F     12.4301  26.1676   9.8119   H         1 RES1   0.0000
   164 C11F    10.6027  22.6764  10.3595   C.2       1 RES1   0.0000
   165 C12F    11.9463  22.7294   9.8476   C.2       1 RES1   0.0000
   166 C13F    13.1057  22.4725  10.5599   C.2       1 RES1   0.0000
   167 H7F     13.0892  22.2546  11.4627   H         1 RES1   0.0000
   168 C14F    14.3844  22.5646   9.7960   C.2       1 RES1   0.0000
   169 H8F     15.2470  22.3859  10.0976   H         1 RES1   0.0000
   170 C15F    12.2841  23.1093   8.5995   C.2       1 RES1   0.0000
   171 H9F     11.6715  23.3802   7.9547   H         1 RES1   0.0000
   172 C16F     9.4804  24.8018   6.6649   C.2       1 RES1   0.0000
   173 C17F    10.5765  25.3912   5.8355   C.2       1 RES1   0.0000
   174 C18F    11.6877  26.1229   6.3613   C.2       1 RES1   0.0000
   175 H10F    11.8126  26.2710   7.2721   H         1 RES1   0.0000
   176 C19F    12.6035  26.6201   5.3335   C.2       1 RES1   0.0000
   177 H11F    13.3715  27.1256   5.4665   H         1 RES1   0.0000
   178 C20F    10.6881  25.2711   4.4863   C.2       1 RES1   0.0000
   179 H12F    10.1089  24.7851   3.9446   H         1 RES1   0.0000
   180 C21F     7.6726  20.9503   3.4247   C.2       1 RES1   0.0000
   181 C22F     8.5488  20.9475   2.2679   C.2       1 RES1   0.0000
   182 C23F     8.5294  19.9504   1.3135   C.2       1 RES1   0.0000
   183 H13F     7.9317  19.2410   1.3612   H         1 RES1   0.0000
   184 C24F     9.5319  20.0733   0.1945   C.2       1 RES1   0.0000
   185 H14F     9.6661  19.5091  -0.5338   H         1 RES1   0.0000
   186 C25F     9.4952  21.8301   1.9802   C.2       1 RES1   0.0000
   187 H15F     9.6536  22.5702   2.5219   H         1 RES1   0.0000
   188 C26F     4.2926  22.2239   3.8057   C.2       1 RES1   0.0000
   189 C27F     3.2610  22.8551   2.9505   C.2       1 RES1   0.0000
   190 C28F     2.2550  22.1708   2.2441   C.2       1 RES1   0.0000
   191 H16F     2.1680  21.2436   2.2541   H         1 RES1   0.0000
   192 C29F     1.3950  23.0031   1.5298   C.2       1 RES1   0.0000
   193 H17F     0.6569  22.7294   1.0338   H         1 RES1   0.0000
   194 C30F     3.1796  24.1762   2.7699   C.2       1 RES1   0.0000
   195 H18F     3.7465  24.7935   3.1767   H         1 RES1   0.0000
   196 C31F     3.4399  22.7797   6.8772   C.2       1 RES1   0.0000
   197 C32F     2.4778  23.8941   6.6193   C.2       1 RES1   0.0000
   198 C33F     1.1197  23.7656   6.6292   C.2       1 RES1   0.0000
   199 H19F     0.7121  22.9445   6.7840   H         1 RES1   0.0000
   200 C34F     0.3619  24.9219   6.4010   C.2       1 RES1   0.0000
   201 H20F    -0.5632  25.0085   6.4070   H         1 RES1   0.0000
   202 C35F     2.8491  25.1426   6.3613   C.2       1 RES1   0.0000
   203 H21F     3.7274  25.4470   6.3217   H         1 RES1   0.0000
   204 C36F     2.3926  22.6931  10.4111   C.2       1 RES1   0.0000
   205 C37F     1.0977  23.4221  10.6889   C.2       1 RES1   0.0000
   206 C38F     0.1231  22.8886  11.5183   C.2       1 RES1   0.0000
   207 H22F     0.2045  22.0396  11.8933   H         1 RES1   0.0000
   208 C39F    -1.1203  23.7908  11.7862   C.2       1 RES1   0.0000
   209 H23F    -1.8781  23.6455  12.3060   H         1 RES1   0.0000
   210 C40F     0.7695  24.6259  10.2385   C.2       1 RES1   0.0000
   211 H24F     1.2823  25.1342   9.6551   H         1 RES1   0.0000
   212 C41F     4.8450  25.2040  10.8635   C.2       1 RES1   0.0000
   213 C42F     3.9860  26.3268  10.5560   C.2       1 RES1   0.0000
   214 C43F     3.8231  26.8770   9.3079   C.2       1 RES1   0.0000
   215 H25F     4.2618  26.5475   8.5579   H         1 RES1   0.0000
   216 C44F     2.8496  28.1004   9.2404   C.2       1 RES1   0.0000
   217 H26F     2.6195  28.6282   8.5102   H         1 RES1   0.0000
   218 C45F     3.1748  26.9720  11.4647   C.2       1 RES1   0.0000
   219 H27F     3.0783  26.7653  12.3675   H         1 RES1   0.0000
   220 C46F     3.5501  21.5396  13.5541   C.2       1 RES1   0.0000
   221 C47F     2.2900  21.3888  14.3101   C.2       1 RES1   0.0000
   222 C48F     1.5906  22.4306  14.9212   C.2       1 RES1   0.0000
   223 H28F     1.8941  23.3104  14.9093   H         1 RES1   0.0000
   224 C49F     0.2656  22.0228  15.6196   C.2       1 RES1   0.0000
   225 H29F    -0.3498  22.5451  16.0820   H         1 RES1   0.0000
   226 C50F     1.6349  20.1794  14.4232   C.2       1 RES1   0.0000
   227 H30F     1.9038  19.3639  14.0700   H         1 RES1   0.0000
   228 C51F     7.2038  27.1172  11.9429   C.2       1 RES1   0.0000
   229 C52F     6.6819  28.5305  11.9747   C.2       1 RES1   0.0000
   230 C53F     6.5709  29.3628  13.0957   C.2       1 RES1   0.0000
   231 H31F     6.8207  29.0835  13.9470   H         1 RES1   0.0000
   232 C54F     6.0271  30.7146  12.8338   C.2       1 RES1   0.0000
   233 H32F     5.8760  31.3989  13.4430   H         1 RES1   0.0000
   234 C55F     6.3126  29.2092  10.8556   C.2       1 RES1   0.0000
   235 H33F     6.3716  28.8545   9.9984   H         1 RES1   0.0000
   236 C56F     6.4454  26.0559   6.8395   C.2       1 RES1   0.0000
   237 C57F     6.0586  27.4077   6.4387   C.2       1 RES1   0.0000
   238 C58F     5.1844  27.7624   5.3871   C.2       1 RES1   0.0000
   239 H34F     4.8042  27.1368   4.8137   H         1 RES1   0.0000
   240 C59F     4.9097  29.2930   5.2681   C.2       1 RES1   0.0000
   241 H35F     4.4027  29.7427   4.6331   H         1 RES1   0.0000
   242 C60F     6.4158  28.5333   7.1173   C.2       1 RES1   0.0000
   243 H36F     6.9928  28.5417   7.8455   H         1 RES1   0.0000
   244 Dy1F     7.9903  24.7125   9.6573   Dy        1 RES1   0.0000
   245 Dy2F     6.7375  22.7417   6.1865   Dy        1 RES1   0.0000
   246 Fe1F     5.1817  22.7185   9.2523   Fe        1 RES1   0.0000
   247 Fe2F     8.2648  24.8611  13.4571   Fe        1 RES1   0.0000
   248 Fe3F     8.5535  21.9055  12.3606   Fe        1 RES1   0.0000
   249 Fe4F     5.8681  23.0420  12.5721   Fe        1 RES1   0.0000
   250 Fe5F     8.3346  21.3782   8.9640   Fe        1 RES1   0.0000
   251 Fe6F     5.3379  19.5524   4.6242   Fe        1 RES1   0.0000
   252 O1F      7.6910  23.7182  11.9310   O.3       1 RES1   0.0000
   253 O2F      7.0356  22.7965   8.5817   O.3       1 RES1   0.0000
   254 O3F      5.8049  20.4057   6.3455   O.3       1 RES1   0.0000
   255 O4F      5.3677  22.1317  11.0738   O.3       1 RES1   0.0000
   256 O5F      8.0726  21.0062  10.8278   O.3       1 RES1   0.0000
   257 O6F      6.4960  24.0366  14.2684   O.3       1 RES1   0.0000
   258 O7F      8.9930  22.9752  14.0819   O.3       1 RES1   0.0000
   259 O8F      8.5919  25.4582  15.3676   O.co2     1 RES1   0.0000
   260 O9F      7.9903  23.6763  16.6157   O.co2     1 RES1   0.0000
   261 O10F     9.9689  25.4610  10.7167   O.co2     1 RES1   0.0000
   262 O11F    10.0324  25.3967  12.9509   O.co2     1 RES1   0.0000
   263 O12F     9.6092  22.9054   9.5639   O.co2     1 RES1   0.0000
   264 O13F    10.4117  22.4473  11.5917   O.co2     1 RES1   0.0000
   265 O14F     8.6676  24.0701   6.0637   O.co2     1 RES1   0.0000
   266 O15F     9.4789  25.0337   7.8713   O.co2     1 RES1   0.0000
   267 O16F     6.9450  19.8890   3.5517   O.co2     1 RES1   0.0000
   268 O17F     7.6905  21.8887   4.2006   O.co2     1 RES1   0.0000
   269 O18F     4.2808  20.9335   3.7779   O.co2     1 RES1   0.0000
   270 O19F     5.0741  22.8775   4.5061   O.co2     1 RES1   0.0000
   271 O20F     4.6237  23.0897   7.2781   O.co2     1 RES1   0.0000
   272 O21F     3.0454  21.6011   6.7145   O.co2     1 RES1   0.0000
   273 O22F     3.1959  23.3076   9.6313   O.co2     1 RES1   0.0000
   274 O23F     2.5813  21.5759  10.9468   O.co2     1 RES1   0.0000
   275 O24F     5.5491  24.6622   9.9031   O.co2     1 RES1   0.0000
   276 O25F     4.9087  24.7879  12.0421   O.co2     1 RES1   0.0000
   277 O26F     4.1228  22.6596  13.6017   O.co2     1 RES1   0.0000
   278 O27F     4.0355  20.5062  12.9767   O.co2     1 RES1   0.0000
   279 O28F     7.3765  26.6117  10.8258   O.co2     1 RES1   0.0000
   280 O29F     7.4294  26.5670  13.0759   O.co2     1 RES1   0.0000
   281 O30F     6.1518  25.0672   6.0935   O.co2     1 RES1   0.0000
   282 O31F     7.0143  25.9442   7.9487   O.co2     1 RES1   0.0000
   283 S1F      8.6849  26.3296  20.1258   S.3       1 RES1   0.0000
   284 S2F     14.3518  26.3771  11.0996   S.3       1 RES1   0.0000
   285 S3F     13.9288  23.0339   8.3475   S.3       1 RES1   0.0000
   286 S4F     12.0171  26.1173   3.9446   S.3       1 RES1   0.0000
   287 S5F     10.3786  21.5536   0.6171   S.3       1 RES1   0.0000
   288 S6F      1.9317  24.5924   1.7203   S.3       1 RES1   0.0000
   289 S7F      1.4739  26.0866   6.1153   S.3       1 RES1   0.0000
   290 S8F     -0.6746  25.0839  10.8595   S.3       1 RES1   0.0000
   291 S9F      2.3930  28.1953  10.6294   S.3       1 RES1   0.0000
   292 S10F     0.2485  20.4839  15.3359   S.3       1 RES1   0.0000
   293 S11F     5.7514  30.7230  11.1711   S.3       1 RES1   0.0000
   294 S12F     5.7031  29.8851   6.4943   S.3       1 RES1   0.0000
@<TRIPOS>BOND
     1     1     2    1
     2     2     3    1
     3     3     4    1
     4     5     3    2
     5     6     5    1
     6     7     2    2
     7     8     7    1
     8     9    10    1
     9    10    11    1
    10    11    12    1
    11    13    11    2
    12    14    13    1
    13    15    10    2
    14    16    15    1
    15    17    18    1
    16    18    19    1
    17    19    20    1
    18    21    19    2
    19    22    21    1
    20    23    18    2
    21    24    23    1
    22    25    26    1
    23    26    27    1
    24    27    28    1
    25    29    27    2
    26    30    29    1
    27    31    26    2
    28    32    31    1
    29    33    34    1
    30    34    35    1
    31    35    36    1
    32    37    35    2
    33    38    37    1
    34    39    34    2
    35    40    39    1
    36    41    42    1
    37    42    43    1
    38    43    44    1
    39    45    43    2
    40    46    45    1
    41    47    42    2
    42    48    47    1
    43    49    50    1
    44    50    51    1
    45    51    52    1
    46    53    51    2
    47    54    53    1
    48    55    50    2
    49    56    55    1
    50    57    58    1
    51    58    59    1
    52    59    60    1
    53    61    59    2
    54    62    61    1
    55    63    58    2
    56    64    63    1
    57    65    66    1
    58    66    67    1
    59    67    68    1
    60    69    67    2
    61    70    69    1
    62    71    66    2
    63    72    71    1
    64    73    74    1
    65    74    75    1
    66    75    76    1
    67    77    75    2
    68    78    77    1
    69    79    74    2
    70    80    79    1
    71    81    82    1
    72    82    83    1
    73    83    84    1
    74    85    83    2
    75    86    85    1
    76    87    82    2
    77    88    87    1
    78    89    90    1
    79    90    91    1
    80    91    92    1
    81    93    91    2
    82    94    93    1
    83    95    90    2
    84    96    95    1
    85    97   105    1
    86    98   106    1
    87    99   106    1
    88   100   105    1
    89   101   105    1
    90   102   105    1
    91   103   106    1
    92   104   107    1
    93   106    97    1
    94   107    98    1
    95   108    99    1
    96   109   101    1
    97   110   100    1
    98   111   100    1
    99   112     1   un
   100   113     1   un
   101   114     9   un
   102   115     9   un
   103   116    17   un
   104   117    17   un
   105   118    25   un
   106   119    25   un
   107   120    33   un
   108   121    33   un
   109   122    41   un
   110   123    41   un
   111   124    49   un
   112   125    49   un
   113   126    57   un
   114   127    57   un
   115   128    65   un
   116   129    65   un
   117   130    73   un
   118   131    73   un
   119   132    81   un
   120   133    81   un
   121   134    89   un
   122   135    89   un
   123   136     5    1
   124   137    13    1
   125   138    21    1
   126   139    29    1
   127   140    37    1
   128   141    45    1
   129   142    53    1
   130   143    61    1
   131   144    69    1
   132   145    77    1
   133   146    85    1
   134   147    93    1
   135   148   149    1
   136   149   150    1
   137   150   151    1
   138   152   150    2
   139   153   152    1
   140   154   149    2
   141   155   154    1
   142   156   157    1
   143   157   158    1
   144   158   159    1
   145   160   158    2
   146   161   160    1
   147   162   157    2
   148   163   162    1
   149   164   165    1
   150   165   166    1
   151   166   167    1
   152   168   166    2
   153   169   168    1
   154   170   165    2
   155   171   170    1
   156   172   173    1
   157   173   174    1
   158   174   175    1
   159   176   174    2
   160   177   176    1
   161   178   173    2
   162   179   178    1
   163   180   181    1
   164   181   182    1
   165   182   183    1
   166   184   182    2
   167   185   184    1
   168   186   181    2
   169   187   186    1
   170   188   189    1
   171   189   190    1
   172   190   191    1
   173   192   190    2
   174   193   192    1
   175   194   189    2
   176   195   194    1
   177   196   197    1
   178   197   198    1
   179   198   199    1
   180   200   198    2
   181   201   200    1
   182   202   197    2
   183   203   202    1
   184   204   205    1
   185   205   206    1
   186   206   207    1
   187   208   206    2
   188   209   208    1
   189   210   205    2
   190   211   210    1
   191   212   213    1
   192   213   214    1
   193   214   215    1
   194   216   214    2
   195   217   216    1
   196   218   213    2
   197   219   218    1
   198   220   221    1
   199   221   222    1
   200   222   223    1
   201   224   222    2
   202   225   224    1
   203   226   221    2
   204   227   226    1
   205   228   229    1
   206   229   230    1
   207   230   231    1
   208   232   230    2
   209   233   232    1
   210   234   229    2
   211   235   234    1
   212   236   237    1
   213   237   238    1
   214   238   239    1
   215   240   238    2
   216   241   240    1
   217   242   237    2
   218   243   242    1
   219   244   252    1
   220   245   131    1
   221   246   109    1
   222   247   252    1
   223   248   107    1
   224   249   107    1
   225   250   108    1
   226   251   110    1
   227   252   248    1
   228   253   244    1
   229   254   101    1
   230   255   103    1
   231   256    99    1
   232   257   104    1
   233   258   104    1
   234   259   148   un
   235   260   104    1
   236   261   156   un
   237   262   156   un
   238   263   164   un
   239   264   164   un
   240   265   172   un
   241   266   172   un
   242   267   180   un
   243   268   180   un
   244   269   188   un
   245   270   188   un
   246   271   196   un
   247   272   101    1
   248   273   204   un
   249   274   103    1
   250   275   212   un
   251   276   212   un
   252   277   220   un
   253   278    98    1
   254   279   228   un
   255   280   228   un
   256   281   236   un
   257   282   236   un
   258   283   152    1
   259   284   160    1
   260   285   168    1
   261   286   176    1
   262   287   184    1
   263   288   192    1
   264   289   200    1
   265   290   208    1
   266   291   216    1
   267   292   224    1
   268   293   232    1
   269   294   240    1
   270     7   136    1
   271    15   137    1
   272    23   138    1
   273    31   139    1
   274    39   140    1
   275    47   141    1
   276    55   142    1
   277    63   143    1
   278    71   144    1
   279    79   145    1
   280    87   146    1
   281    95   147    1
   282    97   114    1
   283    97   116    1
   284    97   119    1
   285    97   128    1
   286    97   132    1
   287    97   135    1
   288    98   118    1
   289    98   121    1
   290    98   123    1
   291    98   124    1
   292    98   134    1
   293    99   124    1
   294    99   126    1
   295    99   128    1
   296   100   112    1
   297   100   115    1
   298   100   133    1
   299   101   111    1
   300   101   117    1
   301   102   108    1
   302   102   110    1
   303   102   129    1
   304   102   130    1
   305   102   254    1
   306   103   109    1
   307   103   116    1
   308   103   278    1
   309   104   120    1
   310   104   122    1
   311   111   251    1
   312   113   251    1
   313   125   248    1
   314   127   250    1
   315   131   250    1
   316   148   260   un
   317   154   283    1
   318   162   284    1
   319   170   285    1
   320   178   286    1
   321   186   287    1
   322   194   288    1
   323   196   272   un
   324   202   289    1
   325   204   274   un
   326   210   290    1
   327   218   291    1
   328   220   278   un
   329   226   292    1
   330   234   293    1
   331   242   294    1
   332   244   261    1
   333   244   263    1
   334   244   266    1
   335   244   275    1
   336   244   279    1
   337   244   282    1
   338   245   253    1
   339   245   254    1
   340   245   265    1
   341   245   268    1
   342   245   270    1
   343   245   271    1
   344   245   281    1
   345   246   253    1
   346   246   255    1
   347   246   271    1
   348   246   273    1
   349   246   275    1
   350   247   257    1
   351   247   258    1
   352   247   259    1
   353   247   262    1
   354   247   280    1
   355   248   256    1
   356   248   258    1
   357   248   264    1
   358   249   252    1
   359   249   255    1
   360   249   257    1
   361   249   276    1
   362   249   277    1
   363   250   253    1
   364   250   256    1
   365   250   263    1
   366   251   254    1
   367   251   267    1
   368   251   269    1
@<TRIPOS>SUBSTRUCTURE
     1 RES1        1 GROUP             0 ****  ****    0  
@<TRIPOS>CRYSIN
   29.6300   27.9300   19.9550   90.0000   96.1000   90.0000    15     1
