@<TRIPOS>MOLECULE
GOGSAZ01
   197   217     4     0     0
SMALL
USER_CHARGES
****
Generated from the CSD

@<TRIPOS>ATOM
     1 C1      -1.9974   1.1325   1.9173   C.2       1 RES1   0.0000
     2 H1      -2.3008   1.8075   1.3214   H         1 RES1   0.0000
     3 C2      -1.7117  -0.0876   3.6867   C.2       1 RES1   0.0000
     4 H2      -1.7843  -0.4138   4.5757   H         1 RES1   0.0000
     5 C3      -2.8478   3.0854   4.2812   C.2       1 RES1   0.0000
     6 C4      -3.9199   3.9041   4.8999   C.ar      1 RES1   0.0000
     7 C5      -3.6318   5.2150   5.3086   C.ar      1 RES1   0.0000
     8 H3      -2.7532   5.5634   5.2091   H         1 RES1   0.0000
     9 C6      -4.6329   6.0019   5.8578   C.ar      1 RES1   0.0000
    10 H4      -4.4289   6.8897   6.1294   H         1 RES1   0.0000
    11 C7      -5.8955   5.5352   6.0162   C.ar      1 RES1   0.0000
    12 H5      -6.5569   6.0982   6.4026   H         1 RES1   0.0000
    13 C8      -6.2478   4.2163   5.6131   C.ar      1 RES1   0.0000
    14 C9      -7.5610   3.6811   5.7384   C.ar      1 RES1   0.0000
    15 H6      -8.2536   4.2264   6.0942   H         1 RES1   0.0000
    16 C10     -7.8458   2.4036   5.3588   C.ar      1 RES1   0.0000
    17 H7      -8.7260   2.0615   5.4653   H         1 RES1   0.0000
    18 C11     -6.8429   1.5944   4.8121   C.ar      1 RES1   0.0000
    19 H8      -7.0511   0.7064   4.5465   H         1 RES1   0.0000
    20 C12     -5.5616   2.0643   4.6537   C.ar      1 RES1   0.0000
    21 C13     -4.5596   1.2249   4.0010   C.2       1 RES1   0.0000
    22 C14     -5.2511   3.3912   5.0488   C.ar      1 RES1   0.0000
    23 C15      1.9641   2.2300   0.0607   C.2       1 RES1   0.0000
    24 H9       2.3626   2.0084  -0.7728   H         1 RES1   0.0000
    25 C16      1.4380   3.2924   1.9137   C.2       1 RES1   0.0000
    26 H10      1.3978   3.9541   2.5943   H         1 RES1   0.0000
    27 C17      4.3953   4.2449   0.8765   C.2       1 RES1   0.0000
    28 C18      5.3479   5.2325   0.3775   C.ar      1 RES1   0.0000
    29 C19      6.6373   5.2421   0.8564   C.ar      1 RES1   0.0000
    30 H11      6.8932   4.6414   1.5468   H         1 RES1   0.0000
    31 C20      7.5742   6.1420   0.3213   C.ar      1 RES1   0.0000
    32 H12      8.4699   6.1200   0.6361   H         1 RES1   0.0000
    33 C21      7.2282   7.0436  -0.6370   C.ar      1 RES1   0.0000
    34 H13      7.8788   7.6469  -0.9772   H         1 RES1   0.0000
    35 C22      5.8934   7.0866  -1.1303   C.ar      1 RES1   0.0000
    36 C23      5.4675   8.0088  -2.1167   C.ar      1 RES1   0.0000
    37 H14      6.0919   8.6298  -2.4719   H         1 RES1   0.0000
    38 C24      4.1707   8.0248  -2.5725   C.ar      1 RES1   0.0000
    39 H15      3.9061   8.6583  -3.2297   H         1 RES1   0.0000
    40 C25      3.2350   7.1041  -2.0654   C.ar      1 RES1   0.0000
    41 H16      2.3428   7.1052  -2.3916   H         1 RES1   0.0000
    42 C26      3.6121   6.2010  -1.0980   C.ar      1 RES1   0.0000
    43 C27      2.6175   5.2660  -0.5889   C.2       1 RES1   0.0000
    44 C28      4.9380   6.1707  -0.6061   C.ar      1 RES1   0.0000
    45 C29      1.9917  -1.1484   1.8934   C.2       1 RES1   0.0000
    46 H17      2.3665  -0.3063   2.1247   H         1 RES1   0.0000
    47 C30      1.5627  -3.2669   1.8214   C.2       1 RES1   0.0000
    48 H18      1.5796  -4.1967   2.0129   H         1 RES1   0.0000
    49 C31      2.7559  -2.2857   4.7802   C.2       1 RES1   0.0000
    50 C32      3.7534  -2.5279   5.8476   C.ar      1 RES1   0.0000
    51 C33      3.3823  -2.3718   7.1725   C.ar      1 RES1   0.0000
    52 H19      2.4918  -2.1147   7.3811   H         1 RES1   0.0000
    53 C34      4.2955  -2.5836   8.2056   C.ar      1 RES1   0.0000
    54 H20      4.0283  -2.4710   9.1104   H         1 RES1   0.0000
    55 C35      5.5690  -2.9531   7.9089   C.ar      1 RES1   0.0000
    56 H21      6.1877  -3.0831   8.6184   H         1 RES1   0.0000
    57 C36      6.0035  -3.1507   6.5777   C.ar      1 RES1   0.0000
    58 C37      7.3113  -3.5664   6.2332   C.ar      1 RES1   0.0000
    59 H22      7.9440  -3.7251   6.9242   H         1 RES1   0.0000
    60 C38      7.6866  -3.7464   4.9343   C.ar      1 RES1   0.0000
    61 H23      8.5722  -4.0207   4.7279   H         1 RES1   0.0000
    62 C39      6.7601  -3.5234   3.9030   C.ar      1 RES1   0.0000
    63 H24      7.0260  -3.6389   2.9982   H         1 RES1   0.0000
    64 C40      5.4741  -3.1427   4.1899   C.ar      1 RES1   0.0000
    65 C41      4.5268  -2.9181   3.0887   C.2       1 RES1   0.0000
    66 C42      5.0664  -2.9404   5.5228   C.ar      1 RES1   0.0000
    67 N1      -1.1685   0.1561   1.6075   N.2       1 RES1   0.0000
    68 N2       1.1093   1.5052   0.7097   N.2       1 RES1   0.0000
    69 N3       1.0919  -1.3523   0.9758   N.2       1 RES1   0.0000
    70 N4      -0.9935  -0.6355   2.7579   N.2       1 RES1   0.0000
    71 N5       0.7829   2.1663   1.9085   N.2       1 RES1   0.0000
    72 N6       0.8259  -2.7126   0.9084   N.2       1 RES1   0.0000
    73 N7      -2.3469   1.0210   3.2165   N.pl3     1 RES1   0.0000
    74 N8      -3.2759   1.7967   3.8854   N.am      1 RES1   0.0000
    75 N9       2.1917   3.3625   0.7781   N.pl3     1 RES1   0.0000
    76 N10      3.0665   4.3851   0.4221   N.am      1 RES1   0.0000
    77 N11      2.3026  -2.3335   2.4622   N.pl3     1 RES1   0.0000
    78 N12      3.2221  -2.5502   3.4802   N.am      1 RES1   0.0000
    79 Fe1      0.0000   0.0000   0.0000   Fe        1 RES1   2.0000
    80 O1      -1.7124   3.4294   4.0996   O.2       1 RES1   0.0000
    81 O2      -4.7609   0.1258   3.5547   O.2       1 RES1   0.0000
    82 O3       4.6788   3.3322   1.6332   O.2       1 RES1   0.0000
    83 O4       1.4555   5.2070  -0.9555   O.2       1 RES1   0.0000
    84 O5       1.6214  -1.8827   4.9561   O.2       1 RES1   0.0000
    85 O6       4.7710  -3.0471   1.9057   O.2       1 RES1   0.0000
    86 C1B      1.9974  -1.1325  -1.9173   C.2       1 RES1   0.0000
    87 H1B      2.3008  -1.8075  -1.3214   H         1 RES1   0.0000
    88 C2B      1.7117   0.0876  -3.6867   C.2       1 RES1   0.0000
    89 H2B      1.7843   0.4138  -4.5757   H         1 RES1   0.0000
    90 C3B      2.8478  -3.0854  -4.2812   C.2       1 RES1   0.0000
    91 C4B      3.9199  -3.9041  -4.8999   C.ar      1 RES1   0.0000
    92 C5B      3.6318  -5.2150  -5.3086   C.ar      1 RES1   0.0000
    93 H3B      2.7532  -5.5634  -5.2091   H         1 RES1   0.0000
    94 C6B      4.6329  -6.0019  -5.8578   C.ar      1 RES1   0.0000
    95 H4B      4.4289  -6.8897  -6.1294   H         1 RES1   0.0000
    96 C7B      5.8955  -5.5352  -6.0162   C.ar      1 RES1   0.0000
    97 H5B      6.5569  -6.0982  -6.4026   H         1 RES1   0.0000
    98 C8B      6.2478  -4.2163  -5.6131   C.ar      1 RES1   0.0000
    99 C9B      7.5610  -3.6811  -5.7384   C.ar      1 RES1   0.0000
   100 H6B      8.2536  -4.2264  -6.0942   H         1 RES1   0.0000
   101 C10B     7.8458  -2.4036  -5.3588   C.ar      1 RES1   0.0000
   102 H7B      8.7260  -2.0615  -5.4653   H         1 RES1   0.0000
   103 C11B     6.8429  -1.5944  -4.8121   C.ar      1 RES1   0.0000
   104 H8B      7.0511  -0.7064  -4.5465   H         1 RES1   0.0000
   105 C12B     5.5616  -2.0643  -4.6537   C.ar      1 RES1   0.0000
   106 C13B     4.5596  -1.2249  -4.0010   C.2       1 RES1   0.0000
   107 C14B     5.2511  -3.3912  -5.0488   C.ar      1 RES1   0.0000
   108 C15B    -1.9641  -2.2300  -0.0607   C.2       1 RES1   0.0000
   109 H9B     -2.3626  -2.0084   0.7728   H         1 RES1   0.0000
   110 C16B    -1.4380  -3.2924  -1.9137   C.2       1 RES1   0.0000
   111 H10B    -1.3978  -3.9541  -2.5943   H         1 RES1   0.0000
   112 C17B    -4.3953  -4.2449  -0.8765   C.2       1 RES1   0.0000
   113 C18B    -5.3479  -5.2325  -0.3775   C.ar      1 RES1   0.0000
   114 C19B    -6.6373  -5.2421  -0.8564   C.ar      1 RES1   0.0000
   115 H11B    -6.8932  -4.6414  -1.5468   H         1 RES1   0.0000
   116 C20B    -7.5742  -6.1420  -0.3213   C.ar      1 RES1   0.0000
   117 H12B    -8.4699  -6.1200  -0.6361   H         1 RES1   0.0000
   118 C21B    -7.2282  -7.0436   0.6370   C.ar      1 RES1   0.0000
   119 H13B    -7.8788  -7.6469   0.9772   H         1 RES1   0.0000
   120 C22B    -5.8934  -7.0866   1.1303   C.ar      1 RES1   0.0000
   121 C23B    -5.4675  -8.0088   2.1167   C.ar      1 RES1   0.0000
   122 H14B    -6.0919  -8.6298   2.4719   H         1 RES1   0.0000
   123 C24B    -4.1707  -8.0248   2.5725   C.ar      1 RES1   0.0000
   124 H15B    -3.9061  -8.6583   3.2297   H         1 RES1   0.0000
   125 C25B    -3.2350  -7.1041   2.0654   C.ar      1 RES1   0.0000
   126 H16B    -2.3428  -7.1052   2.3916   H         1 RES1   0.0000
   127 C26B    -3.6121  -6.2010   1.0980   C.ar      1 RES1   0.0000
   128 C27B    -2.6175  -5.2660   0.5889   C.2       1 RES1   0.0000
   129 C28B    -4.9380  -6.1707   0.6061   C.ar      1 RES1   0.0000
   130 C29B    -1.9917   1.1484  -1.8934   C.2       1 RES1   0.0000
   131 H17B    -2.3665   0.3063  -2.1247   H         1 RES1   0.0000
   132 C30B    -1.5627   3.2669  -1.8214   C.2       1 RES1   0.0000
   133 H18B    -1.5796   4.1967  -2.0129   H         1 RES1   0.0000
   134 C31B    -2.7559   2.2857  -4.7802   C.2       1 RES1   0.0000
   135 C32B    -3.7534   2.5279  -5.8476   C.ar      1 RES1   0.0000
   136 C33B    -3.3823   2.3718  -7.1725   C.ar      1 RES1   0.0000
   137 H19B    -2.4918   2.1147  -7.3811   H         1 RES1   0.0000
   138 C34B    -4.2955   2.5836  -8.2056   C.ar      1 RES1   0.0000
   139 H20B    -4.0283   2.4710  -9.1104   H         1 RES1   0.0000
   140 C35B    -5.5690   2.9531  -7.9089   C.ar      1 RES1   0.0000
   141 H21B    -6.1877   3.0831  -8.6184   H         1 RES1   0.0000
   142 C36B    -6.0035   3.1507  -6.5777   C.ar      1 RES1   0.0000
   143 C37B    -7.3113   3.5664  -6.2332   C.ar      1 RES1   0.0000
   144 H22B    -7.9440   3.7251  -6.9242   H         1 RES1   0.0000
   145 C38B    -7.6866   3.7464  -4.9343   C.ar      1 RES1   0.0000
   146 H23B    -8.5722   4.0207  -4.7279   H         1 RES1   0.0000
   147 C39B    -6.7601   3.5234  -3.9030   C.ar      1 RES1   0.0000
   148 H24B    -7.0260   3.6389  -2.9982   H         1 RES1   0.0000
   149 C40B    -5.4741   3.1427  -4.1899   C.ar      1 RES1   0.0000
   150 C41B    -4.5268   2.9181  -3.0887   C.2       1 RES1   0.0000
   151 C42B    -5.0664   2.9404  -5.5228   C.ar      1 RES1   0.0000
   152 N1B      1.1685  -0.1561  -1.6075   N.2       1 RES1   0.0000
   153 N2B     -1.1093  -1.5052  -0.7097   N.2       1 RES1   0.0000
   154 N3B     -1.0919   1.3523  -0.9758   N.2       1 RES1   0.0000
   155 N4B      0.9935   0.6355  -2.7579   N.2       1 RES1   0.0000
   156 N5B     -0.7829  -2.1663  -1.9085   N.2       1 RES1   0.0000
   157 N6B     -0.8259   2.7126  -0.9084   N.2       1 RES1   0.0000
   158 N7B      2.3469  -1.0210  -3.2165   N.pl3     1 RES1   0.0000
   159 N8B      3.2759  -1.7967  -3.8854   N.am      1 RES1   0.0000
   160 N9B     -2.1917  -3.3625  -0.7781   N.pl3     1 RES1   0.0000
   161 N10B    -3.0665  -4.3851  -0.4221   N.am      1 RES1   0.0000
   162 N11B    -2.3026   2.3335  -2.4622   N.pl3     1 RES1   0.0000
   163 N12B    -3.2221   2.5502  -3.4802   N.am      1 RES1   0.0000
   164 O1B      1.7124  -3.4294  -4.0996   O.2       1 RES1   0.0000
   165 O2B      4.7609  -0.1258  -3.5547   O.2       1 RES1   0.0000
   166 O3B     -4.6788  -3.3322  -1.6332   O.2       1 RES1   0.0000
   167 O4B     -1.4555  -5.2070   0.9555   O.2       1 RES1   0.0000
   168 O5B     -1.6214   1.8827  -4.9561   O.2       1 RES1   0.0000
   169 O6B     -4.7710   3.0471  -1.9057   O.2       1 RES1   0.0000
   170 C43      5.2042   0.9621   7.6216   C.1       2 RES2   0.0000
   171 C44      4.6586   1.5068   8.8159   C.2       2 RES2   0.0000
   172 C45      3.2475   1.7155   8.8208   C.1       2 RES2   0.0000
   173 C46      5.4863   1.7792   9.9343   C.2       2 RES2   0.0000
   174 C47      5.0492   1.9082  11.2644   C.2       2 RES2  -1.0000
   175 C48      3.7497   1.5164  11.6830   C.1       2 RES2   0.0000
   176 C49      5.9150   2.3463  12.3154   C.1       2 RES2   0.0000
   177 C50      7.4788   2.9340   8.2902   C.3       2 RES2   0.0000
   178 H25      7.2423   2.4362   7.4795   H         2 RES2   0.0000
   179 H26      8.4169   3.2130   8.2397   H         2 RES2   0.0000
   180 H27      6.9060   3.7248   8.3668   H         2 RES2   0.0000
   181 N13      5.6355   0.5288   6.6588   N.1       2 RES2   0.0000
   182 N14      2.1157   1.9066   8.7874   N.1       2 RES2   0.0000
   183 N15      2.7356   1.1373  12.0791   N.1       2 RES2   0.0000
   184 N16      6.5476   2.6505  13.2126   N.1       2 RES2   0.0000
   185 S1       7.2424   1.8757   9.7366   S.3       2 RES2   0.0000
   186 C51      8.4414  14.9043  13.5820   C.1       3 RES3   0.0000
   187 C52      8.7171  15.9078  12.5851   C.3       3 RES3   0.0000
   188 H28      8.3757  15.6073  11.7181   H         3 RES3   0.0000
   189 H29      9.6848  16.0494  12.5254   H         3 RES3   0.0000
   190 H30      8.2786  16.7466  12.8377   H         3 RES3   0.0000
   191 N17      8.1887  14.1174  14.3865   N.1       3 RES3   0.0000
   192 C53     -0.0128  14.6686   8.6628   C.1       4 RES4   0.0000
   193 C54     -0.0315  15.5096   7.4755   C.3       4 RES4   0.0000
   194 H31      0.3394  15.0115   6.7169   H         4 RES4   0.0000
   195 H32      0.5079  16.3114   7.6351   H         4 RES4   0.0000
   196 H33     -0.9544  15.7701   7.2751   H         4 RES4   0.0000
   197 N18     -0.0061  14.0219   9.5722   N.1       4 RES4   0.0000
@<TRIPOS>BOND
     1     1     2    1
     2     3     4    1
     3     5     6    1
     4     6     7   ar
     5     7     8    1
     6     9     7   ar
     7    10     9    1
     8    11     9   ar
     9    12    11    1
    10    13    11   ar
    11    14    13   ar
    12    15    14    1
    13    16    14   ar
    14    17    16    1
    15    18    16   ar
    16    19    18    1
    17    20    18   ar
    18    21    20    1
    19    22     6   ar
    20    23    24    1
    21    25    26    1
    22    27    28    1
    23    28    29   ar
    24    29    30    1
    25    31    29   ar
    26    32    31    1
    27    33    31   ar
    28    34    33    1
    29    35    33   ar
    30    36    35   ar
    31    37    36    1
    32    38    36   ar
    33    39    38    1
    34    40    38   ar
    35    41    40    1
    36    42    40   ar
    37    43    42    1
    38    44    28   ar
    39    45    46    1
    40    47    48    1
    41    49    50    1
    42    50    51   ar
    43    51    52    1
    44    53    51   ar
    45    54    53    1
    46    55    53   ar
    47    56    55    1
    48    57    55   ar
    49    58    57   ar
    50    59    58    1
    51    60    58   ar
    52    61    60    1
    53    62    60   ar
    54    63    62    1
    55    64    62   ar
    56    65    64    1
    57    66    50   ar
    58    67     1    2
    59    68    23    2
    60    69    45    2
    61    70     3    2
    62    71    25    2
    63    72    47    2
    64    73     1    1
    65    74     5   am
    66    75    23    1
    67    76    27   am
    68    77    45    1
    69    78    49   am
    70    79    67    1
    71    80     5    2
    72    81    21    2
    73    82    27    2
    74    83    43    2
    75    84    49    2
    76    85    65    2
    77    86    87    1
    78    88    89    1
    79    90    91    1
    80    91    92   ar
    81    92    93    1
    82    94    92   ar
    83    95    94    1
    84    96    94   ar
    85    97    96    1
    86    98    96   ar
    87    99    98   ar
    88   100    99    1
    89   101    99   ar
    90   102   101    1
    91   103   101   ar
    92   104   103    1
    93   105   103   ar
    94   106   105    1
    95   107    91   ar
    96   108   109    1
    97   110   111    1
    98   112   113    1
    99   113   114   ar
   100   114   115    1
   101   116   114   ar
   102   117   116    1
   103   118   116   ar
   104   119   118    1
   105   120   118   ar
   106   121   120   ar
   107   122   121    1
   108   123   121   ar
   109   124   123    1
   110   125   123   ar
   111   126   125    1
   112   127   125   ar
   113   128   127    1
   114   129   113   ar
   115   130   131    1
   116   132   133    1
   117   134   135    1
   118   135   136   ar
   119   136   137    1
   120   138   136   ar
   121   139   138    1
   122   140   138   ar
   123   141   140    1
   124   142   140   ar
   125   143   142   ar
   126   144   143    1
   127   145   143   ar
   128   146   145    1
   129   147   145   ar
   130   148   147    1
   131   149   147   ar
   132   150   149    1
   133   151   135   ar
   134   152    79    1
   135   153    79    1
   136   154    79    1
   137   155    88    2
   138   156   110    2
   139   157   132    2
   140   158    86    1
   141   159    90   am
   142   160   108    1
   143   161   112   am
   144   162   130    1
   145   163   134   am
   146   164    90    2
   147   165   106    2
   148   166   112    2
   149   167   128    2
   150   168   134    2
   151   169   150    2
   152     3    73    1
   153    13    22   ar
   154    20    22   ar
   155    21    74   am
   156    25    75    1
   157    35    44   ar
   158    42    44   ar
   159    43    76   am
   160    47    77    1
   161    57    66   ar
   162    64    66   ar
   163    65    78   am
   164    67    70    1
   165    68    71    1
   166    68    79    1
   167    69    72    1
   168    69    79    1
   169    73    74    1
   170    75    76    1
   171    77    78    1
   172    86   152    2
   173    88   158    1
   174    98   107   ar
   175   105   107   ar
   176   106   159   am
   177   108   153    2
   178   110   160    1
   179   120   129   ar
   180   127   129   ar
   181   128   161   am
   182   130   154    2
   183   132   162    1
   184   142   151   ar
   185   149   151   ar
   186   150   163   am
   187   152   155    1
   188   153   156    1
   189   154   157    1
   190   158   159    1
   191   160   161    1
   192   162   163    1
   193   170   171    1
   194   171   172    1
   195   172   182    3
   196   173   171    2
   197   174   173    1
   198   175   174    1
   199   176   174    1
   200   177   178    1
   201   179   177    1
   202   180   177    1
   203   181   170    3
   204   183   175    3
   205   184   176    3
   206   185   173    1
   207   177   185    1
   208   186   187    1
   209   187   188    1
   210   189   187    1
   211   190   187    1
   212   191   186    3
   213   192   193    1
   214   193   194    1
   215   195   193    1
   216   196   193    1
   217   197   192    3
@<TRIPOS>SUBSTRUCTURE
     1 RES1        1 GROUP             0 ****  ****    0  
     2 RES2      170 GROUP             0 ****  ****    0  
     3 RES3      186 GROUP             0 ****  ****    0  
     4 RES4      192 GROUP             0 ****  ****    0  
@<TRIPOS>CRYSIN
    8.9139   15.9285   35.1158   90.0000   90.4740   90.0000    14     1
