@<TRIPOS>MOLECULE
GOKYEN
   100   102     4     0     0
SMALL
USER_CHARGES
****
Generated from the CSD

@<TRIPOS>ATOM
     1 C1       4.2265   1.8982   7.0486   C.ar      1 RES1   0.0000
     2 C2       4.2649   0.5103   7.2348   C.ar      1 RES1   0.0000
     3 C3       5.3368  -0.1197   7.8502   C.ar      1 RES1   0.0000
     4 H1       5.3455  -1.0642   7.9518   H         1 RES1   0.0000
     5 C4       6.3872   0.6382   8.3089   C.ar      1 RES1   0.0000
     6 H2       7.1411   0.2170   8.7047   H         1 RES1   0.0000
     7 C5       6.3417   2.0179   8.1972   C.ar      1 RES1   0.0000
     8 C6       5.2741   2.6795   7.5660   C.ar      1 RES1   0.0000
     9 C7       4.2016   4.3672   2.8108   C.ar      1 RES1   0.0000
    10 C8       4.1958   3.7083   0.4665   C.ar      1 RES1   0.0000
    11 H3       4.6778   3.4889  -0.3222   H         1 RES1   0.0000
    12 C9       2.8184   3.6423   0.4861   C.ar      1 RES1   0.0000
    13 H4       2.3428   3.3646  -0.2876   H         1 RES1   0.0000
    14 C10      2.1286   3.9807   1.6406   C.ar      1 RES1   0.0000
    15 C11      2.7847   4.3548   2.8147   C.ar      1 RES1   0.0000
    16 C12      4.8601   4.0962   1.6112   C.ar      1 RES1   0.0000
    17 C13      2.1893   7.0811   7.8757   C.ar      1 RES1   0.0000
    18 C14      1.4131   7.7496   8.8401   C.ar      1 RES1   0.0000
    19 C15      1.7508   9.0013   9.3223   C.ar      1 RES1   0.0000
    20 H5       1.2101   9.4189   9.9827   H         1 RES1   0.0000
    21 C16      2.8757   9.6409   8.8440   C.ar      1 RES1   0.0000
    22 H6       3.1224  10.4957   9.1774   H         1 RES1   0.0000
    23 C17      3.6421   9.0178   7.8679   C.ar      1 RES1   0.0000
    24 C18      3.3126   7.7537   7.3563   C.ar      1 RES1   0.0000
    25 Cl1      2.9509  -0.4809   6.6479   Cl        1 RES1   0.0000
    26 Cl2      7.6491   2.9449   8.8697   Cl        1 RES1   0.0000
    27 Cl3      6.6100   4.1811   1.5708   Cl        1 RES1   0.0000
    28 Cl4      0.3796   3.9022   1.6198   Cl        1 RES1   0.0000
    29 Cl5     -0.0166   6.9655   9.4691   Cl        1 RES1   0.0000
    30 Cl6      5.0454   9.8402   7.2563   Cl        1 RES1   0.0000
    31 Fe1      3.5124   4.8724   5.9276   Fe        1 RES1   0.0000
    32 S1       2.9376   2.6720   6.1614   S.3       1 RES1  -1.0000
    33 S2       5.1990   4.4204   7.4155   S.3       1 RES1  -1.0000
    34 S3       5.0700   4.6899   4.2856   S.3       1 RES1   0.0000
    35 S4       1.9379   4.8613   4.2709   S.3       1 RES1   0.0000
    36 S5       1.8140   5.4726   7.3169   S.3       1 RES1   0.0000
    37 S6       4.2387   7.0089   6.0832   S.3       1 RES1   0.0000
    38 C19     14.1556   2.2173   5.1394   C.3       2 RES2   0.0000
    39 H7      13.8989   1.3576   4.7223   H         2 RES2   0.0000
    40 H8      13.4278   2.4765   5.7589   H         2 RES2   0.0000
    41 C20     14.2500   3.2379   4.0810   C.3       2 RES2   0.0000
    42 H9      14.4342   4.1123   4.4854   H         2 RES2   0.0000
    43 H10     13.4046   3.2779   3.5883   H         2 RES2   0.0000
    44 H11     14.9766   3.0044   3.4658   H         2 RES2   0.0000
    45 C21     16.5467   1.5474   5.0336   C.3       2 RES2   0.0000
    46 H12     16.7274   2.2681   4.3781   H         2 RES2   0.0000
    47 H13     17.3642   1.4338   5.5809   H         2 RES2   0.0000
    48 C22     16.2980   0.2641   4.2750   C.3       2 RES2   0.0000
    49 H14     16.1541  -0.4676   4.9098   H         2 RES2   0.0000
    50 H15     17.0753   0.0610   3.7127   H         2 RES2   0.0000
    51 H16     15.5046   0.3678   3.7094   H         2 RES2   0.0000
    52 C23     15.0992   0.9367   7.0094   C.3       2 RES2   0.0000
    53 H17     14.3385   1.2573   7.5556   H         2 RES2   0.0000
    54 H18     14.8073   0.1114   6.5482   H         2 RES2   0.0000
    55 C24     16.2285   0.5887   7.9306   C.3       2 RES2   0.0000
    56 H19     16.9902   0.2655   7.4063   H         2 RES2   0.0000
    57 H20     15.9383  -0.1118   8.5519   H         2 RES2   0.0000
    58 H21     16.4940   1.3845   8.4371   H         2 RES2   0.0000
    59 C25     15.8941   3.2806   6.5977   C.3       2 RES2   0.0000
    60 H22     16.7257   3.0840   7.0982   H         2 RES2   0.0000
    61 H23     16.1232   3.9273   5.8843   H         2 RES2   0.0000
    62 C26     14.9221   3.9367   7.5366   C.3       2 RES2   0.0000
    63 H24     14.0920   4.1387   7.0575   H         2 RES2   0.0000
    64 H25     15.3118   4.7684   7.8802   H         2 RES2   0.0000
    65 H26     14.7312   3.3326   8.2834   H         2 RES2   0.0000
    66 N1      15.4127   2.0000   5.9470   N.4       2 RES2   1.0000
    67 C27      7.3403   0.6148   3.5262   C.3       3 RES3   0.0000
    68 H27      8.0463  -0.0750   3.4488   H         3 RES3   0.0000
    69 H28      7.5481   1.3234   2.8673   H         3 RES3   0.0000
    70 C28      7.4259   1.2077   4.8807   C.3       3 RES3   0.0000
    71 H29      6.6863   1.8384   5.0083   H         3 RES3   0.0000
    72 H30      8.2786   1.6817   4.9761   H         3 RES3   0.0000
    73 H31      7.3696   0.4977   5.5529   H         3 RES3   0.0000
    74 C29      4.9293   0.9890   3.2401   C.3       3 RES3   0.0000
    75 H32      5.2008   1.7985   2.7406   H         3 RES3   0.0000
    76 H33      4.8365   1.2463   4.1921   H         3 RES3   0.0000
    77 C30      3.5737   0.5543   2.7363   C.3       3 RES3   0.0000
    78 H34      3.6380   0.3248   1.7850   H         3 RES3   0.0000
    79 H35      2.9323   1.2856   2.8526   H         3 RES3   0.0000
    80 H36      3.2725  -0.2291   3.2412   H         3 RES3   0.0000
    81 C31      6.1918  -0.6506   1.7994   C.3       3 RES3   0.0000
    82 H37      6.9346  -1.3025   1.8570   H         3 RES3   0.0000
    83 H38      5.3672  -1.1612   1.6004   H         3 RES3   0.0000
    84 C32      6.4537   0.2311   0.6821   C.3       3 RES3   0.0000
    85 H39      5.6473   0.7490   0.4790   H         3 RES3   0.0000
    86 H40      6.7080  -0.2999  -0.1005   H         3 RES3   0.0000
    87 H41      7.1846   0.8424   0.9140   H         3 RES3   0.0000
    88 C33      5.6490  -1.1513   4.1594   C.3       3 RES3   0.0000
    89 H42      5.3814  -0.7167   5.0072   H         3 RES3   0.0000
    90 H43      4.8530  -1.6211   3.8067   H         3 RES3   0.0000
    91 C34      6.6260  -2.1224   4.4612   C.3       3 RES3   0.0000
    92 H44      7.0038  -2.4760   3.6290   H         3 RES3   0.0000
    93 H45      6.2137  -2.8525   4.9688   H         3 RES3   0.0000
    94 H46      7.3384  -1.7144   4.9961   H         3 RES3   0.0000
    95 N2       6.0299  -0.0151   3.1362   N.4       3 RES3   1.0000
    96 Cl7     10.9701   2.6275   7.0676   Cl        4 RES4   0.0000
    97 Cl8     11.6364   0.6644   9.0318   Cl        4 RES4   0.0000
    98 C35     10.8250   0.9725   7.5445   C.3       4 RES4   0.0000
    99 H47      9.8670   0.7424   7.6415   H         4 RES4   0.0000
   100 H48     11.2073   0.3935   6.8378   H         4 RES4   0.0000
@<TRIPOS>BOND
     1     1     2   ar
     2     2     3   ar
     3     3     4    1
     4     5     3   ar
     5     6     5    1
     6     7     5   ar
     7     8     1   ar
     8     9    15   ar
     9    10    11    1
    10    12    10   ar
    11    13    12    1
    12    14    12   ar
    13    15    14   ar
    14    16     9   ar
    15    17    18   ar
    16    18    19   ar
    17    19    20    1
    18    21    19   ar
    19    22    21    1
    20    23    21   ar
    21    24    17   ar
    22    25     2    1
    23    26     7    1
    24    27    16    1
    25    28    14    1
    26    29    18    1
    27    30    23    1
    28    31    32    1
    29    32     1    1
    30    33     8    1
    31    34     9    1
    32    35    15    1
    33    36    17    1
    34    37    24    1
    35     7     8   ar
    36    10    16   ar
    37    23    24   ar
    38    31    33    1
    39    31    34    1
    40    31    35    1
    41    31    36    1
    42    31    37    1
    43    38    39    1
    44    40    38    1
    45    41    38    1
    46    42    41    1
    47    43    41    1
    48    44    41    1
    49    45    46    1
    50    47    45    1
    51    48    45    1
    52    49    48    1
    53    50    48    1
    54    51    48    1
    55    52    53    1
    56    54    52    1
    57    55    52    1
    58    56    55    1
    59    57    55    1
    60    58    55    1
    61    59    60    1
    62    61    59    1
    63    62    59    1
    64    63    62    1
    65    64    62    1
    66    65    62    1
    67    66    38    1
    68    45    66    1
    69    52    66    1
    70    59    66    1
    71    67    68    1
    72    69    67    1
    73    70    67    1
    74    71    70    1
    75    72    70    1
    76    73    70    1
    77    74    75    1
    78    76    74    1
    79    77    74    1
    80    78    77    1
    81    79    77    1
    82    80    77    1
    83    81    82    1
    84    83    81    1
    85    84    81    1
    86    85    84    1
    87    86    84    1
    88    87    84    1
    89    88    89    1
    90    90    88    1
    91    91    88    1
    92    92    91    1
    93    93    91    1
    94    94    91    1
    95    95    67    1
    96    74    95    1
    97    81    95    1
    98    88    95    1
    99    96    98    1
   100    97    98    1
   101    98    99    1
   102   100    98    1
@<TRIPOS>SUBSTRUCTURE
     1 RES1        1 GROUP             0 ****  ****    0  
     2 RES2       38 GROUP             0 ****  ****    0  
     3 RES3       67 GROUP             0 ****  ****    0  
     4 RES4       96 GROUP             0 ****  ****    0  
@<TRIPOS>CRYSIN
   16.8000   13.7550   19.8623   90.0000   99.3020   90.0000    14     1
