@<TRIPOS>MOLECULE
GOPJAY
   131   141     8     0     0
SMALL
USER_CHARGES
****
Generated from the CSD

@<TRIPOS>ATOM
     1 C1       7.8005  18.9644   1.4401   C.2       1 RES1   0.0000
     2 C2      12.7211  15.0031  -5.0488   C.3       1 RES1   0.0000
     3 H1      13.4270  14.3731  -5.2588   H         1 RES1   0.0000
     4 H2      11.9580  14.7698  -5.5995   H         1 RES1   0.0000
     5 C3      13.1610  16.2845  -5.4538   C.3       1 RES1   0.0000
     6 H3      13.4084  16.2315  -6.3905   H         1 RES1   0.0000
     7 H4      13.9686  16.4911  -4.9561   H         1 RES1   0.0000
     8 C4      11.2995  16.1599  -3.0278   C.2       1 RES1   0.0000
     9 C5      11.1977  17.2680  -3.7790   C.2       1 RES1   0.0000
    10 C6       9.7564  17.7316  -1.7050   C.2       1 RES1   0.0000
    11 C7       9.0155  18.3762  -0.7248   C.2       1 RES1   0.0000
    12 C8       7.7489  20.0763   0.7002   C.2       1 RES1   0.0000
    13 C9       6.5404  20.2323   3.5065   C.3       1 RES1   0.0000
    14 H5       5.5944  20.2448   3.2908   H         1 RES1   0.0000
    15 H6       6.6124  20.2970   4.4716   H         1 RES1   0.0000
    16 C10      7.1252  21.4101   2.9521   C.3       1 RES1   0.0000
    17 H7       8.0590  21.4339   3.2151   H         1 RES1   0.0000
    18 H8       6.6939  22.1786   3.3570   H         1 RES1   0.0000
    19 S1      12.2543  14.7367  -3.3476   S.3       1 RES1   0.0000
    20 S2      12.0241  17.6728  -5.2619   S.3       1 RES1   0.0000
    21 S3      10.4203  16.1601  -1.5220   S.3       1 RES1   0.0000
    22 S4      10.1293  18.5072  -3.2007   S.3       1 RES1   0.0000
    23 S5       8.6070  17.5811   0.7409   S.3       1 RES1   1.0000
    24 S6       8.5384  20.0215  -0.8540   S.3       1 RES1   0.0000
    25 S7       7.1684  18.6676   3.0329   S.3       1 RES1   0.0000
    26 S8       7.0486  21.6167   1.1318   S.3       1 RES1   0.0000
    27 O1       7.8274   2.3903   6.3413   O.3       2 RES2   0.0000
    28 C11      3.4954  11.5239  13.8842   C.3       3 RES3   0.0000
    29 H9       4.4333  11.7372  13.7612   H         3 RES3   0.0000
    30 H10      3.3976  10.5706  13.7366   H         3 RES3   0.0000
    31 C12      2.7266  12.2291  12.8188   C.3       3 RES3   0.0000
    32 H11      1.7911  11.9830  12.8907   H         3 RES3   0.0000
    33 H12      3.0440  11.9347  11.9521   H         3 RES3   0.0000
    34 C13      2.2605  13.3805  15.5286   C.2       3 RES3   0.0000
    35 C14      2.2208  14.2553  14.5219   C.2       3 RES3   0.0000
    36 C15      0.9659  15.3873  16.4427   C.2       3 RES3   0.0000
    37 C16      0.2348  16.2370  17.2658   C.2       3 RES3   0.0000
    38 C17     -1.1934  17.2765  19.1165   C.2       3 RES3   0.0000
    39 C18     -1.1561  18.1975  18.1250   C.2       3 RES3   0.0000
    40 C19     -3.2995  18.5627  20.2311   C.3       3 RES3   0.0000
    41 H13     -3.9144  18.1870  19.5821   H         3 RES3   0.0000
    42 H14     -3.8055  18.7734  21.0316   H         3 RES3   0.0000
    43 C20     -2.7032  19.8370  19.6710   C.3       3 RES3   0.0000
    44 H15     -2.0215  20.1480  20.2860   H         3 RES3   0.0000
    45 H16     -3.4008  20.5112  19.6483   H         3 RES3   0.0000
    46 S9       3.0801  11.8583  15.5833   S.3       3 RES3   0.0000
    47 S10      2.8706  14.0288  12.9193   S.3       3 RES3   0.0000
    48 S11      1.4854  13.8481  17.0158   S.3       3 RES3   0.0000
    49 S12      1.3516  15.7496  14.8097   S.3       3 RES3   0.0000
    50 S13     -0.3348  15.7913  18.8176   S.3       3 RES3   1.0000
    51 S14     -0.2141  17.8036  16.7201   S.3       3 RES3   0.0000
    52 S15     -2.0508  17.3404  20.6323   S.3       3 RES3   0.0000
    53 S16     -1.9785  19.7394  18.0481   S.3       3 RES3   0.0000
    54 C21     21.2189   9.3093  11.1554   C.3       4 RES4   0.0000
    55 H17     21.5834   8.4858  11.5131   H         4 RES4   0.0000
    56 H18     21.9672   9.9098  11.0135   H         4 RES4   0.0000
    57 C22     20.3852   9.8970  12.1849   C.3       4 RES4   0.0000
    58 H19     20.1482  10.7918  11.8953   H         4 RES4   0.0000
    59 H20     20.9292   9.9904  12.9834   H         4 RES4   0.0000
    60 C23     18.8219   8.8279   9.8781   C.2       4 RES4   0.0000
    61 C24     18.1908   8.9006  11.0703   C.2       4 RES4   0.0000
    62 C25     16.3331   8.6073   9.3425   C.2       4 RES4   0.0000
    63 C26     15.1075   8.5337   8.6708   C.2       4 RES4   0.0000
    64 C27     13.2560   8.4181   6.9109   C.2       4 RES4   0.0000
    65 C28     12.6006   8.4593   8.0955   C.2       4 RES4   0.0000
    66 C29     10.8255   8.4943   5.5995   C.3       4 RES4   0.0000
    67 H21     10.4049   8.9068   4.8293   H         4 RES4   0.0000
    68 H22     10.5123   7.5780   5.6373   H         4 RES4   0.0000
    69 C30     10.3331   9.1787   6.7898   C.3       4 RES4   0.0000
    70 H23      9.3634   9.1710   6.7708   H         4 RES4   0.0000
    71 H24     10.6182  10.1056   6.7538   H         4 RES4   0.0000
    72 S17     20.5230   8.9246   9.5250   S.3       4 RES4   0.0000
    73 S18     18.9057   9.0759  12.6428   S.3       4 RES4   0.0000
    74 S19     17.8138   8.5929   8.4764   S.3       4 RES4   0.0000
    75 S20     16.4462   8.8287  11.0407   S.3       4 RES4   0.0000
    76 S21     14.9901   8.4401   6.9625   S.3       4 RES4   1.0000
    77 S22     13.6048   8.5720   9.5138   S.3       4 RES4   0.0000
    78 S23     12.5806   8.4524   5.2967   S.3       4 RES4   0.0000
    79 S24     10.8788   8.4734   8.3513   S.3       4 RES4   0.0000
    80 C31      6.0161  11.8517   7.5827   C.2       5 RES5   0.0000
    81 C32      8.5263  11.0481   2.9483   C.2       5 RES5   0.0000
    82 C33      6.2851   7.8740   5.5938   C.2       5 RES5   0.0000
    83 C34      7.5184  11.9000   7.6110   C.2       5 RES5   0.0000
    84 C35      7.6357  12.2638   3.0524   C.2       5 RES5   0.0000
    85 C36      5.1996   8.3855   4.6552   C.2       5 RES5   0.0000
    86 C37      8.1701  12.3874   8.6991   C.2       5 RES5   0.0000
    87 C38      7.8039  13.3099   2.1876   C.2       5 RES5   0.0000
    88 C39      4.1680   7.5558   4.2956   C.2       5 RES5   0.0000
    89 C40      7.4644  12.8330   9.8592   C.2       5 RES5   0.0000
    90 C41      8.8027  13.2835   1.1581   C.2       5 RES5   0.0000
    91 C42      4.0809   6.2194   4.7441   C.2       5 RES5   0.0000
    92 C43      5.9258  12.7839   9.8421   C.2       5 RES5   0.0000
    93 C44      9.6656  12.0048   1.0181   C.2       5 RES5   0.0000
    94 C45      5.2540   5.6576   5.6184   C.2       5 RES5   0.0000
    95 C46      5.2861  12.2919   8.6481   C.2       5 RES5   0.0000
    96 C47      9.4634  10.9511   1.9662   C.2       5 RES5   0.0000
    97 C48      6.2926   6.5618   5.9609   C.2       5 RES5   0.0000
    98 Cl1      9.8960  12.3514   8.7665   Cl        5 RES5   0.0000
    99 Cl2      3.5713  12.1693   8.6146   Cl        5 RES5   0.0000
   100 Cl3      6.8242  14.7311   2.3501   Cl        5 RES5   0.0000
   101 Cl4     10.4220   9.5159   1.8178   Cl        5 RES5   0.0000
   102 Cl5      2.8858   8.1787   3.3039   Cl        5 RES5   0.0000
   103 Cl6      7.5916   5.9942   6.9728   Cl        5 RES5   0.0000
   104 Fe1      6.8558  10.6203   5.1858   Fe        5 RES5   0.0000
   105 O2       5.5236  11.3357   6.4889   O.3       5 RES5  -1.0000
   106 O3       8.3084  10.1569   3.8642   O.3       5 RES5  -1.0000
   107 O4       7.1243   8.7686   5.9628   O.3       5 RES5  -1.0000
   108 O5       8.0839  11.4103   6.5551   O.3       5 RES5   0.0000
   109 O6       6.7621  12.2176   3.9891   O.3       5 RES5   0.0000
   110 O7       5.3449   9.5896   4.2862   O.3       5 RES5   0.0000
   111 O8       8.0090  13.2094  10.8791   O.2       5 RES5   0.0000
   112 O9       9.0306  14.2035   0.3917   O.2       5 RES5   0.0000
   113 O10      3.1444   5.4623   4.4981   O.2       5 RES5   0.0000
   114 O11      5.3222  13.1317  10.8356   O.2       5 RES5   0.0000
   115 O12     10.4771  11.9519   0.1022   O.2       5 RES5   0.0000
   116 O13      5.1859   4.5008   5.9666   O.2       5 RES5   0.0000
   117 C49      0.1996  12.9796   8.4815   C.3       6 RES6   0.0000
   118 H25      0.9105  13.6400   8.4815   H         6 RES6   0.0000
   119 H26     -0.6422  13.4388   8.3320   H         6 RES6   0.0000
   120 Cl7      0.4697  11.8238   7.2288   Cl        6 RES6   0.0000
   121 Cl8      0.1614  12.1832   9.9443   Cl        6 RES6   0.0000
   122 C50      0.4711   5.5354   2.2784   C.3       7 RES7   0.0000
   123 H27      0.9453   5.1268   1.5366   H         7 RES7   0.0000
   124 H28      1.1278   5.7956   2.9426   H         7 RES7   0.0000
   125 Cl9     -0.3661   6.9576   1.7090   Cl        7 RES7   0.0000
   126 Cl10    -0.6129   4.3704   2.9736   Cl        7 RES7   0.0000
   127 C51      7.2454  -0.3133   5.7830   C.3       8 RES8   0.0000
   128 H29      6.5428  -0.7234   6.3091   H         8 RES8   0.0000
   129 H30      7.5955  -0.9798   5.1699   H         8 RES8   0.0000
   130 Cl11     8.3658   0.1861   6.7046   Cl        8 RES8   0.0000
   131 Cl12     6.5531   1.1477   4.8123   Cl        8 RES8   0.0000
@<TRIPOS>BOND
     1     1    12    2
     2     2     3    1
     3     4     2    1
     4     5     2    1
     5     6     5    1
     6     7     5    1
     7     8     9    2
     8     9    20    1
     9    10    11    2
    10    11    23    1
    11    12    24    1
    12    13    14    1
    13    15    13    1
    14    16    13    1
    15    17    16    1
    16    18    16    1
    17    19     2    1
    18    20     5    1
    19    21     8    1
    20    22     9    1
    21    23     1    1
    22    24    11    1
    23    25     1    1
    24    26    12    1
    25     8    19    1
    26    10    21    1
    27    10    22    1
    28    13    25    1
    29    16    26    1
    30    28    29    1
    31    30    28    1
    32    31    28    1
    33    32    31    1
    34    33    31    1
    35    34    35    2
    36    35    47    1
    37    36    37    2
    38    37    50    1
    39    38    39    2
    40    39    51    1
    41    40    41    1
    42    42    40    1
    43    43    40    1
    44    44    43    1
    45    45    43    1
    46    46    28    1
    47    47    31    1
    48    48    34    1
    49    49    35    1
    50    50    38    1
    51    51    37    1
    52    52    38    1
    53    53    39    1
    54    34    46    1
    55    36    48    1
    56    36    49    1
    57    40    52    1
    58    43    53    1
    59    54    55    1
    60    56    54    1
    61    57    54    1
    62    58    57    1
    63    59    57    1
    64    60    61    2
    65    61    73    1
    66    62    63    2
    67    63    76    1
    68    64    65    2
    69    65    77    1
    70    66    67    1
    71    68    66    1
    72    69    66    1
    73    70    69    1
    74    71    69    1
    75    72    54    1
    76    73    57    1
    77    74    60    1
    78    75    61    1
    79    76    64    1
    80    77    63    1
    81    78    64    1
    82    79    65    1
    83    60    72    1
    84    62    74    1
    85    62    75    1
    86    66    78    1
    87    69    79    1
    88    80    83    1
    89    81    84    1
    90    82    85    1
    91    83    86    2
    92    84    87    2
    93    85    88    2
    94    86    89    1
    95    87    90    1
    96    88    91    1
    97    89    92    1
    98    90    93    1
    99    91    94    1
   100    92    95    1
   101    93    96    1
   102    94    97    1
   103    95    80    2
   104    96    81    2
   105    97    82    2
   106    98    86    1
   107    99    95    1
   108   100    87    1
   109   101    96    1
   110   102    88    1
   111   103    97    1
   112   104   105    1
   113   105    80    1
   114   106    81    1
   115   107    82    1
   116   108    83    1
   117   109    84    1
   118   110    85    1
   119   111    89    2
   120   112    90    2
   121   113    91    2
   122   114    92    2
   123   115    93    2
   124   116    94    2
   125   104   106    1
   126   104   107    1
   127   104   108    1
   128   104   109    1
   129   104   110    1
   130   117   118    1
   131   119   117    1
   132   120   117    1
   133   121   117    1
   134   122   123    1
   135   124   122    1
   136   125   122    1
   137   126   122    1
   138   127   128    1
   139   129   127    1
   140   130   127    1
   141   131   127    1
@<TRIPOS>SUBSTRUCTURE
     1 RES1        1 GROUP             0 ****  ****    0  
     2 RES2       27 GROUP             0 ****  ****    0  
     3 RES3       28 GROUP             0 ****  ****    0  
     4 RES4       54 GROUP             0 ****  ****    0  
     5 RES5       80 GROUP             0 ****  ****    0  
     6 RES6      117 GROUP             0 ****  ****    0  
     7 RES7      122 GROUP             0 ****  ****    0  
     8 RES8      127 GROUP             0 ****  ****    0  
@<TRIPOS>CRYSIN
   13.1770   15.3556   19.7948   92.0300  106.5710   96.6540     2     1
