@<TRIPOS>MOLECULE
GOWSAP
   110   110     3     0     0
SMALL
USER_CHARGES
****
Generated from the CSD

@<TRIPOS>ATOM
     1 Na1      7.0911  10.5637   0.0000   Na        1 RES1   1.0000
     2 N7       6.6627   9.9536 -11.3487   N.1       2 RES2   0.0000
     3 N8       3.7230  12.0922  -8.9904   N.1       2 RES2   0.0000
     4 N9      10.5809   7.6300  -4.2294   N.1       2 RES2   0.0000
     5 N10      7.6059   9.7247  -1.9027   N.1       2 RES2   0.0000
     6 C19      6.3061  10.2297 -10.2966   C.1       2 RES2   0.0000
     7 C20      4.6531  11.4196  -8.9782   C.1       2 RES2   0.0000
     8 C21      5.8349  10.5976  -8.9941   C.2       2 RES2   0.0000
     9 C22      6.4759  10.2177  -7.8216   C.2       2 RES2   0.0000
    10 C23      7.6737   9.4202  -7.8648   C.2       2 RES2   0.0000
    11 H19      8.0290   9.1494  -8.7034   H         2 RES2   0.0000
    12 C24      5.9724  10.6210  -6.5242   C.2       2 RES2   0.0000
    13 H20      5.1843  11.1489  -6.4700   H         2 RES2   0.0000
    14 C25      8.3017   9.0514  -6.7146   C.2       2 RES2   0.0000
    15 H21      9.0886   8.5216  -6.7610   H         2 RES2   0.0000
    16 C26      6.6096  10.2554  -5.3906   C.2       2 RES2   0.0000
    17 H22      6.2664  10.5387  -4.5511   H         2 RES2   0.0000
    18 C27      7.7949   9.4501  -5.4305   C.2       2 RES2   0.0000
    19 C28      8.4441   9.0713  -4.2496   C.2       2 RES2   0.0000
    20 C29      9.6228   8.2679  -4.2625   C.1       2 RES2   0.0000
    21 C30      7.9648   9.4437  -2.9582   C.1       2 RES2   0.0000
    22 Fe1      3.5456   5.2819   0.0000   Fe        3 RES3   0.0000
    23 O1       3.6840   7.3607  -0.3047   O.2       3 RES3   0.0000
    24 O2       1.6037   5.2345  -0.7981   O.2       3 RES3   0.0000
    25 N1       2.7721   5.8140   1.9312   N.1       3 RES3   0.0000
    26 N2       0.0430   8.3041   4.3086   N.1       3 RES3   0.0000
    27 N3       6.9674   3.7334   8.9089   N.1       3 RES3   0.0000
    28 N4       4.1182   5.8651  11.2755   N.1       3 RES3   0.0000
    29 N5       3.5904   9.4232  -1.2231   N.am      3 RES3   0.0000
    30 N6      -0.3543   4.1818  -1.2241   N.am      3 RES3   0.0000
    31 C1       2.4665   6.2466   2.9500   C.1       3 RES3   0.0000
    32 C2       0.9581   7.6039   4.2731   C.1       3 RES3   0.0000
    33 C3       2.0897   6.7407   4.2222   C.2       3 RES3   0.0000
    34 C4       2.7835   6.3601   5.3918   C.2       3 RES3   0.0000
    35 C5       3.9576   5.5472   5.3193   C.2       3 RES3   0.0000
    36 H1       4.2775   5.2607   4.4714   H         3 RES3   0.0000
    37 C6       2.3267   6.7730   6.6808   C.2       3 RES3   0.0000
    38 H2       1.5572   7.3255   6.7491   H         3 RES3   0.0000
    39 C7       4.6253   5.1778   6.4494   C.2       3 RES3   0.0000
    40 H3       5.4121   4.6511   6.3769   H         3 RES3   0.0000
    41 C8       2.9810   6.3835   7.8196   C.2       3 RES3   0.0000
    42 H4       2.6521   6.6551   8.6680   H         3 RES3   0.0000
    43 C9       4.1562   5.5709   7.7442   C.2       3 RES3   0.0000
    44 C10      4.8297   5.1807   8.9062   C.2       3 RES3   0.0000
    45 C11      6.0117   4.3731   8.8761   C.1       3 RES3   0.0000
    46 C12      4.4088   5.5634  10.2084   C.1       3 RES3   0.0000
    47 C13      3.3253   8.1323  -1.2130   C.2       3 RES3   0.0000
    48 H5       2.8327   7.7696  -1.9395   H         3 RES3   0.0000
    49 C14      4.4429  10.0119  -0.2025   C.3       3 RES3   0.0000
    50 H6       4.5886   9.3615   0.5155   H         3 RES3   0.0000
    51 H7       4.0096  10.8108   0.1640   H         3 RES3   0.0000
    52 H8       5.3044  10.2592  -0.5983   H         3 RES3   0.0000
    53 C15      3.2748  10.2456  -2.3841   C.3       3 RES3   0.0000
    54 H9       4.1054  10.5353  -2.8155   H         3 RES3   0.0000
    55 H10      2.7634  11.0313  -2.0990   H         3 RES3   0.0000
    56 H11      2.7413   9.7227  -3.0193   H         3 RES3   0.0000
    57 C16      0.7919   4.3084  -0.5966   C.2       3 RES3   0.0000
    58 H12      1.0186   3.6517   0.0532   H         3 RES3   0.0000
    59 C17     -1.2065   3.0274  -0.9944   C.3       3 RES3   0.0000
    60 H13     -1.2292   2.4719  -1.8021   H         3 RES3   0.0000
    61 H14     -2.1132   3.3283  -0.7785   H         3 RES3   0.0000
    62 H15     -0.8503   2.5025  -0.2482   H         3 RES3   0.0000
    63 C18     -0.7370   5.0932  -2.2865   C.3       3 RES3   0.0000
    64 H16     -0.0914   5.8290  -2.3339   H         3 RES3   0.0000
    65 H17     -1.6286   5.4529  -2.1020   H         3 RES3   0.0000
    66 H18     -0.7483   4.6131  -3.1404   H         3 RES3   0.0000
    67 O1A      3.4071   3.2030   0.3047   O.2       3 RES3   0.0000
    68 O2A      5.4874   5.3292   0.7981   O.2       3 RES3   0.0000
    69 N1A      4.3190   4.7497  -1.9312   N.1       3 RES3   0.0000
    70 N2A      7.0481   2.2596  -4.3086   N.1       3 RES3   0.0000
    71 N3A      0.1238   6.8303  -8.9089   N.1       3 RES3   0.0000
    72 N4A      2.9729   4.6986 -11.2755   N.1       3 RES3   0.0000
    73 N5A      3.5008   1.1405   1.2231   N.am      3 RES3   0.0000
    74 N6A      7.4455   6.3819   1.2241   N.am      3 RES3   0.0000
    75 C1A      4.6246   4.3171  -2.9500   C.1       3 RES3   0.0000
    76 C2A      6.1330   2.9599  -4.2731   C.1       3 RES3   0.0000
    77 C3A      5.0014   3.8230  -4.2222   C.2       3 RES3   0.0000
    78 C4A      4.3076   4.2036  -5.3918   C.2       3 RES3   0.0000
    79 C5A      3.1335   5.0165  -5.3193   C.2       3 RES3   0.0000
    80 H1A      2.8137   5.3030  -4.4714   H         3 RES3   0.0000
    81 C6A      4.7645   3.7908  -6.6808   C.2       3 RES3   0.0000
    82 H2A      5.5340   3.2383  -6.7491   H         3 RES3   0.0000
    83 C7A      2.4659   5.3859  -6.4494   C.2       3 RES3   0.0000
    84 H3A      1.6790   5.9126  -6.3769   H         3 RES3   0.0000
    85 C8A      4.1102   4.1803  -7.8196   C.2       3 RES3   0.0000
    86 H4A      4.4390   3.9086  -8.6680   H         3 RES3   0.0000
    87 C9A      2.9349   4.9928  -7.7442   C.2       3 RES3   0.0000
    88 C10A     2.2615   5.3831  -8.9062   C.2       3 RES3   0.0000
    89 C11A     1.0794   6.1907  -8.8761   C.1       3 RES3   0.0000
    90 C12A     2.6823   5.0004 -10.2084   C.1       3 RES3   0.0000
    91 C13A     3.7658   2.4314   1.2130   C.2       3 RES3   0.0000
    92 H5A      4.2584   2.7941   1.9395   H         3 RES3   0.0000
    93 C14A     2.6483   0.5519   0.2025   C.3       3 RES3   0.0000
    94 H6A      2.5025   1.2022  -0.5155   H         3 RES3   0.0000
    95 H7A      3.0815  -0.2471  -0.1640   H         3 RES3   0.0000
    96 H8A      1.7868   0.3045   0.5983   H         3 RES3   0.0000
    97 C15A     3.8164   0.3182   2.3841   C.3       3 RES3   0.0000
    98 H9A      2.9857   0.0284   2.8155   H         3 RES3   0.0000
    99 H10A     4.3277  -0.4675   2.0990   H         3 RES3   0.0000
   100 H11A     4.3498   0.8411   3.0193   H         3 RES3   0.0000
   101 C16A     6.2993   6.2553   0.5966   C.2       3 RES3   0.0000
   102 H12A     6.0725   6.9121  -0.0532   H         3 RES3   0.0000
   103 C17A     8.2976   7.5363   0.9944   C.3       3 RES3   0.0000
   104 H13A     8.3203   8.0918   1.8021   H         3 RES3   0.0000
   105 H14A     9.2044   7.2354   0.7785   H         3 RES3   0.0000
   106 H15A     7.9415   8.0613   0.2482   H         3 RES3   0.0000
   107 C18A     7.8281   5.4705   2.2865   C.3       3 RES3   0.0000
   108 H16A     7.1825   4.7347   2.3339   H         3 RES3   0.0000
   109 H17A     8.7198   5.1108   2.1020   H         3 RES3   0.0000
   110 H18A     7.8395   5.9506   3.1404   H         3 RES3   0.0000
@<TRIPOS>BOND
     1     2     6    3
     2     3     7    3
     3     4    20    3
     4     5    21    3
     5     6     8    1
     6     7     8    1
     7     8     9    2
     8     9    10    1
     9    10    11    1
    10    12     9    1
    11    13    12    1
    12    14    10    2
    13    15    14    1
    14    16    12    2
    15    17    16    1
    16    18    14    1
    17    19    18    2
    18    20    19    1
    19    21    19    1
    20    16    18    1
    21    22    23    1
    22    23    47    2
    23    24    22    1
    24    25    22    1
    25    26    32    3
    26    27    45    3
    27    28    46    3
    28    29    47   am
    29    30    57   am
    30    31    25    3
    31    32    33    1
    32    33    31    1
    33    34    33    2
    34    35    34    1
    35    36    35    1
    36    37    34    1
    37    38    37    1
    38    39    35    2
    39    40    39    1
    40    41    37    2
    41    42    41    1
    42    43    39    1
    43    44    43    2
    44    45    44    1
    45    46    44    1
    46    47    48    1
    47    49    29    1
    48    50    49    1
    49    51    49    1
    50    52    49    1
    51    53    29    1
    52    54    53    1
    53    55    53    1
    54    56    53    1
    55    57    24    2
    56    58    57    1
    57    59    30    1
    58    60    59    1
    59    61    59    1
    60    62    59    1
    61    63    30    1
    62    64    63    1
    63    65    63    1
    64    66    63    1
    65    67    22    1
    66    68    22    1
    67    69    22    1
    68    70    76    3
    69    71    89    3
    70    72    90    3
    71    73    91   am
    72    74   101   am
    73    75    69    3
    74    76    77    1
    75    77    75    1
    76    78    77    2
    77    79    78    1
    78    80    79    1
    79    81    78    1
    80    82    81    1
    81    83    79    2
    82    84    83    1
    83    85    81    2
    84    86    85    1
    85    87    83    1
    86    88    87    2
    87    89    88    1
    88    90    88    1
    89    91    67    2
    90    92    91    1
    91    93    73    1
    92    94    93    1
    93    95    93    1
    94    96    93    1
    95    97    73    1
    96    98    97    1
    97    99    97    1
    98   100    97    1
    99   101    68    2
   100   102   101    1
   101   103    74    1
   102   104   103    1
   103   105   103    1
   104   106   103    1
   105   107    74    1
   106   108   107    1
   107   109   107    1
   108   110   107    1
   109    41    43    1
   110    85    87    1
@<TRIPOS>SUBSTRUCTURE
     1 RES1        1 GROUP             0 ****  ****    0  
     2 RES2        2 GROUP             0 ****  ****    0  
     3 RES3       22 GROUP             0 ****  ****    0  
@<TRIPOS>CRYSIN
    9.1832   10.7689   14.9161   96.1230   93.8120  101.2020     2     1
