@<TRIPOS>MOLECULE
GUCZEM
   112   120     3     0     0
SMALL
USER_CHARGES
****
Generated from the CSD

@<TRIPOS>ATOM
     1 Fe1      3.3215   8.8337   4.3830   Fe        1 RES1   1.0000
     2 O1       2.4588  10.1257   5.6458   O.3       1 RES1   0.0000
     3 H1       2.9095  10.8112   5.8599   H         1 RES1   0.0000
     4 N1       4.4325   7.3975   3.0491   N.ar      1 RES1   0.0000
     5 N2       1.5794   8.5142   3.1646   N.2       1 RES1   0.0000
     6 N3       2.5407   7.0833   5.3874   N.2       1 RES1   0.0000
     7 N4       4.4485  10.2698   3.0867   N.ar      1 RES1   0.0000
     8 N5       5.2804   8.8668   5.4023   N.ar      1 RES1   0.0000
     9 N6       0.5590  11.1790   4.0992   N.pl3     1 RES1   0.0000
    10 H2       1.1743  10.8292   4.6367   H         1 RES1   0.0000
    11 N7       2.1271   8.7036   7.9216   N.pl3     1 RES1   0.0000
    12 H3       2.1302   9.1865   7.1759   H         1 RES1   0.0000
    13 C1       5.2636   8.9029   6.7464   C.ar      1 RES1   0.0000
    14 H4       4.4198   8.9401   7.1827   H         1 RES1   0.0000
    15 C2       3.7690   6.3134   2.5861   C.ar      1 RES1   0.0000
    16 C3       4.3682   5.4074   1.7199   C.ar      1 RES1   0.0000
    17 H5       3.8862   4.6541   1.3976   H         1 RES1   0.0000
    18 C4       5.6760   5.6211   1.3360   C.ar      1 RES1   0.0000
    19 H6       6.1072   5.0112   0.7475   H         1 RES1   0.0000
    20 C5       6.3556   6.7247   1.8103   C.ar      1 RES1   0.0000
    21 H7       7.2556   6.8795   1.5493   H         1 RES1   0.0000
    22 C6       5.7149   7.6075   2.6724   C.ar      1 RES1   0.0000
    23 C7       2.3242   6.1169   3.0783   C.3       1 RES1   0.0000
    24 C8       1.7303   4.8184   2.5036   C.3       1 RES1   0.0000
    25 H8       2.2806   4.0563   2.7816   H         1 RES1   0.0000
    26 H9       1.7155   4.8714   1.5244   H         1 RES1   0.0000
    27 H10      0.8166   4.7012   2.8382   H         1 RES1   0.0000
    28 C9       6.4589   8.8475   3.2282   C.3       1 RES1   0.0000
    29 C10      7.9144   8.8467   2.7238   C.3       1 RES1   0.0000
    30 H11      7.9206   8.8903   1.7441   H         1 RES1   0.0000
    31 H12      8.3611   8.0254   3.0171   H         1 RES1   0.0000
    32 H13      8.3875   9.6238   3.0896   H         1 RES1   0.0000
    33 C11      1.4543   7.2883   2.6269   C.2       1 RES1   0.0000
    34 C12      0.3945   7.2347   1.6889   C.2       1 RES1   0.0000
    35 H14      0.1304   6.4850   1.1688   H         1 RES1   0.0000
    36 C13     -0.1769   8.4877   1.6807   C.2       1 RES1   0.0000
    37 H15     -0.9148   8.7727   1.1552   H         1 RES1   0.0000
    38 C14      0.5516   9.2680   2.6092   C.2       1 RES1   0.0000
    39 C15      0.1199  10.5203   3.0609   C.2       1 RES1   0.0000
    40 H16     -0.5684  10.9371   2.5551   H         1 RES1   0.0000
    41 C16      2.3271   6.0105   4.6052   C.2       1 RES1   0.0000
    42 C17      2.0962   4.8428   5.3713   C.2       1 RES1   0.0000
    43 H17      1.9302   3.9677   5.0422   H         1 RES1   0.0000
    44 C18      2.1614   5.2326   6.6968   C.2       1 RES1   0.0000
    45 H18      2.0563   4.6749   7.4590   H         1 RES1   0.0000
    46 C19      2.4146   6.6248   6.6946   C.2       1 RES1   0.0000
    47 C20      2.2614   7.4078   7.8470   C.2       1 RES1   0.0000
    48 H19      2.2545   6.9390   8.6731   H         1 RES1   0.0000
    49 C21      5.7516  10.1390   2.7623   C.ar      1 RES1   0.0000
    50 C22      6.4276  11.1424   2.0667   C.ar      1 RES1   0.0000
    51 H20      7.3416  11.0298   1.8347   H         1 RES1   0.0000
    52 C23      5.7565  12.3040   1.7165   C.ar      1 RES1   0.0000
    53 H21      6.2060  12.9950   1.2435   H         1 RES1   0.0000
    54 C24      4.4298  12.4457   2.0619   C.ar      1 RES1   0.0000
    55 H22      3.9523  13.2386   1.8483   H         1 RES1   0.0000
    56 C25      3.8132  11.4023   2.7270   C.ar      1 RES1   0.0000
    57 H23      2.8924  11.4879   2.9424   H         1 RES1   0.0000
    58 C26      6.4709   8.8325   4.7737   C.ar      1 RES1   0.0000
    59 C27      7.6565   8.8153   5.5049   C.ar      1 RES1   0.0000
    60 H24      8.4923   8.7893   5.0535   H         1 RES1   0.0000
    61 C28      7.6185   8.8354   6.8932   C.ar      1 RES1   0.0000
    62 H25      8.4225   8.8114   7.3979   H         1 RES1   0.0000
    63 C29      6.3960   8.8896   7.5279   C.ar      1 RES1   0.0000
    64 H26      6.3366   8.9166   8.4761   H         1 RES1   0.0000
    65 C30      0.0711  12.5145   4.4611   C.3       1 RES1   0.0000
    66 H27     -0.8501  12.6255   4.0885   H         1 RES1   0.0000
    67 C31      0.9665  13.5960   3.8620   C.3       1 RES1   0.0000
    68 H28      0.9769  13.5112   2.8767   H         1 RES1   0.0000
    69 H29      1.8936  13.4808   4.1905   H         1 RES1   0.0000
    70 C32      0.4523  14.9818   4.2521   C.3       1 RES1   0.0000
    71 H30      1.0583  15.6729   3.8824   H         1 RES1   0.0000
    72 H31     -0.4459  15.1207   3.8598   H         1 RES1   0.0000
    73 C33      0.3728  15.1362   5.7645   C.3       1 RES1   0.0000
    74 H32      1.2830  15.0889   6.1498   H         1 RES1   0.0000
    75 H33     -0.0095  16.0216   5.9867   H         1 RES1   0.0000
    76 C34     -0.4899  14.0455   6.3641   C.3       1 RES1   0.0000
    77 H34     -1.4239  14.1617   6.0547   H         1 RES1   0.0000
    78 H35     -0.4832  14.1298   7.3503   H         1 RES1   0.0000
    79 C35     -0.0033  12.6533   5.9761   C.3       1 RES1   0.0000
    80 H36      0.8925  12.4954   6.3672   H         1 RES1   0.0000
    81 H37     -0.6232  11.9723   6.3401   H         1 RES1   0.0000
    82 C36      1.9190   9.4001   9.2043   C.3       1 RES1   0.0000
    83 H38      2.0513   8.7353   9.9393   H         1 RES1   0.0000
    84 C37      0.5013   9.9161   9.2922   C.3       1 RES1   0.0000
    85 H39     -0.1289   9.1546   9.2417   H         1 RES1   0.0000
    86 H40      0.3209  10.5136   8.5236   H         1 RES1   0.0000
    87 C38      0.2693  10.6816  10.5962   C.3       1 RES1   0.0000
    88 H41     -0.6473  11.0548  10.5985   H         1 RES1   0.0000
    89 H42      0.3475  10.0583  11.3618   H         1 RES1   0.0000
    90 C39      1.2763  11.8133  10.7634   C.3       1 RES1   0.0000
    91 H43      1.1457  12.4830  10.0458   H         1 RES1   0.0000
    92 H44      1.1312  12.2615  11.6336   H         1 RES1   0.0000
    93 C40      2.6946  11.2659  10.7000   C.3       1 RES1   0.0000
    94 H45      2.8462  10.6562  11.4638   H         1 RES1   0.0000
    95 H46      3.3393  12.0138  10.7729   H         1 RES1   0.0000
    96 C41      2.9421  10.5067   9.3848   C.3       1 RES1   0.0000
    97 H47      2.8858  11.1364   8.6233   H         1 RES1   0.0000
    98 H48      3.8529  10.1178   9.3934   H         1 RES1   0.0000
    99 S1       8.4509   8.7783  11.3963   S.o2      2 RES2   0.0000
   100 F1      10.3751   7.6929  12.8267   F         2 RES2   0.0000
   101 F2      11.0555   8.7696  11.1034   F         2 RES2   0.0000
   102 F3      10.1385   6.8319  10.8821   F         2 RES2   0.0000
   103 O2       8.5702   9.9527  12.2045   O.2       2 RES2   0.0000
   104 O3       8.3514   9.0063   9.9797   O.2       2 RES2   0.0000
   105 O4       7.5489   7.7704  11.8980   O.3       2 RES2  -1.0000
   106 C42     10.0870   7.9820  11.5521   C.3       2 RES2   0.0000
   107 N8       3.9522  12.5834   6.6076   N.1       3 RES3   0.0000
   108 C43      4.9993  12.4604   6.1638   C.1       3 RES3   0.0000
   109 C44      6.3180  12.3185   5.5899   C.3       3 RES3   0.0000
   110 H49      6.2441  12.2463   4.6163   H         3 RES3   0.0000
   111 H50      6.7441  11.5114   5.9459   H         3 RES3   0.0000
   112 H51      6.8598  13.1016   5.8191   H         3 RES3   0.0000
@<TRIPOS>BOND
     1     1     2    1
     2     2     3    1
     3     4     1    1
     4     5     1    1
     5     6     1    1
     6     7     1    1
     7     8     1    1
     8     9    10    1
     9    11    12    1
    10    13     8   ar
    11    14    13    1
    12    15     4   ar
    13    16    15   ar
    14    17    16    1
    15    18    16   ar
    16    19    18    1
    17    20    18   ar
    18    21    20    1
    19    22     4   ar
    20    23    15    1
    21    24    23    1
    22    25    24    1
    23    26    24    1
    24    27    24    1
    25    28    22    1
    26    29    28    1
    27    30    29    1
    28    31    29    1
    29    32    29    1
    30    33     5    2
    31    34    33    1
    32    35    34    1
    33    36    34    2
    34    37    36    1
    35    38     5    1
    36    39     9    1
    37    40    39    1
    38    41     6    2
    39    42    41    1
    40    43    42    1
    41    44    42    2
    42    45    44    1
    43    46     6    1
    44    47    11    1
    45    48    47    1
    46    49     7   ar
    47    50    49   ar
    48    51    50    1
    49    52    50   ar
    50    53    52    1
    51    54    52   ar
    52    55    54    1
    53    56     7   ar
    54    57    56    1
    55    58     8   ar
    56    59    58   ar
    57    60    59    1
    58    61    59   ar
    59    62    61    1
    60    63    13   ar
    61    64    63    1
    62    65     9    1
    63    66    65    1
    64    67    65    1
    65    68    67    1
    66    69    67    1
    67    70    67    1
    68    71    70    1
    69    72    70    1
    70    73    70    1
    71    74    73    1
    72    75    73    1
    73    76    73    1
    74    77    76    1
    75    78    76    1
    76    79    65    1
    77    80    79    1
    78    81    79    1
    79    82    11    1
    80    83    82    1
    81    84    82    1
    82    85    84    1
    83    86    84    1
    84    87    84    1
    85    88    87    1
    86    89    87    1
    87    90    87    1
    88    91    90    1
    89    92    90    1
    90    93    90    1
    91    94    93    1
    92    95    93    1
    93    96    82    1
    94    97    96    1
    95    98    96    1
    96    20    22   ar
    97    23    33    1
    98    23    41    1
    99    28    49    1
   100    28    58    1
   101    36    38    1
   102    38    39    2
   103    44    46    1
   104    46    47    2
   105    54    56   ar
   106    61    63   ar
   107    76    79    1
   108    93    96    1
   109    99   103    2
   110   100   106    1
   111   101   106    1
   112   102   106    1
   113   104    99    2
   114   105    99    1
   115   106    99    1
   116   107   108    3
   117   108   109    1
   118   109   110    1
   119   111   109    1
   120   112   109    1
@<TRIPOS>SUBSTRUCTURE
     1 RES1        1 GROUP             0 ****  ****    0  
     2 RES2       99 GROUP             0 ****  ****    0  
     3 RES3      107 GROUP             0 ****  ****    0  
@<TRIPOS>CRYSIN
   13.4584   13.8392   22.8632   90.0000   97.8090   90.0000    14     1
