@<TRIPOS>MOLECULE
GUDYUZ
   161   192     6     0     0
SMALL
NO_CHARGES
****
Generated from the CSD

@<TRIPOS>ATOM
     1 C1       5.6806  10.6357   1.0158   C.3       1 RES1   0.0000
     2 H1       6.3973  10.3471   0.2028   H         1 RES1   0.0000
     3 B1       4.1784   9.8324   1.0493   B         1 RES1   0.0000
     4 H2       3.8489   9.0421   0.3274   H         1 RES1   0.0000
     5 B2       5.4322   9.5216   2.2734   B         1 RES1   0.0000
     6 H3       5.9293   8.5215   2.3534   H         1 RES1   0.0000
     7 B3       6.3331  11.0260   2.5413   B         1 RES1   0.0000
     8 H4       7.4230  11.0216   2.7980   H         1 RES1   0.0000
     9 B4       5.6485  12.2633   1.4864   B         1 RES1   0.0000
    10 H5       6.2881  13.0727   1.0493   H         1 RES1   0.0000
    11 B5       4.3169  11.5302   0.5656   B         1 RES1   0.0000
    12 H6       4.0779  11.8609  -0.4781   H         1 RES1   0.0000
    13 B6       3.7632   9.7729   2.7720   B         1 RES1   0.0000
    14 B7       5.0974  10.5100   3.6891   B         1 RES1   0.0000
    15 B8       5.2143  12.2261   3.2036   B         1 RES1   0.0000
    16 B9       3.9714  12.5394   1.9757   B         1 RES1   0.0000
    17 B10      3.0610  11.0185   1.7078   B         1 RES1   0.0000
    18 B11      3.6058  11.4544   3.3468   B         1 RES1   0.0000
    19 Br1      2.6779   8.3309   3.5353   Br        1 RES1   0.0000
    20 Br2      5.5788   9.8997   5.4911   Br        1 RES1   0.0000
    21 Br3      5.8519  13.5849   4.4610   Br        1 RES1   0.0000
    22 Br4      3.1183  14.2862   1.7569   Br        1 RES1   0.0000
    23 Br5      1.1614  11.0291   1.2552   Br        1 RES1   0.0000
    24 Br6      2.3170  11.9408   4.7283   Br        1 RES1   0.0000
    25 Fe1     -1.6718  15.5313   5.4249   Fe        2 RES2   0.0000
    26 N1       0.2526  15.7950   5.1440   N.2       2 RES2   0.0000
    27 N2      -2.0688  16.6860   3.9105   N.2       2 RES2   0.0000
    28 N3      -3.5643  15.5702   5.9365   N.2       2 RES2   0.0000
    29 N4      -1.2554  14.4710   7.0304   N.2       2 RES2   0.0000
    30 C2       1.3111  15.4815   6.0072   C.2       2 RES2   0.0000
    31 C3       2.5233  16.0081   5.4956   C.2       2 RES2   0.0000
    32 H7       3.3709  15.9832   5.9253   H         2 RES2   0.0000
    33 C4       2.2604  16.5509   4.2863   C.2       2 RES2   0.0000
    34 H8       2.8938  16.9344   3.6929   H         2 RES2   0.0000
    35 C5       0.8683  16.4440   4.0705   C.2       2 RES2   0.0000
    36 C6       0.1962  16.9552   2.9617   C.2       2 RES2   0.0000
    37 C7      -1.1868  17.0641   2.9059   C.2       2 RES2   0.0000
    38 C8      -1.8963  17.7399   1.8622   C.2       2 RES2   0.0000
    39 H9      -1.5268  18.0723   1.0548   H         2 RES2   0.0000
    40 C9      -3.1758  17.8132   2.2399   C.2       2 RES2   0.0000
    41 H10     -3.8787  18.2214   1.7469   H         2 RES2   0.0000
    42 C10     -3.3037  17.1735   3.5105   C.2       2 RES2   0.0000
    43 C11     -4.4753  17.0970   4.2212   C.2       2 RES2   0.0000
    44 C12     -4.5933  16.3307   5.3877   C.2       2 RES2   0.0000
    45 C13     -5.7867  16.1585   6.1374   C.2       2 RES2   0.0000
    46 H11     -6.6136  16.6018   5.9849   H         2 RES2   0.0000
    47 C14     -5.5351  15.2478   7.1122   C.2       2 RES2   0.0000
    48 H12     -6.1516  14.9300   7.7615   H         2 RES2   0.0000
    49 C15     -4.1691  14.8617   6.9746   C.2       2 RES2   0.0000
    50 C16     -3.5473  13.9079   7.7727   C.2       2 RES2   0.0000
    51 C17     -2.1774  13.7182   7.7727   C.2       2 RES2   0.0000
    52 C18     -1.4689  12.8169   8.6247   C.2       2 RES2   0.0000
    53 H13     -1.8560  12.1556   9.1866   H         2 RES2   0.0000
    54 C19     -0.1541  13.0750   8.4889   C.2       2 RES2   0.0000
    55 H14      0.5509  12.6424   8.9577   H         2 RES2   0.0000
    56 C20     -0.0080  14.1139   7.5178   C.2       2 RES2   0.0000
    57 C21      1.1969  14.6936   7.1401   C.2       2 RES2   0.0000
    58 C22      0.9972  17.4365   1.7878   C.ar      2 RES2   0.0000
    59 C23      0.9682  16.7340   0.5916   C.ar      2 RES2   0.0000
    60 H15      0.4522  15.9389   0.5246   H         2 RES2   0.0000
    61 C24      1.6861  17.1821  -0.5042   C.ar      2 RES2   0.0000
    62 H16      1.6535  16.6980  -1.3209   H         2 RES2   0.0000
    63 C25      2.4418  18.3194  -0.4186   C.ar      2 RES2   0.0000
    64 H17      2.9470  18.6097  -1.1683   H         2 RES2   0.0000
    65 C26      2.4724  19.0413   0.7497   C.ar      2 RES2   0.0000
    66 H18      2.9809  19.8433   0.7981   H         2 RES2   0.0000
    67 C27      1.7568  18.5994   1.8660   C.ar      2 RES2   0.0000
    68 H19      1.7890  19.0920   2.6771   H         2 RES2   0.0000
    69 C28     -5.6790  17.8205   3.7133   C.ar      2 RES2   0.0000
    70 C29     -6.7573  17.1452   3.1664   C.ar      2 RES2   0.0000
    71 H20     -6.7496  16.1965   3.1254   H         2 RES2   0.0000
    72 C30     -7.8513  17.8490   2.6734   C.ar      2 RES2   0.0000
    73 H21     -8.5819  17.3782   2.2920   H         2 RES2   0.0000
    74 C31     -7.8791  19.2198   2.7366   C.ar      2 RES2   0.0000
    75 H22     -8.6313  19.6956   2.4073   H         2 RES2   0.0000
    76 C32     -6.8144  19.9003   3.2799   C.ar      2 RES2   0.0000
    77 H23     -6.8355  20.8495   3.3189   H         2 RES2   0.0000
    78 C33     -5.7112  19.2177   3.7710   C.ar      2 RES2   0.0000
    79 H24     -4.9808  19.6963   4.1449   H         2 RES2   0.0000
    80 C34     -4.3801  13.0747   8.6954   C.ar      2 RES2   0.0000
    81 C35     -5.2705  12.1540   8.1689   C.ar      2 RES2   0.0000
    82 H25     -5.3678  12.0759   7.2276   H         2 RES2   0.0000
    83 C36     -6.0234  11.3399   9.0191   C.ar      2 RES2   0.0000
    84 H26     -6.6230  10.6991   8.6545   H         2 RES2   0.0000
    85 C37     -5.8985  11.4666  10.3791   C.ar      2 RES2   0.0000
    86 H27     -6.4140  10.9157  10.9577   H         2 RES2   0.0000
    87 C38     -5.0214  12.3974  10.9130   C.ar      2 RES2   0.0000
    88 H28     -4.9399  12.4860  11.8562   H         2 RES2   0.0000
    89 C39     -4.2603  13.2013  10.0740   C.ar      2 RES2   0.0000
    90 H29     -3.6580  13.8383  10.4423   H         2 RES2   0.0000
    91 C40      2.3929  14.4290   8.0052   C.ar      2 RES2   0.0000
    92 C41      3.5796  13.9158   7.4955   C.ar      2 RES2   0.0000
    93 H30      3.6546  13.7265   6.5671   H         2 RES2   0.0000
    94 C42      4.6549  13.6760   8.3420   C.ar      2 RES2   0.0000
    95 H31      5.4611  13.3211   7.9866   H         2 RES2   0.0000
    96 C43      4.5688  13.9486   9.6833   C.ar      2 RES2   0.0000
    97 H32      5.3110  13.7813  10.2526   H         2 RES2   0.0000
    98 C44      3.4117  14.4580  10.1968   C.ar      2 RES2   0.0000
    99 H33      3.3544  14.6439  11.1269   H         2 RES2   0.0000
   100 C45      2.3152  14.7083   9.3745   C.ar      2 RES2   0.0000
   101 H34      1.5173  15.0675   9.7428   H         2 RES2   0.0000
   102 C64     -3.7067  13.4903   3.3152   C.ar      2 RES2   0.0000
   103 H53     -4.6088  13.3969   3.5980   H         2 RES2   0.0000
   104 C65     -3.4130  13.9740   2.0464   C.ar      2 RES2   0.0000
   105 H54     -4.1149  14.2137   1.4511   H         2 RES2   0.0000
   106 C66     -2.1055  14.1026   1.6557   C.ar      2 RES2   0.0000
   107 H55     -1.9027  14.4288   0.7869   H         2 RES2   0.0000
   108 C67     -1.1070  13.7695   2.4929   C.ar      2 RES2   0.0000
   109 H56     -0.2069  13.8717   2.2083   H         2 RES2   0.0000
   110 C68     -1.3651  13.2858   3.7524   C.ar      2 RES2   0.0000
   111 H57     -0.6493  13.0519   4.3328   H         2 RES2   0.0000
   112 C69     -2.6702  13.1441   4.1635   C.ar      2 RES2   0.0000
   113 H58     -2.8589  12.8097   5.0323   H         2 RES2   0.0000
   114 C46     -1.3631  18.1295   7.2164   C.ar      3 RES3   0.0000
   115 H35     -0.8935  17.4301   7.6536   H         3 RES3   0.0000
   116 C47     -0.7524  18.8481   6.2862   C.ar      3 RES3   0.0000
   117 H36      0.1522  18.6494   6.0741   H         3 RES3   0.0000
   118 C48     -1.3465  19.8125   5.6537   C.ar      3 RES3   0.0000
   119 H37     -0.8654  20.2894   4.9877   H         3 RES3   0.0000
   120 C49     -2.5572  20.1453   5.8956   C.ar      3 RES3   0.0000
   121 H38     -2.9363  20.8653   5.4081   H         3 RES3   0.0000
   122 C50     -3.3102  19.5260   6.8016   C.ar      3 RES3   0.0000
   123 H39     -4.2075  19.8029   6.9504   H         3 RES3   0.0000
   124 C51     -2.7421  18.4022   7.5755   C.ar      3 RES3   0.0000
   125 H40     -3.2245  17.9138   8.2341   H         3 RES3   0.0000
   126 C52      6.2144  17.4053  10.4256   C.ar      4 RES4   0.0000
   127 H41      6.3890  17.9270   9.6517   H         4 RES4   0.0000
   128 C53      5.0841  17.6493  11.1902   C.ar      4 RES4   0.0000
   129 H42      4.4745  18.3277  10.9279   H         4 RES4   0.0000
   130 C54      4.8433  16.9167  12.3176   C.ar      4 RES4   0.0000
   131 H43      4.0716  17.0909  12.8441   H         4 RES4   0.0000
   132 C55      5.7238  15.9262  12.6897   C.ar      4 RES4   0.0000
   133 H44      5.5566  15.4199  13.4766   H         4 RES4   0.0000
   134 C56      6.8388  15.6617  11.9381   C.ar      4 RES4   0.0000
   135 H45      7.4412  14.9749  12.1967   H         4 RES4   0.0000
   136 C57      7.0783  16.4101  10.7902   C.ar      4 RES4   0.0000
   137 H46      7.8455  16.2294  10.2581   H         4 RES4   0.0000
   138 C58     -2.6641  10.0273   6.4611   C.ar      5 RES5   0.0000
   139 H47     -2.8259  10.1784   7.3839   H         5 RES5   0.0000
   140 C59     -3.7240   9.6872   5.6091   C.ar      5 RES5   0.0000
   141 H48     -4.6075   9.6032   5.9476   H         5 RES5   0.0000
   142 C60     -3.4608   9.4790   4.2826   C.ar      5 RES5   0.0000
   143 H49     -4.1682   9.2355   3.6984   H         5 RES5   0.0000
   144 C61     -2.1848   9.6153   3.7840   C.ar      5 RES5   0.0000
   145 H50     -2.0207   9.4901   2.8575   H         5 RES5   0.0000
   146 C62     -1.1658   9.9286   4.6156   C.ar      5 RES5   0.0000
   147 H51     -0.2824  10.0006   4.2714   H         5 RES5   0.0000
   148 C63     -1.3956  10.1434   5.9569   C.ar      5 RES5   0.0000
   149 H52     -0.6757  10.3726   6.5337   H         5 RES5   0.0000
   150 C70     -0.3602  20.9671   0.3851   C.ar      6 RES6   0.0000
   151 H59      0.5200  21.1982   0.6586   H         6 RES6   0.0000
   152 C71     -1.4325  21.2742   1.1962   C.ar      6 RES6   0.0000
   153 H60     -1.2918  21.7338   2.0167   H         6 RES6   0.0000
   154 C72     -0.5569  20.3262  -0.8148   C.ar      6 RES6   0.0000
   155 H61      0.1811  20.1322  -1.3804   H         6 RES6   0.0000
   156 C72A    -2.7107  20.9161   0.8148   C.ar      6 RES6   0.0000
   157 C70A    -2.9073  20.2752  -0.3851   C.ar      6 RES6   0.0000
   158 H59A    -3.7876  20.0441  -0.6586   H         6 RES6   0.0000
   159 C71A    -1.8351  19.9681  -1.1962   C.ar      6 RES6   0.0000
   160 H60A    -1.9758  19.5085  -2.0167   H         6 RES6   0.0000
   161 H61A    -3.4487  21.1101   1.3804   H         6 RES6   0.0000
@<TRIPOS>BOND
     1     1     2    1
     2     3     1    1
     3     4     3    1
     4     5     1    1
     5     6     5    1
     6     7     1    1
     7     8     7    1
     8     9     1    1
     9    10     9    1
    10    11     1    1
    11    12    11    1
    12    13     3    1
    13    14     5    1
    14    15     7    1
    15    16     9    1
    16    17     3    1
    17    18    13    1
    18    19    13    1
    19    20    14    1
    20    21    15    1
    21    22    16    1
    22    23    17    1
    23    24    18    1
    24     3     5    1
    25     3    11    1
    26     5    13    1
    27     5     7    1
    28     7    14    1
    29     7     9    1
    30     9    15    1
    31     9    11    1
    32    11    17    1
    33    11    16    1
    34    13    17    1
    35    13    14    1
    36    14    18    1
    37    14    15    1
    38    15    16    1
    39    15    18    1
    40    16    17    1
    41    16    18    1
    42    17    18    1
    43    25    26    1
    44    26    30    1
    45    27    25    1
    46    28    25    1
    47    29    25    1
    48    30    31    1
    49    31    32    1
    50    33    31    2
    51    34    33    1
    52    35    26    1
    53    36    35    2
    54    37    27    2
    55    38    37    1
    56    39    38    1
    57    40    38    2
    58    41    40    1
    59    42    27    1
    60    43    42    2
    61    44    28    1
    62    45    44    2
    63    46    45    1
    64    47    45    1
    65    48    47    1
    66    49    28    1
    67    50    49    1
    68    51    29    1
    69    52    51    1
    70    53    52    1
    71    54    52    2
    72    55    54    1
    73    56    29    2
    74    57    30    2
    75    58    36    1
    76    59    58   ar
    77    60    59    1
    78    61    59   ar
    79    62    61    1
    80    63    61   ar
    81    64    63    1
    82    65    63   ar
    83    66    65    1
    84    67    58   ar
    85    68    67    1
    86    69    43    1
    87    70    69   ar
    88    71    70    1
    89    72    70   ar
    90    73    72    1
    91    74    72   ar
    92    75    74    1
    93    76    74   ar
    94    77    76    1
    95    78    69   ar
    96    79    78    1
    97    80    50    1
    98    81    80   ar
    99    82    81    1
   100    83    81   ar
   101    84    83    1
   102    85    83   ar
   103    86    85    1
   104    87    85   ar
   105    88    87    1
   106    89    80   ar
   107    90    89    1
   108    91    57    1
   109    92    91   ar
   110    93    92    1
   111    94    92   ar
   112    95    94    1
   113    96    94   ar
   114    97    96    1
   115    98    96   ar
   116    99    98    1
   117   100    91   ar
   118   101   100    1
   119   102   103    1
   120   104   102   ar
   121   105   104    1
   122   106   104   ar
   123   107   106    1
   124   108   106   ar
   125   109   108    1
   126   110    25   un
   127   111   110    1
   128   112    25   un
   129   113   112    1
   130    33    35    1
   131    36    37    1
   132    40    42    1
   133    43    44    1
   134    47    49    2
   135    50    51    2
   136    54    56    1
   137    56    57    1
   138    65    67   ar
   139    76    78   ar
   140    87    89   ar
   141    98   100   ar
   142   102   112   ar
   143   108   110   ar
   144   110   112   ar
   145   114   115    1
   146   116   114   ar
   147   117   116    1
   148   118   116   ar
   149   119   118    1
   150   120   118   ar
   151   121   120    1
   152   122   120   ar
   153   123   122    1
   154   124   114   ar
   155   125   124    1
   156   122   124   ar
   157   126   127    1
   158   128   126   ar
   159   129   128    1
   160   130   128   ar
   161   131   130    1
   162   132   130   ar
   163   133   132    1
   164   134   132   ar
   165   135   134    1
   166   136   126   ar
   167   137   136    1
   168   134   136   ar
   169   138   139    1
   170   140   138   ar
   171   141   140    1
   172   142   140   ar
   173   143   142    1
   174   144   142   ar
   175   145   144    1
   176   146   144   ar
   177   147   146    1
   178   148   138   ar
   179   149   148    1
   180   146   148   ar
   181   150   151    1
   182   152   150   ar
   183   153   152    1
   184   154   150   ar
   185   155   154    1
   186   156   152   ar
   187   157   156   ar
   188   158   157    1
   189   159   154   ar
   190   160   159    1
   191   161   156    1
   192   157   159   ar
@<TRIPOS>SUBSTRUCTURE
     1 RES1        1 GROUP             0 ****  ****    0  
     2 RES2       25 GROUP             0 ****  ****    0  
     3 RES3      114 GROUP             0 ****  ****    0  
     4 RES4      126 GROUP             0 ****  ****    0  
     5 RES5      138 GROUP             0 ****  ****    0  
     6 RES6      150 GROUP             0 ****  ****    0  
@<TRIPOS>CRYSIN
   13.4685   13.7905   19.4425  106.5120   92.1570   94.5300     2     1
