@<TRIPOS>MOLECULE
GUKMOP
   114   123     6     0     0
SMALL
USER_CHARGES
****
Generated from the CSD

@<TRIPOS>ATOM
     1 Fe1     -0.2830   1.8605   4.7159   Fe        1 RES1   2.0000
     2 N1      -0.5371   0.4652   6.0835   N.ar      1 RES1   0.0000
     3 N2       1.5603   1.8345   5.4327   N.ar      1 RES1   0.0000
     4 N3       2.0799  -1.6456   9.6092   N.2       1 RES1   0.0000
     5 N4       4.0028  -0.3777   8.9999   N.2       1 RES1   0.0000
     6 N5      -0.6791   3.3437   5.9439   N.ar      1 RES1   0.0000
     7 N6      -0.5201   8.1984   5.8836   N.2       1 RES1   0.0000
     8 C1      -1.6304  -0.2746   6.3156   C.ar      1 RES1   0.0000
     9 C2      -1.6993  -1.2277   7.3248   C.ar      1 RES1   0.0000
    10 C3      -0.6032  -1.4428   8.1302   C.ar      1 RES1   0.0000
    11 C4       0.5677  -0.7065   7.8850   C.ar      1 RES1   0.0000
    12 C5       1.8133  -0.8587   8.6226   C.ar      1 RES1   0.0000
    13 C6       2.9968  -0.0700   8.2510   C.ar      1 RES1   0.0000
    14 C7       2.9551   0.8866   7.1644   C.ar      1 RES1   0.0000
    15 C8       4.0259   1.6649   6.7494   C.ar      1 RES1   0.0000
    16 C9       3.8430   2.5323   5.7044   C.ar      1 RES1   0.0000
    17 C10      2.6017   2.5935   5.0630   C.ar      1 RES1   0.0000
    18 C11      1.7361   1.0021   6.4853   C.ar      1 RES1   0.0000
    19 C12      0.5564   0.2151   6.8494   C.ar      1 RES1   0.0000
    20 C13      3.5000  -1.4025   9.9166   C.3       1 RES1   0.0000
    21 C14      4.2974  -2.6827   9.6865   C.3       1 RES1   0.0000
    22 C15      3.6664  -0.8744  11.3484   C.3       1 RES1   0.0000
    23 C16     -1.1298   3.2720   7.2172   C.ar      1 RES1   0.0000
    24 C17     -1.3512   4.4017   7.9831   C.ar      1 RES1   0.0000
    25 C18     -1.1134   5.6399   7.4738   C.ar      1 RES1   0.0000
    26 C19     -0.6694   5.7431   6.1439   C.ar      1 RES1   0.0000
    27 C20     -0.4825   4.5661   5.4233   C.ar      1 RES1   0.0000
    28 C21     -0.4434   6.9969   5.4403   C.ar      1 RES1   0.0000
    29 C22     -0.2830   9.0675   4.7159   C.3       1 RES1   0.0000
    30 C23     -1.5176   9.9244   4.4914   C.3       1 RES1   0.0000
    31 H1      -2.4082  -0.1224   5.7742   H         1 RES1   0.0000
    32 H2      -0.6375  -2.0881   8.8414   H         1 RES1   0.0000
    33 H3       4.5575   3.1146   5.4365   H         1 RES1   0.0000
    34 H4      -1.6807   4.3073   8.8810   H         1 RES1   0.0000
    35 H5       4.5984  -0.7223  11.5200   H         1 RES1   0.0000
    36 H6       3.1961  -0.0612  11.4446   H         1 RES1   0.0000
    37 H7       3.3265  -1.5180  11.9728   H         1 RES1   0.0000
    38 H8       5.2151  -2.5078   9.9015   H         1 RES1   0.0000
    39 H9      -2.2821   9.3648   4.3405   H         1 RES1   0.0000
    40 H10     -1.6750  10.4771   5.2498   H         1 RES1   0.0000
    41 H11     -2.5062  -1.7296   7.4625   H         1 RES1   0.0000
    42 H12      4.8785   1.5967   7.1871   H         1 RES1   0.0000
    43 H13      2.4903   3.2003   4.3292   H         1 RES1   0.0000
    44 H14     -1.2442   6.4251   8.0095   H         1 RES1   0.0000
    45 H15      4.0335  -3.4276  10.1864   H         1 RES1   0.0000
    46 H16     -1.3440   2.3609   7.6398   H         1 RES1   0.0000
    47 H17      4.2099  -2.9730   8.6396   H         1 RES1   0.0000
    48 H18     -1.4393  10.5453   3.6596   H         1 RES1   0.0000
    49 N1A     -0.0288   0.4652   3.3483   N.ar      1 RES1   0.0000
    50 N2A     -2.1263   1.8345   3.9991   N.ar      1 RES1   0.0000
    51 N3A     -2.6459  -1.6456  -0.1773   N.2       1 RES1   0.0000
    52 N4A     -4.5688  -0.3777   0.4320   N.2       1 RES1   0.0000
    53 N5A      0.1132   3.3437   3.4879   N.ar      1 RES1   0.0000
    54 N6A     -0.0458   8.1984   3.5483   N.2       1 RES1   0.0000
    55 C1A      1.0644  -0.2746   3.1163   C.ar      1 RES1   0.0000
    56 C2A      1.1333  -1.2277   2.1071   C.ar      1 RES1   0.0000
    57 C3A      0.0372  -1.4428   1.3016   C.ar      1 RES1   0.0000
    58 C4A     -1.1337  -0.7065   1.5468   C.ar      1 RES1   0.0000
    59 C5A     -2.3793  -0.8587   0.8093   C.ar      1 RES1   0.0000
    60 C6A     -3.5628  -0.0700   1.1809   C.ar      1 RES1   0.0000
    61 C7A     -3.5211   0.8866   2.2674   C.ar      1 RES1   0.0000
    62 C8A     -4.5919   1.6649   2.6824   C.ar      1 RES1   0.0000
    63 C9A     -4.4090   2.5323   3.7275   C.ar      1 RES1   0.0000
    64 C10A    -3.1676   2.5935   4.3688   C.ar      1 RES1   0.0000
    65 C11A    -2.3020   1.0021   2.9465   C.ar      1 RES1   0.0000
    66 C12A    -1.1223   0.2151   2.5824   C.ar      1 RES1   0.0000
    67 C13A    -4.0660  -1.4025  -0.4848   C.3       1 RES1   0.0000
    68 C14A    -4.8634  -2.6827  -0.2547   C.3       1 RES1   0.0000
    69 C15A    -4.2324  -0.8744  -1.9165   C.3       1 RES1   0.0000
    70 C16A     0.5638   3.2720   2.2146   C.ar      1 RES1   0.0000
    71 C17A     0.7852   4.4017   1.4487   C.ar      1 RES1   0.0000
    72 C18A     0.5475   5.6399   1.9580   C.ar      1 RES1   0.0000
    73 C19A     0.1034   5.7431   3.2879   C.ar      1 RES1   0.0000
    74 C20A    -0.0835   4.5661   4.0085   C.ar      1 RES1   0.0000
    75 C21A    -0.1226   6.9969   3.9916   C.ar      1 RES1   0.0000
    76 C23A     0.9516   9.9244   4.9404   C.3       1 RES1   0.0000
    77 H1A      1.8423  -0.1224   3.6577   H         1 RES1   0.0000
    78 H2A      0.0715  -2.0881   0.5904   H         1 RES1   0.0000
    79 H3A     -5.1234   3.1146   3.9953   H         1 RES1   0.0000
    80 H4A      1.1148   4.3073   0.5508   H         1 RES1   0.0000
    81 H5A     -5.1644  -0.7223  -2.0882   H         1 RES1   0.0000
    82 H6A     -3.7621  -0.0612  -2.0128   H         1 RES1   0.0000
    83 H7A     -3.8925  -1.5180  -2.5409   H         1 RES1   0.0000
    84 H8A     -5.7811  -2.5078  -0.4697   H         1 RES1   0.0000
    85 H9A      1.7161   9.3648   5.0913   H         1 RES1   0.0000
    86 H10A     1.1091  10.4771   4.1821   H         1 RES1   0.0000
    87 H11A     1.9402  -1.7296   1.9694   H         1 RES1   0.0000
    88 H12A    -5.4444   1.5967   2.2448   H         1 RES1   0.0000
    89 H13A    -3.0563   3.2003   5.1026   H         1 RES1   0.0000
    90 H14A     0.6782   6.4251   1.4223   H         1 RES1   0.0000
    91 H15A    -4.5995  -3.4276  -0.7545   H         1 RES1   0.0000
    92 H16A     0.7780   2.3609   1.7920   H         1 RES1   0.0000
    93 H17A    -4.7758  -2.9730   0.7923   H         1 RES1   0.0000
    94 H18A     0.8733  10.5453   5.7723   H         1 RES1   0.0000
    95 P1       3.8765  -2.4273   5.1177   P.3       2 RES2  -1.0000
    96 F1       3.8355  -3.7914   5.9402   F         2 RES2   0.0000
    97 F2       4.7311  -1.7383   6.2741   F         2 RES2   0.0000
    98 F3       2.5131  -1.9569   5.8157   F         2 RES2   0.0000
    99 F4       3.0252  -3.1111   3.9350   F         2 RES2   0.0000
   100 F5       5.2313  -2.9083   4.3971   F         2 RES2   0.0000
   101 F6       3.9175  -1.0633   4.2953   F         2 RES2   0.0000
   102 N7       1.7802   3.4154   9.0074   N.1       3 RES3   0.0000
   103 C24      2.3005   5.9214   8.4396   C.3       3 RES3   0.0000
   104 C25      2.0128   4.5259   8.7509   C.1       3 RES3   0.0000
   105 H19      1.4990   6.4408   8.4585   H         3 RES3   0.0000
   106 H20      2.9304   6.2764   9.0791   H         3 RES3   0.0000
   107 H21      2.6941   5.9722   7.5606   H         3 RES3   0.0000
   108 O1      -1.0672   4.7253  16.3925   O.3       4 RES4   0.0000
   109 O2      -0.8490   3.7774  14.1478   O.3       5 RES5   0.0000
   110 C26      0.4174   8.4485  10.3071   C.3       6 RES6   0.0000
   111 O3      -0.3043   7.4149  10.6391   O.3       6 RES6   0.0000
   112 H22     -0.1342   9.1112   9.8940   H         6 RES6   0.0000
   113 H23      0.8543   8.8070  11.0730   H         6 RES6   0.0000
   114 H24      1.0771   8.1407   9.6714   H         6 RES6   0.0000
@<TRIPOS>BOND
     1     1     2    1
     2     2     8   ar
     3     3     1    1
     4     4    12    1
     5     5    13    1
     6     6     1    1
     7     7    28    1
     8     8     9   ar
     9     9    10   ar
    10    10    11   ar
    11    11    12   ar
    12    12    13   ar
    13    13    14   ar
    14    14    15   ar
    15    15    16   ar
    16    16    17   ar
    17    17     3   ar
    18    18     3   ar
    19    19     2   ar
    20    20     4    1
    21    21    20    1
    22    22    20    1
    23    23     6   ar
    24    24    23   ar
    25    25    24   ar
    26    26    25   ar
    27    27     6   ar
    28    28    26   ar
    29    29     7    1
    30    30    29    1
    31    31     8    1
    32    32    10    1
    33    33    16    1
    34    34    24    1
    35    35    22    1
    36    36    22    1
    37    37    22    1
    38    38    21    1
    39    39    30    1
    40    40    30    1
    41    41     9    1
    42    42    15    1
    43    43    17    1
    44    44    25    1
    45    45    21    1
    46    46    23    1
    47    47    21    1
    48    48    30    1
    49    49     1    1
    50    50     1    1
    51    51    59    1
    52    52    60    1
    53    53     1    1
    54    54    29    1
    55    55    49   ar
    56    56    55   ar
    57    57    56   ar
    58    58    57   ar
    59    59    58   ar
    60    60    59   ar
    61    61    60   ar
    62    62    61   ar
    63    63    62   ar
    64    64    50   ar
    65    65    50   ar
    66    66    49   ar
    67    67    51    1
    68    68    67    1
    69    69    67    1
    70    70    53   ar
    71    71    70   ar
    72    72    71   ar
    73    73    72   ar
    74    74    27   ar
    75    75    28   ar
    76    76    29    1
    77    77    55    1
    78    78    57    1
    79    79    63    1
    80    80    71    1
    81    81    69    1
    82    82    69    1
    83    83    69    1
    84    84    68    1
    85    85    76    1
    86    86    76    1
    87    87    56    1
    88    88    62    1
    89    89    64    1
    90    90    72    1
    91    91    68    1
    92    92    70    1
    93    93    68    1
    94    94    76    1
    95     5    20    1
    96    11    19   ar
    97    14    18   ar
    98    18    19   ar
    99    26    27   ar
   100    52    67    1
   101    53    74   ar
   102    54    75    1
   103    58    66   ar
   104    61    65   ar
   105    63    64   ar
   106    65    66   ar
   107    73    74   ar
   108    73    75   ar
   109    95    96    1
   110    97    95    1
   111    98    95    1
   112    99    95    1
   113   100    95    1
   114   101    95    1
   115   102   104    3
   116   103   104    1
   117   105   103    1
   118   106   103    1
   119   107   103    1
   120   110   111    1
   121   112   110    1
   122   113   110    1
   123   114   110    1
@<TRIPOS>SUBSTRUCTURE
     1 RES1        1 GROUP             0 ****  ****    0  
     2 RES2       95 GROUP             0 ****  ****    0  
     3 RES3      102 GROUP             0 ****  ****    0  
     4 RES4      108 GROUP             0 ****  ****    0  
     5 RES5      109 GROUP             0 ****  ****    0  
     6 RES6      110 GROUP             0 ****  ****    0  
@<TRIPOS>CRYSIN
   16.7078   17.4880   18.8976   90.0000   93.4340   90.0000    15     1
