@<TRIPOS>MOLECULE
GUMJOQ
   112   120     5     0     0
SMALL
USER_CHARGES
****
Generated from the CSD

@<TRIPOS>ATOM
     1 Fe1      4.2959   6.1698   3.9064   Fe        1 RES1   1.0000
     2 O1       3.2361   4.6678   4.7010   O.co2     1 RES1  -1.0000
     3 O2       5.9413   5.0526   3.4490   O.co2     1 RES1   0.0000
     4 N1       4.0980   5.7774   1.8942   N.ar      1 RES1   0.0000
     5 O3       5.4224   7.8579   4.0632   O.co2     1 RES1  -1.0000
     6 O4       2.6722   7.2235   3.3449   O.co2     1 RES1   0.0000
     7 N2       4.5032   6.4460   5.9230   N.ar      1 RES1   0.0000
     8 O5       7.0967   4.0337   1.8253   O.co2     1 RES1   0.0000
     9 O6       1.1763   7.6338   1.7391   O.co2     1 RES1   0.0000
    10 O7       6.4514   9.2792   5.4547   O.co2     1 RES1   0.0000
    11 O8       2.5002   3.6873   6.5704   O.co2     1 RES1   0.0000
    12 C1       3.0498   6.2657   1.2483   C.ar      1 RES1   0.0000
    13 C2       5.0441   5.0620   1.2867   C.ar      1 RES1   0.0000
    14 C3       5.2261   7.4649   6.3568   C.ar      1 RES1   0.0000
    15 C4       4.9371   4.8111  -0.0690   C.ar      1 RES1   0.0000
    16 H1       5.5877   4.3160  -0.5120   H         1 RES1   0.0000
    17 C5       2.8741   6.0336  -0.1021   C.ar      1 RES1   0.0000
    18 H2       2.1264   6.3535  -0.5545   H         1 RES1   0.0000
    19 C6       6.1315   4.6648   2.2392   C.2       1 RES1   0.0000
    20 C7       3.8494   5.3100  -0.7535   C.ar      1 RES1   0.0000
    21 H3       3.7723   5.1552  -1.6675   H         1 RES1   0.0000
    22 C8       3.9243   5.5678   6.7441   C.ar      1 RES1   0.0000
    23 C9       5.7592   8.2984   5.2253   C.2       1 RES1   0.0000
    24 C10      2.2035   7.1134   2.1623   C.2       1 RES1   0.0000
    25 C11      3.1452   4.5247   5.9787   C.2       1 RES1   0.0000
    26 C12      4.0891   5.6898   8.1039   C.ar      1 RES1   0.0000
    27 H4       3.7092   5.0728   8.6862   H         1 RES1   0.0000
    28 C13      5.4061   7.6536   7.7218   C.ar      1 RES1   0.0000
    29 H5       5.9014   8.3730   8.0415   H         1 RES1   0.0000
    30 C14      4.8363   6.7570   8.5841   C.ar      1 RES1   0.0000
    31 H6       4.9516   6.8640   9.5020   H         1 RES1   0.0000
    32 O9       9.5125   2.2837  12.3219   O.2       2 RES2   0.0000
    33 N3      11.1572   1.9623  10.7959   N.am      2 RES2   0.0000
    34 O10     12.7702   1.5651   9.2583   O.2       2 RES2   0.0000
    35 C15     13.5951   0.2068  13.7589   C.ar      2 RES2   0.0000
    36 N4       7.7769  -1.2829   6.3303   N.pl3     2 RES2   0.0000
    37 C16     13.1481   0.2017  15.0987   C.ar      2 RES2   0.0000
    38 C17     11.5190   1.3221  13.1288   C.ar      2 RES2   0.0000
    39 C18     11.1330   1.3284  14.4527   C.ar      2 RES2   0.0000
    40 H7      10.3192   1.7096  14.6901   H         2 RES2   0.0000
    41 C19     10.6440   1.8810  12.0888   C.2       2 RES2   0.0000
    42 C20     11.9407   0.7727  15.4343   C.ar      2 RES2   0.0000
    43 H8      11.6664   0.7869  16.3231   H         2 RES2   0.0000
    44 C21     12.3993   1.4491  10.4041   C.2       2 RES2   0.0000
    45 C22     10.3420   2.6289   9.7554   C.3       2 RES2   0.0000
    46 H9      10.9291   3.0085   9.0828   H         2 RES2   0.0000
    47 H10      9.8404   3.3554  10.1587   H         2 RES2   0.0000
    48 N5       8.7782  -0.3486   7.9314   N.pl3     2 RES2   1.0000
    49 C23      8.6772  -0.3989   6.6393   C.2       2 RES2   0.0000
    50 H11      9.1667   0.1122   6.0358   H         2 RES2   0.0000
    51 C24      7.2879  -1.8399   7.4565   C.2       2 RES2   0.0000
    52 H12      6.6457  -2.5111   7.5069   H         2 RES2   0.0000
    53 C25      9.3609   1.6450   9.0802   C.3       2 RES2   0.0000
    54 H13      8.7092   1.3702   9.7435   H         2 RES2   0.0000
    55 H14      8.8815   2.1276   8.3891   H         2 RES2   0.0000
    56 C26      7.9006  -1.2417   8.4925   C.2       2 RES2   0.0000
    57 H15      7.7602  -1.4012   9.3986   H         2 RES2   0.0000
    58 C27      9.8941   0.5081   8.5124   C.3       2 RES2   0.0000
    59 H16     10.3782   0.0035   9.1837   H         2 RES2   0.0000
    60 H17     10.5174   0.7536   7.8107   H         2 RES2   0.0000
    61 H18      7.6433  -1.5030   5.4123   H         2 RES2   0.0000
    62 O9A     16.8501  -1.3053  14.2090   O.2       2 RES2   0.0000
    63 N3A     15.2054  -0.9839  15.7349   N.am      2 RES2   0.0000
    64 O10A    13.5924  -0.5867  17.2725   O.2       2 RES2   0.0000
    65 C15A    12.7674   0.7716  12.7720   C.ar      2 RES2   0.0000
    66 N4A     18.5856   2.2613  20.2006   N.pl3     2 RES2   0.0000
    67 C16A    13.2145   0.7767  11.4321   C.ar      2 RES2   0.0000
    68 C17A    14.8436  -0.3437  13.4021   C.ar      2 RES2   0.0000
    69 C18A    15.2296  -0.3500  12.0782   C.ar      2 RES2   0.0000
    70 H7A     16.0434  -0.7312  11.8407   H         2 RES2   0.0000
    71 C19A    15.7185  -0.9026  14.4421   C.2       2 RES2   0.0000
    72 C20A    14.4218   0.2057  11.0965   C.ar      2 RES2   0.0000
    73 H8A     14.6962   0.1916  10.2077   H         2 RES2   0.0000
    74 C21A    13.9633  -0.4707  16.1268   C.2       2 RES2   0.0000
    75 C22A    16.0205  -1.6505  16.7755   C.3       2 RES2   0.0000
    76 H9A     15.4334  -2.0301  17.4480   H         2 RES2   0.0000
    77 H10A    16.5222  -2.3770  16.3722   H         2 RES2   0.0000
    78 N5A     17.5843   1.3270  18.5995   N.pl3     2 RES2   1.0000
    79 C23A    17.6853   1.3773  19.8915   C.2       2 RES2   0.0000
    80 H11A    17.1959   0.8662  20.4951   H         2 RES2   0.0000
    81 C24A    19.0746   2.8183  19.0744   C.2       2 RES2   0.0000
    82 H12A    19.7168   3.4895  19.0240   H         2 RES2   0.0000
    83 C25A    17.0016  -0.6666  17.4507   C.3       2 RES2   0.0000
    84 H13A    17.6534  -0.3918  16.7874   H         2 RES2   0.0000
    85 H14A    17.4811  -1.1492  18.1418   H         2 RES2   0.0000
    86 C26A    18.4619   2.2201  18.0383   C.2       2 RES2   0.0000
    87 H15A    18.6023   2.3796  17.1323   H         2 RES2   0.0000
    88 C27A    16.4684   0.4703  18.0184   C.3       2 RES2   0.0000
    89 H16A    15.9843   0.9749  17.3472   H         2 RES2   0.0000
    90 H17A    15.8451   0.2248  18.7202   H         2 RES2   0.0000
    91 H18A    18.7193   2.4814  21.1186   H         2 RES2   0.0000
    92 O11     13.0501  10.4340  15.1092   O.3       3 RES3   0.0000
    93 H19     13.5426   9.7789  15.1465   H         3 RES3   0.0000
    94 O12      9.8837  12.0335  11.9366   O.3       3 RES3   0.0000
    95 H20      9.4240  12.0811  12.6141   H         3 RES3   0.0000
    96 O13     13.9598  10.2228  10.4099   O.3       3 RES3   0.0000
    97 H21     14.7070  10.0281  10.6866   H         3 RES3   0.0000
    98 C28     11.4917  11.2834  13.5626   C.ar      3 RES3   0.0000
    99 H22     10.9494  11.5647  14.2643   H         3 RES3   0.0000
   100 C29     12.7006  10.6685  13.8053   C.ar      3 RES3   0.0000
   101 C30     13.5470  10.3047  12.7759   C.ar      3 RES3   0.0000
   102 H23     14.3676   9.9070  12.9563   H         3 RES3   0.0000
   103 C31     11.1052  11.4730  12.2480   C.ar      3 RES3   0.0000
   104 C32     13.1517  10.5450  11.4666   C.ar      3 RES3   0.0000
   105 C33     11.9172  11.1054  11.1881   C.ar      3 RES3   0.0000
   106 H24     11.6387  11.2313  10.3099   H         3 RES3   0.0000
   107 O14      7.7853  11.0433   3.9146   O.3       4 RES4   0.0000
   108 H25      8.4273  10.7285   3.4556   H         4 RES4   0.0000
   109 H26      7.3621  10.4886   4.1653   H         4 RES4   0.0000
   110 O15      9.9811   2.1678   5.3659   O.3       5 RES5   0.0000
   111 H27      9.8849   2.4295   4.5633   H         5 RES5   0.0000
   112 H28     10.7134   2.4691   5.6750   H         5 RES5   0.0000
@<TRIPOS>BOND
     1     1     2    1
     2     2    25    1
     3     3     1    1
     4     4     1    1
     5     5     1    1
     6     6     1    1
     7     7     1    1
     8     8    19    2
     9     9    24    2
    10    10    23    2
    11    11    25    2
    12    12     4   ar
    13    13     4   ar
    14    14     7   ar
    15    15    13   ar
    16    16    15    1
    17    17    12   ar
    18    18    17    1
    19    19     3    1
    20    20    15   ar
    21    21    20    1
    22    22     7   ar
    23    23     5    1
    24    24     6    1
    25    25    22    1
    26    26    22   ar
    27    27    26    1
    28    28    14   ar
    29    29    28    1
    30    30    26   ar
    31    31    30    1
    32    12    24    1
    33    13    19    1
    34    14    23    1
    35    17    20   ar
    36    28    30   ar
    37    32    41    2
    38    33    41   am
    39    34    44    2
    40    35    37   ar
    41    36    49    1
    42    37    42   ar
    43    38    39   ar
    44    39    40    1
    45    41    38    1
    46    42    39   ar
    47    43    42    1
    48    44    33   am
    49    45    33    1
    50    46    45    1
    51    47    45    1
    52    48    49    2
    53    49    50    1
    54    51    36    1
    55    52    51    1
    56    53    45    1
    57    54    53    1
    58    55    53    1
    59    56    48    1
    60    57    56    1
    61    58    48    1
    62    59    58    1
    63    60    58    1
    64    61    36    1
    65    62    71    2
    66    63    71   am
    67    64    74    2
    68    65    35   ar
    69    66    79    1
    70    67    44    1
    71    68    35   ar
    72    69    68   ar
    73    70    69    1
    74    71    68    1
    75    72    67   ar
    76    73    72    1
    77    74    37    1
    78    75    63    1
    79    76    75    1
    80    77    75    1
    81    78    79    2
    82    79    80    1
    83    81    66    1
    84    82    81    1
    85    83    75    1
    86    84    83    1
    87    85    83    1
    88    86    78    1
    89    87    86    1
    90    88    78    1
    91    89    88    1
    92    90    88    1
    93    91    66    1
    94    38    65   ar
    95    51    56    2
    96    53    58    1
    97    63    74   am
    98    65    67   ar
    99    69    72   ar
   100    81    86    2
   101    83    88    1
   102    92    93    1
   103    94    95    1
   104    96    97    1
   105    98    99    1
   106   100    92    1
   107   101   100   ar
   108   102   101    1
   109   103    94    1
   110   104    96    1
   111   105   103   ar
   112   106   105    1
   113    98   100   ar
   114    98   103   ar
   115   101   104   ar
   116   104   105   ar
   117   107   108    1
   118   109   107    1
   119   110   111    1
   120   112   110    1
@<TRIPOS>SUBSTRUCTURE
     1 RES1        1 GROUP             0 ****  ****    0  
     2 RES2       32 GROUP             0 ****  ****    0  
     3 RES3       92 GROUP             0 ****  ****    0  
     4 RES4      107 GROUP             0 ****  ****    0  
     5 RES5      110 GROUP             0 ****  ****    0  
@<TRIPOS>CRYSIN
    9.5174   13.3262   13.7708   87.0330   74.5700   86.4870     2     1
