@<TRIPOS>MOLECULE
GUMJAC
   112   120     5     0     0
SMALL
USER_CHARGES
****
Generated from the CSD

@<TRIPOS>ATOM
     1 Fe1      6.7321  -0.4249   4.9230   Fe        1 RES1   1.0000
     2 O1       8.0338  -1.4298   3.7749   O.co2     1 RES1   0.0000
     3 O2       5.3818  -1.9193   4.8050   O.co2     1 RES1  -1.0000
     4 O3       8.1433   0.6430   5.9527   O.co2     1 RES1  -1.0000
     5 O4       5.3473   1.0185   5.1624   O.co2     1 RES1   0.0000
     6 N1       6.8524  -1.3560   6.7571   N.ar      1 RES1   0.0000
     7 N2       6.8501   0.6851   3.1860   N.ar      1 RES1   0.0000
     8 O5       9.1544  -1.5163   1.8360   O.co2     1 RES1   0.0000
     9 O6       4.4516  -3.6842   5.8314   O.co2     1 RES1   0.0000
    10 C1       7.7043   0.3129   2.2422   C.ar      1 RES1   0.0000
    11 O7       9.2644   0.9104   7.8372   O.co2     1 RES1   0.0000
    12 C2       8.3804  -0.9839   2.6055   C.2       1 RES1   0.0000
    13 C3       6.1029  -2.4283   6.9628   C.ar      1 RES1   0.0000
    14 C4       7.6886  -0.8495   7.6748   C.ar      1 RES1   0.0000
    15 C5       5.2296  -2.7339   5.8048   C.2       1 RES1   0.0000
    16 C6       6.0970   1.7937   3.0856   C.ar      1 RES1   0.0000
    17 C7       7.8380   1.0822   1.1004   C.ar      1 RES1   0.0000
    18 H1       8.4307   0.8311   0.4298   H         1 RES1   0.0000
    19 O8       4.5142   2.9447   4.4060   O.co2     1 RES1   0.0000
    20 C8       5.2384   1.9631   4.2923   C.2       1 RES1   0.0000
    21 C9       8.4362   0.3356   7.1460   C.2       1 RES1   0.0000
    22 C10      6.1940  -3.0884   8.1976   C.ar      1 RES1   0.0000
    23 H2       5.6787  -3.8431   8.3705   H         1 RES1   0.0000
    24 C11      6.2025   2.5875   1.9660   C.ar      1 RES1   0.0000
    25 H3       5.6886   3.3581   1.8803   H         1 RES1   0.0000
    26 C12      7.0889   2.2141   0.9704   C.ar      1 RES1   0.0000
    27 H4       7.1739   2.7394   0.2068   H         1 RES1   0.0000
    28 C13      7.0610  -2.5968   9.1474   C.ar      1 RES1   0.0000
    29 H5       7.1445  -3.0366   9.9627   H         1 RES1   0.0000
    30 C14      7.8010  -1.4698   8.9081   C.ar      1 RES1   0.0000
    31 H6       8.3686  -1.1286   9.5610   H         1 RES1   0.0000
    32 O9       2.6938   5.7934  15.2828   O.2       2 RES2   0.0000
    33 N3       2.9349   7.1077  13.4546   N.am      2 RES2   0.0000
    34 N4       3.1052   2.7948  11.1290   N.pl3     2 RES2   0.0000
    35 O10      3.2135   8.4379  11.6466   O.2       2 RES2   0.0000
    36 C15     -0.1991  11.0100  14.3067   C.ar      2 RES2   0.0000
    37 C16      0.1068   9.8325  15.0275   C.ar      2 RES2   0.0000
    38 N5       1.7974   1.6223   9.9391   N.pl3     2 RES2   1.0000
    39 C17      1.7028   9.2339  13.2905   C.ar      2 RES2   0.0000
    40 C18      3.8436   6.1007  12.8740   C.3       2 RES2   0.0000
    41 H7       4.4334   5.7587  13.5638   H         2 RES2   0.0000
    42 H8       4.3908   6.5129  12.1872   H         2 RES2   0.0000
    43 C19      2.6760   8.2620  12.7115   C.2       2 RES2   0.0000
    44 C20      1.3983  10.3990  12.6288   C.ar      2 RES2   0.0000
    45 H9       1.8306  10.5992  11.8297   H         2 RES2   0.0000
    46 C21      0.4540  11.2806  13.1339   C.ar      2 RES2   0.0000
    47 H10      0.2626  12.0645  12.6716   H         2 RES2   0.0000
    48 C22      3.0336   4.9464  12.2669   C.3       2 RES2   0.0000
    49 H11      2.5300   4.5054  12.9685   H         2 RES2   0.0000
    50 H12      2.3997   5.3040  11.6244   H         2 RES2   0.0000
    51 C23      2.3802   6.8072  14.6981   C.2       2 RES2   0.0000
    52 C24      3.9191   3.9394  11.5830   C.3       2 RES2   0.0000
    53 H13      4.3588   4.3508  10.8224   H         2 RES2   0.0000
    54 H14      4.6026   3.6325  12.1975   H         2 RES2   0.0000
    55 C25      2.4971   2.6291   9.9745   C.2       2 RES2   0.0000
    56 H15      2.5877   3.2160   9.2582   H         2 RES2   0.0000
    57 C26      2.7126   1.7389  11.8991   C.2       2 RES2   0.0000
    58 H16      2.9752   1.5740  12.7765   H         2 RES2   0.0000
    59 C27      1.8899   0.9874  11.1783   C.2       2 RES2   0.0000
    60 H17      1.4644   0.2040  11.4427   H         2 RES2   0.0000
    61 H18      1.2642   1.0745   9.6008   H         2 RES2   0.0000
    62 O9A     -1.5320  12.9791  14.2583   O.2       2 RES2   0.0000
    63 N3A     -1.7731  11.6648  16.0864   N.am      2 RES2   0.0000
    64 N4A     -1.9434  15.9776  18.4120   N.pl3     2 RES2   0.0000
    65 O10A    -2.0516  10.3345  17.8945   O.2       2 RES2   0.0000
    66 C15A     1.3609   7.7624  15.2343   C.ar      2 RES2   0.0000
    67 C16A     1.0550   8.9400  14.5135   C.ar      2 RES2   0.0000
    68 N5A     -0.6355  17.1501  19.6020   N.pl3     2 RES2   1.0000
    69 C17A    -0.5410   9.5385  16.2505   C.ar      2 RES2   0.0000
    70 C18A    -2.6818  12.6718  16.6671   C.3       2 RES2   0.0000
    71 H7A     -3.2716  13.0138  15.9773   H         2 RES2   0.0000
    72 H8A     -3.2289  12.2595  17.3539   H         2 RES2   0.0000
    73 C19A    -1.5141  10.5104  16.8295   C.2       2 RES2   0.0000
    74 C20A    -0.2365   8.3734  16.9122   C.ar      2 RES2   0.0000
    75 H9A     -0.6688   8.1733  17.7113   H         2 RES2   0.0000
    76 C21A     0.7078   7.4919  16.4071   C.ar      2 RES2   0.0000
    77 H10A     0.8993   6.7080  16.8694   H         2 RES2   0.0000
    78 C22A    -1.8718  13.8260  17.2741   C.3       2 RES2   0.0000
    79 H11A    -1.3682  14.2671  16.5725   H         2 RES2   0.0000
    80 H12A    -1.2379  13.4685  17.9166   H         2 RES2   0.0000
    81 C23A    -1.2184  11.9652  14.8429   C.2       2 RES2   0.0000
    82 C24A    -2.7573  14.8330  17.9580   C.3       2 RES2   0.0000
    83 H13A    -3.1970  14.4216  18.7187   H         2 RES2   0.0000
    84 H14A    -3.4408  15.1399  17.3435   H         2 RES2   0.0000
    85 C25A    -1.3353  16.1433  19.5665   C.2       2 RES2   0.0000
    86 H15A    -1.4258  15.5564  20.2829   H         2 RES2   0.0000
    87 C26A    -1.5507  17.0336  17.6419   C.2       2 RES2   0.0000
    88 H16A    -1.8134  17.1984  16.7645   H         2 RES2   0.0000
    89 C27A    -0.7280  17.7851  18.3627   C.2       2 RES2   0.0000
    90 H17A    -0.3026  18.5684  18.0983   H         2 RES2   0.0000
    91 H18A    -0.1023  17.6980  19.9402   H         2 RES2   0.0000
    92 O11      8.4486   9.2593   3.5257   O.3       3 RES3   0.0000
    93 H19      9.0485   9.0769   4.0545   H         3 RES3   0.0000
    94 O12      5.7862   7.4747  -0.1315   O.2       3 RES3   0.0000
    95 C28      7.5917   8.1945   3.4238   C.ar      3 RES3   0.0000
    96 N6       5.5298   6.6790   0.7533   N.pl3     3 RES3   0.0000
    97 C29      7.3387   7.3431   4.4696   C.ar      3 RES3   0.0000
    98 H20      7.7563   7.4746   5.2893   H         3 RES3   0.0000
    99 C30      6.1365   6.9241   2.0605   C.ar      3 RES3   0.0000
   100 C31      5.8431   6.0698   3.0870   C.ar      3 RES3   0.0000
   101 H21      5.2487   5.3633   2.9733   H         3 RES3   0.0000
   102 C32      6.4649   6.2974   4.2982   C.ar      3 RES3   0.0000
   103 H22      6.2893   5.7302   5.0146   H         3 RES3   0.0000
   104 C33      6.9993   7.9942   2.2141   C.ar      3 RES3   0.0000
   105 H23      7.1716   8.5678   1.5036   H         3 RES3   0.0000
   106 O13      4.8465   5.6729   0.6174   O.2       3 RES3   0.0000
   107 O14      2.4929   3.3477   6.3469   O.3       4 RES4   0.0000
   108 H24      1.8324   3.8751   6.2553   H         4 RES4   0.0000
   109 H25      2.2175   2.5439   6.3410   H         4 RES4   0.0000
   110 O15      5.2658   6.1583   9.4177   O.3       5 RES5   0.0000
   111 H26      5.2530   5.4280   8.9849   H         5 RES5   0.0000
   112 H27      5.8032   6.7012   9.0440   H         5 RES5   0.0000
@<TRIPOS>BOND
     1     1     2    1
     2     2    12    1
     3     3     1    1
     4     4     1    1
     5     5     1    1
     6     6     1    1
     7     7     1    1
     8     8    12    2
     9     9    15    2
    10    10     7   ar
    11    11    21    2
    12    12    10    1
    13    13     6   ar
    14    14     6   ar
    15    15     3    1
    16    16     7   ar
    17    17    10   ar
    18    18    17    1
    19    19    20    2
    20    20     5    1
    21    21     4    1
    22    22    13   ar
    23    23    22    1
    24    24    16   ar
    25    25    24    1
    26    26    17   ar
    27    27    26    1
    28    28    22   ar
    29    29    28    1
    30    30    14   ar
    31    31    30    1
    32    13    15    1
    33    14    21    1
    34    16    20    1
    35    24    26   ar
    36    28    30   ar
    37    32    51    2
    38    33    40    1
    39    34    52    1
    40    35    43    2
    41    36    37   ar
    42    37    67   ar
    43    38    55    2
    44    39    43    1
    45    40    41    1
    46    42    40    1
    47    43    33   am
    48    44    39   ar
    49    45    44    1
    50    46    36   ar
    51    47    46    1
    52    48    40    1
    53    49    48    1
    54    50    48    1
    55    51    33   am
    56    52    48    1
    57    53    52    1
    58    54    52    1
    59    55    34    1
    60    56    55    1
    61    57    34    1
    62    58    57    1
    63    59    38    1
    64    60    59    1
    65    61    38    1
    66    62    81    2
    67    63    70    1
    68    64    82    1
    69    65    73    2
    70    66    51    1
    71    67    39   ar
    72    68    85    2
    73    69    37   ar
    74    70    71    1
    75    72    70    1
    76    73    63   am
    77    74    69   ar
    78    75    74    1
    79    76    66   ar
    80    77    76    1
    81    78    70    1
    82    79    78    1
    83    80    78    1
    84    81    36    1
    85    82    78    1
    86    83    82    1
    87    84    82    1
    88    85    64    1
    89    86    85    1
    90    87    64    1
    91    88    87    1
    92    89    68    1
    93    90    89    1
    94    91    68    1
    95    44    46   ar
    96    57    59    2
    97    63    81   am
    98    66    67   ar
    99    69    73    1
   100    74    76   ar
   101    87    89    2
   102    92    93    1
   103    94    96    2
   104    95    92    1
   105    96    99    1
   106    97    95   ar
   107    98    97    1
   108    99   100   ar
   109   100   101    1
   110   102    97   ar
   111   103   102    1
   112   104    95   ar
   113   105   104    1
   114   106    96    2
   115    99   104   ar
   116   100   102   ar
   117   107   108    1
   118   109   107    1
   119   110   111    1
   120   112   110    1
@<TRIPOS>SUBSTRUCTURE
     1 RES1        1 GROUP             0 ****  ****    0  
     2 RES2       32 GROUP             0 ****  ****    0  
     3 RES3       92 GROUP             0 ****  ****    0  
     4 RES4      107 GROUP             0 ****  ****    0  
     5 RES5      110 GROUP             0 ****  ****    0  
@<TRIPOS>CRYSIN
    9.1151   13.7030   15.2454  103.5810   90.5730  106.2050     2     1
