@<TRIPOS>MOLECULE
HADZAO
   103   108     3     0     0
SMALL
USER_CHARGES
****
Generated from the CSD

@<TRIPOS>ATOM
     1 P1       2.2896   8.0428  12.9407   P.3       1 RES1   1.0000
     2 C1       3.2107   9.4279  13.6490   C.ar      1 RES1   0.0000
     3 C2       3.8202  10.3897  12.8545   C.ar      1 RES1   0.0000
     4 C3       4.5003  11.4359  13.4518   C.ar      1 RES1   0.0000
     5 C4       4.5724  11.5234  14.8184   C.ar      1 RES1   0.0000
     6 C5       3.9722  10.5759  15.6077   C.ar      1 RES1   0.0000
     7 C6       3.2868   9.5211  15.0324   C.ar      1 RES1   0.0000
     8 C7       0.5970   8.1448  13.5177   C.ar      1 RES1   0.0000
     9 C8       0.0703   9.3514  13.9591   C.ar      1 RES1   0.0000
    10 C9      -1.2567   9.4155  14.3445   C.ar      1 RES1   0.0000
    11 C10     -2.0475   8.2968  14.2922   C.ar      1 RES1   0.0000
    12 C11     -1.5324   7.1018  13.8567   C.ar      1 RES1   0.0000
    13 C12     -0.2075   7.0143  13.4657   C.ar      1 RES1   0.0000
    14 C13      2.9694   6.4718  13.4845   C.ar      1 RES1   0.0000
    15 C14      2.8372   6.1109  14.8188   C.ar      1 RES1   0.0000
    16 C15      3.3150   4.8844  15.2438   C.ar      1 RES1   0.0000
    17 C16      3.9154   4.0302  14.3544   C.ar      1 RES1   0.0000
    18 C17      4.0485   4.3818  13.0355   C.ar      1 RES1   0.0000
    19 C18      3.5780   5.6032  12.5883   C.ar      1 RES1   0.0000
    20 C19      2.3240   8.1008  11.1458   C.ar      1 RES1   0.0000
    21 C20      1.1424   7.9776  10.4271   C.ar      1 RES1   0.0000
    22 C21      1.1789   8.0103   9.0447   C.ar      1 RES1   0.0000
    23 C22      2.3730   8.1630   8.3879   C.ar      1 RES1   0.0000
    24 C23      3.5430   8.2850   9.0930   C.ar      1 RES1   0.0000
    25 C24      3.5304   8.2551  10.4759   C.ar      1 RES1   0.0000
    26 H1       3.7678  10.3277  11.8580   H         1 RES1   0.0000
    27 H2       4.9408  12.1320  12.8844   H         1 RES1   0.0000
    28 H3       5.0660  12.2838  15.2433   H         1 RES1   0.0000
    29 H4       4.0298  10.6484  16.6040   H         1 RES1   0.0000
    30 H5       2.8497   8.8313  15.6082   H         1 RES1   0.0000
    31 H6       0.6459  10.1674  13.9979   H         1 RES1   0.0000
    32 H7      -1.6415  10.2807  14.6642   H         1 RES1   0.0000
    33 H8      -3.0053   8.3502  14.5724   H         1 RES1   0.0000
    34 H9      -2.1158   6.2915  13.8214   H         1 RES1   0.0000
    35 H10      0.1680   6.1440  13.1481   H         1 RES1   0.0000
    36 H11      2.3999   6.7341  15.4669   H         1 RES1   0.0000
    37 H12      3.2228   4.6198  16.2038   H         1 RES1   0.0000
    38 H13      4.2585   3.1447  14.6689   H         1 RES1   0.0000
    39 H14      4.4871   3.7518  12.3947   H         1 RES1   0.0000
    40 H15      3.6749   5.8597  11.6273   H         1 RES1   0.0000
    41 H16      0.2719   7.8671  10.9045   H         1 RES1   0.0000
    42 H17      0.3308   7.9227   8.5221   H         1 RES1   0.0000
    43 H18      2.3911   8.1856   7.3874   H         1 RES1   0.0000
    44 H19      4.4093   8.3951   8.6045   H         1 RES1   0.0000
    45 H20      4.3839   8.3438  10.9893   H         1 RES1   0.0000
    46 P2      -0.9816   1.6983  14.9064   P.3       2 RES2   1.0000
    47 C25     -2.5099   0.8303  14.5954   C.ar      2 RES2   0.0000
    48 C26     -3.1980   0.9740  13.3981   C.ar      2 RES2   0.0000
    49 C27     -4.3941   0.3038  13.2147   C.ar      2 RES2   0.0000
    50 C28     -4.8973  -0.4970  14.2077   C.ar      2 RES2   0.0000
    51 C29     -4.2216  -0.6424  15.3921   C.ar      2 RES2   0.0000
    52 C30     -3.0238   0.0182  15.5976   C.ar      2 RES2   0.0000
    53 C31      0.1227   0.5849  15.7671   C.ar      2 RES2   0.0000
    54 C32      0.1106  -0.7683  15.4568   C.ar      2 RES2   0.0000
    55 C33      0.9524  -1.6309  16.1360   C.ar      2 RES2   0.0000
    56 C34      1.7930  -1.1536  17.1087   C.ar      2 RES2   0.0000
    57 C35      1.8088   0.1821  17.4190   C.ar      2 RES2   0.0000
    58 C36      0.9757   1.0629  16.7530   C.ar      2 RES2   0.0000
    59 C37     -1.2854   3.1552  15.9083   C.ar      2 RES2   0.0000
    60 C38     -0.3257   4.1578  15.9486   C.ar      2 RES2   0.0000
    61 C39     -0.5339   5.2688  16.7460   C.ar      2 RES2   0.0000
    62 C40     -1.6796   5.3800  17.4918   C.ar      2 RES2   0.0000
    63 C41     -2.6306   4.3925  17.4555   C.ar      2 RES2   0.0000
    64 C42     -2.4436   3.2728  16.6652   C.ar      2 RES2   0.0000
    65 C43     -0.2205   2.2582  13.3854   C.ar      2 RES2   0.0000
    66 C44      0.9534   1.6846  12.9152   C.ar      2 RES2   0.0000
    67 C45      1.5096   2.1414  11.7339   C.ar      2 RES2   0.0000
    68 C46      0.9065   3.1530  11.0314   C.ar      2 RES2   0.0000
    69 C47     -0.2529   3.7230  11.4912   C.ar      2 RES2   0.0000
    70 C48     -0.8269   3.2822  12.6702   C.ar      2 RES2   0.0000
    71 H21     -2.8316   1.5585  12.6725   H         2 RES2   0.0000
    72 H22     -4.8938   0.4040  12.3547   H         2 RES2   0.0000
    73 H23     -5.7623  -0.9791  14.0662   H         2 RES2   0.0000
    74 H24     -4.5964  -1.2292  16.1096   H         2 RES2   0.0000
    75 H25     -2.5311  -0.0876  16.4604   H         2 RES2   0.0000
    76 H26     -0.5019  -1.1181  14.7466   H         2 RES2   0.0000
    77 H27      0.9476  -2.6060  15.9166   H         2 RES2   0.0000
    78 H28      2.3980  -1.7829  17.5951   H         2 RES2   0.0000
    79 H29      2.4255   0.5216  18.1295   H         2 RES2   0.0000
    80 H30      0.9876   2.0373  16.9807   H         2 RES2   0.0000
    81 H31      0.5093   4.0768  15.4057   H         2 RES2   0.0000
    82 H32      0.1544   5.9944  16.7782   H         2 RES2   0.0000
    83 H33     -1.8225   6.1868  18.0660   H         2 RES2   0.0000
    84 H34     -3.4625   4.4830  18.0024   H         2 RES2   0.0000
    85 H35     -3.1378   2.5525  16.6393   H         2 RES2   0.0000
    86 H36      1.3935   0.9470  13.4259   H         2 RES2   0.0000
    87 H37      2.3554   1.7316  11.3895   H         2 RES2   0.0000
    88 H38      1.3153   3.4782  10.1771   H         2 RES2   0.0000
    89 H39     -0.6857   4.4595  10.9728   H         2 RES2   0.0000
    90 H40     -1.6724   3.6984  13.0045   H         2 RES2   0.0000
    91 Fe1      5.5123   4.7840   8.3785   Fe        3 RES3  -2.0000
    92 C49      5.3486   3.2879   9.6097   C.1       3 RES3   0.0000
    93 N1       5.1069   2.4627  10.3631   N.1       3 RES3   0.0000
    94 C50      6.1341   5.9196   9.8263   C.1       3 RES3   0.0000
    95 N2       6.5135   6.6229  10.6432   N.1       3 RES3   0.0000
    96 C51      5.2819   3.6043   6.8530   C.1       3 RES3   0.0000
    97 N3       5.1310   2.9202   5.9490   N.1       3 RES3   0.0000
    98 C52      7.3843   4.2970   8.1925   C.1       3 RES3   0.0000
    99 N4       8.4812   4.0062   8.0725   N.1       3 RES3   0.0000
   100 C53      5.8730   6.2980   7.2014   C.1       3 RES3   0.0000
   101 N5       6.0423   7.2407   6.5846   N.1       3 RES3   0.0000
   102 N6       3.9003   5.0495   8.5527   N.2       3 RES3   0.0000
   103 O1       2.7664   5.1158   8.7010   O.2       3 RES3   0.0000
@<TRIPOS>BOND
     1     1     2    1
     2     2     3   ar
     3     3     4   ar
     4     4     5   ar
     5     5     6   ar
     6     6     7   ar
     7     7     2   ar
     8     8     1    1
     9     9     8   ar
    10    10     9   ar
    11    11    10   ar
    12    12    11   ar
    13    13     8   ar
    14    14     1    1
    15    15    14   ar
    16    16    15   ar
    17    17    16   ar
    18    18    17   ar
    19    19    14   ar
    20    20     1    1
    21    21    20   ar
    22    22    21   ar
    23    23    22   ar
    24    24    23   ar
    25    25    20   ar
    26    26     3    1
    27    27     4    1
    28    28     5    1
    29    29     6    1
    30    30     7    1
    31    31     9    1
    32    32    10    1
    33    33    11    1
    34    34    12    1
    35    35    13    1
    36    36    15    1
    37    37    16    1
    38    38    17    1
    39    39    18    1
    40    40    19    1
    41    41    21    1
    42    42    22    1
    43    43    23    1
    44    44    24    1
    45    45    25    1
    46    12    13   ar
    47    18    19   ar
    48    24    25   ar
    49    46    47    1
    50    47    48   ar
    51    48    49   ar
    52    49    50   ar
    53    50    51   ar
    54    51    52   ar
    55    52    47   ar
    56    53    46    1
    57    54    53   ar
    58    55    54   ar
    59    56    55   ar
    60    57    56   ar
    61    58    53   ar
    62    59    46    1
    63    60    59   ar
    64    61    60   ar
    65    62    61   ar
    66    63    62   ar
    67    64    59   ar
    68    65    46    1
    69    66    65   ar
    70    67    66   ar
    71    68    67   ar
    72    69    68   ar
    73    70    65   ar
    74    71    48    1
    75    72    49    1
    76    73    50    1
    77    74    51    1
    78    75    52    1
    79    76    54    1
    80    77    55    1
    81    78    56    1
    82    79    57    1
    83    80    58    1
    84    81    60    1
    85    82    61    1
    86    83    62    1
    87    84    63    1
    88    85    64    1
    89    86    66    1
    90    87    67    1
    91    88    68    1
    92    89    69    1
    93    90    70    1
    94    57    58   ar
    95    63    64   ar
    96    69    70   ar
    97    91    92    1
    98    92    93    3
    99    94    91    1
   100    95    94    3
   101    96    91    1
   102    97    96    3
   103    98    91    1
   104    99    98    3
   105   100    91    1
   106   101   100    3
   107   102    91    1
   108   103   102    2
@<TRIPOS>SUBSTRUCTURE
     1 RES1        1 GROUP             0 ****  ****    0  
     2 RES2       46 GROUP             0 ****  ****    0  
     3 RES3       91 GROUP             0 ****  ****    0  
@<TRIPOS>CRYSIN
    8.9930   21.3780   24.3240   90.0000  104.5700   90.0000    14     1
