@<TRIPOS>MOLECULE
HAFHUS
   114   122     2     0     0
SMALL
NO_CHARGES
****
Generated from the CSD

@<TRIPOS>ATOM
     1 Fe1      0.8641   5.4783  13.4309   Fe        1 RES1   0.0000
     2 H1       0.2200   5.8550  14.8186   H         1 RES1   0.0000
     3 Se1      2.9864   5.1224   9.0323   Se        1 RES1   0.0000
     4 P1       2.4314   6.7123  14.4270   P.3       1 RES1   0.0000
     5 P2       1.7341   3.7878  14.6348   P.3       1 RES1   0.0000
     6 P3      -0.1521   7.2116  12.3818   P.3       1 RES1   0.0000
     7 P4      -0.8900   4.2974  12.6398   P.3       1 RES1   0.0000
     8 N1       1.8563   5.2160  11.7545   N.2       1 RES1   0.0000
     9 C1       2.1037   8.4270  14.9910   C.ar      1 RES1   0.0000
    10 C2       2.9304   9.5097  14.6848   C.ar      1 RES1   0.0000
    11 H2       3.7004   9.3772  14.1815   H         1 RES1   0.0000
    12 C3       2.6073  10.7783  15.1283   C.ar      1 RES1   0.0000
    13 H3       3.1589  11.4962  14.9066   H         1 RES1   0.0000
    14 C4       1.4824  10.9967  15.8921   C.ar      1 RES1   0.0000
    15 H4       1.2651  11.8517  16.1860   H         1 RES1   0.0000
    16 C5       0.6967   9.9325  16.2071   C.ar      1 RES1   0.0000
    17 H5      -0.0591  10.0603  16.7316   H         1 RES1   0.0000
    18 C6       1.0037   8.6593  15.7566   C.ar      1 RES1   0.0000
    19 H6       0.4474   7.9507  15.9819   H         1 RES1   0.0000
    20 C7       4.0553   6.8331  13.6165   C.ar      1 RES1   0.0000
    21 C8       5.2400   6.3568  14.1656   C.ar      1 RES1   0.0000
    22 H7       5.2249   5.9897  15.0209   H         1 RES1   0.0000
    23 C9       6.4456   6.4149  13.4757   C.ar      1 RES1   0.0000
    24 H8       7.2218   6.0594  13.8453   H         1 RES1   0.0000
    25 C10      6.4620   6.9934  12.2596   C.ar      1 RES1   0.0000
    26 H9       7.2703   7.0724  11.8056   H         1 RES1   0.0000
    27 C11      5.3168   7.4721  11.6718   C.ar      1 RES1   0.0000
    28 H10      5.3539   7.8461  10.8200   H         1 RES1   0.0000
    29 C12      4.1299   7.4000  12.3283   C.ar      1 RES1   0.0000
    30 H11      3.3600   7.7253  11.9217   H         1 RES1   0.0000
    31 C13      2.7507   2.4256  13.9650   C.ar      1 RES1   0.0000
    32 C14      3.4953   1.6078  14.8397   C.ar      1 RES1   0.0000
    33 H12      3.4611   1.7472  15.7584   H         1 RES1   0.0000
    34 C15      4.2755   0.5994  14.3187   C.ar      1 RES1   0.0000
    35 H13      4.7627   0.0627  14.9030   H         1 RES1   0.0000
    36 C16      4.3597   0.3601  13.0023   C.ar      1 RES1   0.0000
    37 H14      4.8931  -0.3346  12.6926   H         1 RES1   0.0000
    38 C17      3.6558   1.1454  12.1012   C.ar      1 RES1   0.0000
    39 H15      3.7199   0.9921  11.1878   H         1 RES1   0.0000
    40 C18      2.8461   2.1701  12.5958   C.ar      1 RES1   0.0000
    41 H16      2.3584   2.6928  12.0009   H         1 RES1   0.0000
    42 C19      0.6447   2.8508  15.7619   C.ar      1 RES1   0.0000
    43 C20      0.1331   3.4572  16.8970   C.ar      1 RES1   0.0000
    44 H17      0.3424   4.3471  17.0625   H         1 RES1   0.0000
    45 C21     -0.6745   2.7881  17.7893   C.ar      1 RES1   0.0000
    46 H18     -1.0022   3.2272  18.5408   H         1 RES1   0.0000
    47 C22     -0.9921   1.4730  17.5658   C.ar      1 RES1   0.0000
    48 H19     -1.5413   1.0223  18.1642   H         1 RES1   0.0000
    49 C23     -0.5051   0.8248  16.4676   C.ar      1 RES1   0.0000
    50 H20     -0.7220  -0.0674  16.3198   H         1 RES1   0.0000
    51 C24      0.3163   1.5009  15.5700   C.ar      1 RES1   0.0000
    52 H21      0.6524   1.0502  14.8309   H         1 RES1   0.0000
    53 C25      0.7265   8.6338  11.6208   C.ar      1 RES1   0.0000
    54 C26      0.8141   9.8605  12.2526   C.ar      1 RES1   0.0000
    55 H22      0.4319   9.9720  13.0921   H         1 RES1   0.0000
    56 C27      1.4666  10.9270  11.6489   C.ar      1 RES1   0.0000
    57 H23      1.4889  11.7494  12.0801   H         1 RES1   0.0000
    58 C28      2.0632  10.7922  10.4610   C.ar      1 RES1   0.0000
    59 H24      2.4956  11.5171  10.0685   H         1 RES1   0.0000
    60 C29      2.0300   9.5747   9.8257   C.ar      1 RES1   0.0000
    61 H25      2.4653   9.4748   9.0108   H         1 RES1   0.0000
    62 C30      1.3625   8.4990  10.3747   C.ar      1 RES1   0.0000
    63 H26      1.3333   7.6858   9.9224   H         1 RES1   0.0000
    64 C31     -1.6015   8.0645  13.1625   C.ar      1 RES1   0.0000
    65 C32     -2.3176   9.0125  12.4057   C.ar      1 RES1   0.0000
    66 H27     -2.0356   9.2216  11.5451   H         1 RES1   0.0000
    67 C33     -3.4077   9.6212  12.9178   C.ar      1 RES1   0.0000
    68 H28     -3.8729  10.2462  12.4092   H         1 RES1   0.0000
    69 C34     -3.8336   9.3168  14.2026   C.ar      1 RES1   0.0000
    70 H29     -4.5807   9.7420  14.5581   H         1 RES1   0.0000
    71 C35     -3.1509   8.3805  14.9576   C.ar      1 RES1   0.0000
    72 H30     -3.4335   8.1737  15.8200   H         1 RES1   0.0000
    73 C36     -2.0428   7.7509  14.4138   C.ar      1 RES1   0.0000
    74 H31     -1.5932   7.1073  14.9101   H         1 RES1   0.0000
    75 C37     -0.5098   2.8043  11.6472   C.ar      1 RES1   0.0000
    76 C38     -0.0123   2.9321  10.3783   C.ar      1 RES1   0.0000
    77 H32      0.0338   3.7755   9.9893   H         1 RES1   0.0000
    78 C39      0.4293   1.8192   9.6549   C.ar      1 RES1   0.0000
    79 H33      0.7898   1.9238   8.8031   H         1 RES1   0.0000
    80 C40      0.3202   0.5739  10.2199   C.ar      1 RES1   0.0000
    81 H34      0.6008  -0.1766   9.7447   H         1 RES1   0.0000
    82 C41     -0.1950   0.4252  11.4712   C.ar      1 RES1   0.0000
    83 H35     -0.2655  -0.4252  11.8408   H         1 RES1   0.0000
    84 C42     -0.6157   1.5265  12.2015   C.ar      1 RES1   0.0000
    85 H36     -0.9651   1.4150  13.0569   H         1 RES1   0.0000
    86 C43     -2.3246   3.7453  13.6429   C.ar      1 RES1   0.0000
    87 C44     -3.3851   3.0460  13.0516   C.ar      1 RES1   0.0000
    88 H37     -3.3051   2.7625  12.1699   H         1 RES1   0.0000
    89 C45     -4.5327   2.7695  13.7380   C.ar      1 RES1   0.0000
    90 H38     -5.2208   2.3071  13.3173   H         1 RES1   0.0000
    91 C46     -4.6825   3.1691  15.0350   C.ar      1 RES1   0.0000
    92 H39     -5.4652   2.9786  15.4961   H         1 RES1   0.0000
    93 C47     -3.6560   3.8592  15.6545   C.ar      1 RES1   0.0000
    94 H40     -3.7499   4.1333  16.5380   H         1 RES1   0.0000
    95 C48     -2.4685   4.1449  14.9523   C.ar      1 RES1   0.0000
    96 H41     -1.7797   4.6073  15.3747   H         1 RES1   0.0000
    97 C49      2.8030   5.9363  16.0558   C.3       1 RES1   0.0000
    98 H42      3.6203   6.3104  16.4218   H         1 RES1   0.0000
    99 H43      2.0816   6.1129  16.6788   H         1 RES1   0.0000
   100 C50      2.9622   4.4516  15.8657   C.3       1 RES1   0.0000
   101 H44      2.8385   4.0032  16.7158   H         1 RES1   0.0000
   102 H45      3.8615   4.2611  15.5560   H         1 RES1   0.0000
   103 C51     -0.9482   6.4730  10.8974   C.3       1 RES1   0.0000
   104 H46     -1.4836   7.1352  10.4363   H         1 RES1   0.0000
   105 H47     -0.2736   6.1384  10.2850   H         1 RES1   0.0000
   106 C52     -1.8315   5.3252  11.3867   C.3       1 RES1   0.0000
   107 H48     -2.0930   4.7699  10.6370   H         1 RES1   0.0000
   108 H49     -2.6357   5.6807  11.7950   H         1 RES1   0.0000
   109 C53      2.3424   5.1533  10.7197   C.1       1 RES1   0.0000
   110 Cl1      7.1504   5.1145   9.1690   Cl        2 RES2   0.0000
   111 Cl2      6.5019   2.4235  10.0120   Cl        2 RES2   0.0000
   112 C54      6.2624   4.1054  10.3272   C.3       2 RES2   0.0000
   113 H50      6.5623   4.3099  11.2266   H         2 RES2   0.0000
   114 H51      5.3158   4.3122  10.2727   H         2 RES2   0.0000
@<TRIPOS>BOND
     1     1     2    1
     2     3   109    2
     3     4     1    1
     4     5     1    1
     5     6     1    1
     6     7     1    1
     7     8     1    1
     8     9     4    1
     9    10     9   ar
    10    11    10    1
    11    12    10   ar
    12    13    12    1
    13    14    12   ar
    14    15    14    1
    15    16    14   ar
    16    17    16    1
    17    18     9   ar
    18    19    18    1
    19    20     4    1
    20    21    20   ar
    21    22    21    1
    22    23    21   ar
    23    24    23    1
    24    25    23   ar
    25    26    25    1
    26    27    25   ar
    27    28    27    1
    28    29    20   ar
    29    30    29    1
    30    31     5    1
    31    32    31   ar
    32    33    32    1
    33    34    32   ar
    34    35    34    1
    35    36    34   ar
    36    37    36    1
    37    38    36   ar
    38    39    38    1
    39    40    31   ar
    40    41    40    1
    41    42     5    1
    42    43    42   ar
    43    44    43    1
    44    45    43   ar
    45    46    45    1
    46    47    45   ar
    47    48    47    1
    48    49    47   ar
    49    50    49    1
    50    51    42   ar
    51    52    51    1
    52    53     6    1
    53    54    53   ar
    54    55    54    1
    55    56    54   ar
    56    57    56    1
    57    58    56   ar
    58    59    58    1
    59    60    58   ar
    60    61    60    1
    61    62    53   ar
    62    63    62    1
    63    64     6    1
    64    65    64   ar
    65    66    65    1
    66    67    65   ar
    67    68    67    1
    68    69    67   ar
    69    70    69    1
    70    71    69   ar
    71    72    71    1
    72    73    64   ar
    73    74    73    1
    74    75     7    1
    75    76    75   ar
    76    77    76    1
    77    78    76   ar
    78    79    78    1
    79    80    78   ar
    80    81    80    1
    81    82    80   ar
    82    83    82    1
    83    84    75   ar
    84    85    84    1
    85    86     7    1
    86    87    86   ar
    87    88    87    1
    88    89    87   ar
    89    90    89    1
    90    91    89   ar
    91    92    91    1
    92    93    91   ar
    93    94    93    1
    94    95    86   ar
    95    96    95    1
    96    97     4    1
    97    98    97    1
    98    99    97    1
    99   100     5    1
   100   101   100    1
   101   102   100    1
   102   103     6    1
   103   104   103    1
   104   105   103    1
   105   106     7    1
   106   107   106    1
   107   108   106    1
   108   109     8    2
   109    16    18   ar
   110    27    29   ar
   111    38    40   ar
   112    49    51   ar
   113    60    62   ar
   114    71    73   ar
   115    82    84   ar
   116    93    95   ar
   117    97   100    1
   118   103   106    1
   119   110   112    1
   120   111   112    1
   121   112   113    1
   122   114   112    1
@<TRIPOS>SUBSTRUCTURE
     1 RES1        1 GROUP             0 ****  ****    0  
     2 RES2      110 GROUP             0 ****  ****    0  
@<TRIPOS>CRYSIN
   12.1140   23.2340   18.3860   90.0000  106.8220   90.0000   231     1
