@<TRIPOS>MOLECULE
HAFKUY
   109   114     1     0     0
SMALL
NO_CHARGES
****
Generated from the CSD

@<TRIPOS>ATOM
     1 Fe1      4.1648   1.7013   3.9578   Fe        1 RES1   0.0000
     2 H1       3.8777   2.5695   5.0788   H         1 RES1   0.0000
     3 Si1      6.4737   2.1826   4.3388   Si        1 RES1   0.0000
     4 C1       4.3600   3.2618   3.1096   C.1       1 RES1   0.0000
     5 O1       4.5923   4.2891   2.6425   O.2       1 RES1   0.0000
     6 C2       4.4554   0.5681   2.6027   C.1       1 RES1   0.0000
     7 O2       4.6330  -0.1864   1.7547   O.2       1 RES1   0.0000
     8 C3       4.4888   0.5681   5.2929   C.1       1 RES1   0.0000
     9 O3       4.7864  -0.1105   6.1707   O.2       1 RES1   0.0000
    10 C4       2.1798   1.5023   3.8449   C.3       1 RES1   0.0000
    11 C5      -0.0309   1.6516   3.0054   C.3       1 RES1   0.0000
    12 H2      -0.1904   1.1930   2.1426   H         1 RES1   0.0000
    13 H3      -0.7179   2.3527   3.1342   H         1 RES1   0.0000
    14 N1       1.3364   2.2169   3.0717   N.pl3     1 RES1   0.0000
    15 C6       1.5646   3.4006   2.2778   C.ar      1 RES1   0.0000
    16 C7       1.6899   3.2765   0.8918   C.ar      1 RES1   0.0000
    17 C8       1.6406   4.4420   0.1271   C.ar      1 RES1   0.0000
    18 H4       1.7112   4.3841  -0.8186   H         1 RES1   0.0000
    19 C9       1.4896   5.6775   0.7222   C.ar      1 RES1   0.0000
    20 H5       1.4063   6.4557   0.1835   H         1 RES1   0.0000
    21 C10      1.4583   5.7872   2.1072   C.ar      1 RES1   0.0000
    22 H6       1.4106   6.6477   2.5068   H         1 RES1   0.0000
    23 C11      1.4969   4.6565   2.9185   C.ar      1 RES1   0.0000
    24 C12      1.9570   1.9378   0.2232   C.3       1 RES1   0.0000
    25 H7       1.9592   1.2354   0.9349   H         1 RES1   0.0000
    26 C13      3.3486   1.9450  -0.4353   C.3       1 RES1   0.0000
    27 H8       3.3488   2.5671  -1.1925   H         1 RES1   0.0000
    28 H9       3.5646   1.0435  -0.7532   H         1 RES1   0.0000
    29 H10      4.0192   2.2292   0.2208   H         1 RES1   0.0000
    30 C14      0.8811   1.5622  -0.8040   C.3       1 RES1   0.0000
    31 H11      0.0068   1.5294  -0.3640   H         1 RES1   0.0000
    32 H12      1.0880   0.6830  -1.1859   H         1 RES1   0.0000
    33 H13      0.8637   2.2322  -1.5184   H         1 RES1   0.0000
    34 C15      1.5294   4.7687   4.4416   C.3       1 RES1   0.0000
    35 H14      2.0688   3.9971   4.7778   H         1 RES1   0.0000
    36 C16      0.1395   4.6400   5.0610   C.3       1 RES1   0.0000
    37 H15     -0.4356   5.3584   4.7245   H         1 RES1   0.0000
    38 H16      0.2097   4.7070   6.0362   H         1 RES1   0.0000
    39 H17     -0.2461   3.7722   4.8199   H         1 RES1   0.0000
    40 C17      2.2208   6.0454   4.9372   C.3       1 RES1   0.0000
    41 H18      3.0946   6.1336   4.5012   H         1 RES1   0.0000
    42 H19      2.3445   5.9944   5.9080   H         1 RES1   0.0000
    43 H20      1.6671   6.8235   4.7186   H         1 RES1   0.0000
    44 C18     -0.0210   0.6703   4.1583   C.3       1 RES1   0.0000
    45 H21     -0.5278   1.0201   4.9334   H         1 RES1   0.0000
    46 H22     -0.3988  -0.2046   3.8899   H         1 RES1   0.0000
    47 N2       1.4213   0.5622   4.4635   N.pl3     1 RES1   0.0000
    48 C19      1.7832  -0.3094   5.5497   C.ar      1 RES1   0.0000
    49 C20      2.0582  -1.6505   5.2668   C.ar      1 RES1   0.0000
    50 C21      2.3416  -2.4959   6.3452   C.ar      1 RES1   0.0000
    51 H23      2.5531  -3.4074   6.1811   H         1 RES1   0.0000
    52 C22      2.3185  -2.0284   7.6426   C.ar      1 RES1   0.0000
    53 H24      2.5143  -2.6183   8.3609   H         1 RES1   0.0000
    54 C23      2.0113  -0.7056   7.9035   C.ar      1 RES1   0.0000
    55 H25      1.9858  -0.3991   8.8024   H         1 RES1   0.0000
    56 C24      1.7384   0.1853   6.8647   C.ar      1 RES1   0.0000
    57 C25      2.0497  -2.2238   3.8613   C.3       1 RES1   0.0000
    58 H26      1.8567  -1.4791   3.2225   H         1 RES1   0.0000
    59 C26      3.4145  -2.8216   3.4993   C.3       1 RES1   0.0000
    60 H27      4.1127  -2.1465   3.6320   H         1 RES1   0.0000
    61 H28      3.4088  -3.1051   2.5612   H         1 RES1   0.0000
    62 H29      3.5952  -3.5952   4.0732   H         1 RES1   0.0000
    63 C27      0.9448  -3.2765   3.7158   C.3       1 RES1   0.0000
    64 H30      1.1137  -4.0156   4.3365   H         1 RES1   0.0000
    65 H31      0.9365  -3.6166   2.7969   H         1 RES1   0.0000
    66 H32      0.0769  -2.8694   3.9211   H         1 RES1   0.0000
    67 C28      1.4155   1.6381   7.1919   C.3       1 RES1   0.0000
    68 H33      1.3104   2.1321   6.3287   H         1 RES1   0.0000
    69 C29      0.0923   1.7475   7.9626   C.3       1 RES1   0.0000
    70 H34     -0.6326   1.3708   7.4214   H         1 RES1   0.0000
    71 H35     -0.0974   2.6892   8.1537   H         1 RES1   0.0000
    72 H36      0.1633   1.2506   8.8045   H         1 RES1   0.0000
    73 C30      2.5509   2.3092   7.9867   C.3       1 RES1   0.0000
    74 H37      2.6511   1.8621   8.8530   H         1 RES1   0.0000
    75 H38      2.3346   3.2542   8.1299   H         1 RES1   0.0000
    76 H39      3.3882   2.2380   7.4832   H         1 RES1   0.0000
    77 C31      7.4343   0.6440   4.9268   C.ar      1 RES1   0.0000
    78 C32      7.7023  -0.4097   4.0461   C.ar      1 RES1   0.0000
    79 H40      7.4767  -0.3110   3.1285   H         1 RES1   0.0000
    80 C33      8.2856  -1.5935   4.4706   C.ar      1 RES1   0.0000
    81 H41      8.4451  -2.2919   3.8468   H         1 RES1   0.0000
    82 C34      8.6381  -1.7631   5.7960   C.ar      1 RES1   0.0000
    83 H42      9.0533  -2.5666   6.0862   H         1 RES1   0.0000
    84 C35      8.3765  -0.7444   6.6924   C.ar      1 RES1   0.0000
    85 H43      8.6055  -0.8535   7.6079   H         1 RES1   0.0000
    86 C36      7.7838   0.4369   6.2692   C.ar      1 RES1   0.0000
    87 H44      7.6096   1.1218   6.9043   H         1 RES1   0.0000
    88 C37      6.7513   3.5378   5.6457   C.ar      1 RES1   0.0000
    89 C38      8.0296   3.7199   6.1966   C.ar      1 RES1   0.0000
    90 H45      8.7280   3.1260   5.9479   H         1 RES1   0.0000
    91 C39      8.3032   4.7464   7.0974   C.ar      1 RES1   0.0000
    92 H46      9.1771   4.8432   7.4578   H         1 RES1   0.0000
    93 C40      7.3037   5.6217   7.4649   C.ar      1 RES1   0.0000
    94 H47      7.4845   6.3196   8.0836   H         1 RES1   0.0000
    95 C41      6.0402   5.4807   6.9320   C.ar      1 RES1   0.0000
    96 H48      5.3537   6.0918   7.1724   H         1 RES1   0.0000
    97 C42      5.7684   4.4461   6.0428   C.ar      1 RES1   0.0000
    98 H49      4.8881   4.3551   5.6960   H         1 RES1   0.0000
    99 C43      7.4068   2.7934   2.7855   C.ar      1 RES1   0.0000
   100 C44      8.1594   3.9768   2.8071   C.ar      1 RES1   0.0000
   101 H50      8.1647   4.5083   3.5945   H         1 RES1   0.0000
   102 C45      8.8990   4.3918   1.7028   C.ar      1 RES1   0.0000
   103 H51      9.3983   5.1988   1.7463   H         1 RES1   0.0000
   104 C46      8.9125   3.6432   0.5501   C.ar      1 RES1   0.0000
   105 H52      9.4319   3.9189  -0.1958   H         1 RES1   0.0000
   106 C47      8.1576   2.4799   0.4882   C.ar      1 RES1   0.0000
   107 H53      8.1508   1.9614  -0.3078   H         1 RES1   0.0000
   108 C48      7.4125   2.0717   1.5860   C.ar      1 RES1   0.0000
   109 H54      6.8919   1.2798   1.5215   H         1 RES1   0.0000
@<TRIPOS>BOND
     1     1     2    1
     2     3     1    1
     3     4     1    1
     4     5     4    3
     5     6     1    1
     6     7     6    3
     7     8     1    1
     8     9     8    3
     9    10     1    1
    10    11    12    1
    11    13    11    1
    12    14    10    1
    13    15    14    1
    14    16    15   ar
    15    17    16   ar
    16    18    17    1
    17    19    17   ar
    18    20    19    1
    19    21    19   ar
    20    22    21    1
    21    23    15   ar
    22    24    16    1
    23    25    24    1
    24    26    24    1
    25    27    26    1
    26    28    26    1
    27    29    26    1
    28    30    24    1
    29    31    30    1
    30    32    30    1
    31    33    30    1
    32    34    23    1
    33    35    34    1
    34    36    34    1
    35    37    36    1
    36    38    36    1
    37    39    36    1
    38    40    34    1
    39    41    40    1
    40    42    40    1
    41    43    40    1
    42    44    11    1
    43    45    44    1
    44    46    44    1
    45    47    10    1
    46    48    47    1
    47    49    48   ar
    48    50    49   ar
    49    51    50    1
    50    52    50   ar
    51    53    52    1
    52    54    52   ar
    53    55    54    1
    54    56    48   ar
    55    57    49    1
    56    58    57    1
    57    59    57    1
    58    60    59    1
    59    61    59    1
    60    62    59    1
    61    63    57    1
    62    64    63    1
    63    65    63    1
    64    66    63    1
    65    67    56    1
    66    68    67    1
    67    69    67    1
    68    70    69    1
    69    71    69    1
    70    72    69    1
    71    73    67    1
    72    74    73    1
    73    75    73    1
    74    76    73    1
    75    77     3    1
    76    78    77   ar
    77    79    78    1
    78    80    78   ar
    79    81    80    1
    80    82    80   ar
    81    83    82    1
    82    84    82   ar
    83    85    84    1
    84    86    77   ar
    85    87    86    1
    86    88     3    1
    87    89    88   ar
    88    90    89    1
    89    91    89   ar
    90    92    91    1
    91    93    91   ar
    92    94    93    1
    93    95    93   ar
    94    96    95    1
    95    97    88   ar
    96    98    97    1
    97    99     3    1
    98   100    99   ar
    99   101   100    1
   100   102   100   ar
   101   103   102    1
   102   104   102   ar
   103   105   104    1
   104   106   104   ar
   105   107   106    1
   106   108    99   ar
   107   109   108    1
   108    11    14    1
   109    21    23   ar
   110    44    47    1
   111    54    56   ar
   112    84    86   ar
   113    95    97   ar
   114   106   108   ar
@<TRIPOS>SUBSTRUCTURE
     1 RES1        1 GROUP             0 ****  ****    0  
@<TRIPOS>CRYSIN
   11.1170   11.9351   17.6269   93.2860  101.5930  112.4310     2     1
