@<TRIPOS>MOLECULE
HAFKIM
   114   117     2     0     0
SMALL
NO_CHARGES
****
Generated from the CSD

@<TRIPOS>ATOM
     1 Fe1      0.5391   1.8074   7.7636   Fe        1 RES1   0.0000
     2 H1      -0.8953   2.1097   7.9691   H         1 RES1   0.0000
     3 Si1      1.3241   3.7002   8.9141   Si        1 RES1   0.0000
     4 H2       1.8600   3.3048  10.2049   H         1 RES1   0.0000
     5 C1       2.2670   1.4176   7.4571   C.1       1 RES1   0.0000
     6 O1       3.3661   1.1757   7.2433   O.2       1 RES1   0.0000
     7 C2       0.1997   3.0695   6.5687   C.1       1 RES1   0.0000
     8 O2      -0.0844   3.9693   5.9102   O.2       1 RES1   0.0000
     9 C3       0.2604   1.2751   9.4388   C.1       1 RES1   0.0000
    10 O3       0.0108   1.0727  10.5403   O.2       1 RES1   0.0000
    11 C4       2.7690   4.5461   8.0436   C.ar      1 RES1   0.0000
    12 C5       4.0721   4.2457   8.4577   C.ar      1 RES1   0.0000
    13 H3       4.2001   3.6581   9.1930   H         1 RES1   0.0000
    14 C6       5.1806   4.7832   7.8225   C.ar      1 RES1   0.0000
    15 H4       6.0533   4.5606   8.1252   H         1 RES1   0.0000
    16 C7       5.0245   5.6330   6.7617   C.ar      1 RES1   0.0000
    17 H5       5.7860   5.9944   6.3240   H         1 RES1   0.0000
    18 C8       3.7520   5.9645   6.3284   C.ar      1 RES1   0.0000
    19 H6       3.6379   6.5634   5.5996   H         1 RES1   0.0000
    20 C9       2.6419   5.4197   6.9611   C.ar      1 RES1   0.0000
    21 H7       1.7731   5.6471   6.6498   H         1 RES1   0.0000
    22 C10      0.0014   4.9825   9.3395   C.ar      1 RES1   0.0000
    23 C11     -1.3020   4.6117   9.7011   C.ar      1 RES1   0.0000
    24 H8      -1.5496   3.6957   9.6568   H         1 RES1   0.0000
    25 C12     -2.2393   5.5434  10.1210   C.ar      1 RES1   0.0000
    26 H9      -3.1117   5.2615  10.3678   H         1 RES1   0.0000
    27 C13     -1.9018   6.8834  10.1804   C.ar      1 RES1   0.0000
    28 H10     -2.5392   7.5237  10.4745   H         1 RES1   0.0000
    29 C14     -0.6459   7.2820   9.8134   C.ar      1 RES1   0.0000
    30 H11     -0.4180   8.2041   9.8354   H         1 RES1   0.0000
    31 C15      0.3053   6.3428   9.4070   C.ar      1 RES1   0.0000
    32 H12      1.1775   6.6365   9.1714   H         1 RES1   0.0000
    33 C16     -0.0274   0.1728   6.7667   C.3       1 RES1   0.0000
    34 N1      -0.1084  -1.1211   7.2225   N.pl3     1 RES1   0.0000
    35 C17     -0.4059  -2.0003   6.1925   C.2       1 RES1   0.0000
    36 H13     -0.5177  -2.9407   6.2673   H         1 RES1   0.0000
    37 C18     -0.5066  -1.2731   5.0712   C.2       1 RES1   0.0000
    38 H14     -0.7011  -1.5970   4.1994   H         1 RES1   0.0000
    39 N2      -0.2710   0.0543   5.4352   N.pl3     1 RES1   0.0000
    40 C19     -0.2098  -1.5364   8.6022   C.ar      1 RES1   0.0000
    41 C20      0.9381  -1.9159   9.3090   C.ar      1 RES1   0.0000
    42 C21      0.7712  -2.3514  10.6160   C.ar      1 RES1   0.0000
    43 H15      1.5309  -2.6211  11.1184   H         1 RES1   0.0000
    44 C22     -0.4807  -2.3992  11.1997   C.ar      1 RES1   0.0000
    45 H16     -0.5727  -2.6867  12.1005   H         1 RES1   0.0000
    46 C23     -1.6006  -2.0300  10.4762   C.ar      1 RES1   0.0000
    47 H17     -2.4565  -2.0719  10.8871   H         1 RES1   0.0000
    48 C24     -1.4979  -1.6000   9.1626   C.ar      1 RES1   0.0000
    49 C25      2.3303  -1.8622   8.6933   C.3       1 RES1   0.0000
    50 H18      2.2669  -1.3645   7.8283   H         1 RES1   0.0000
    51 C26      2.8386  -3.2632   8.3924   C.3       1 RES1   0.0000
    52 H19      2.8930  -3.7768   9.2252   H         1 RES1   0.0000
    53 H20      3.7277  -3.2078   7.9840   H         1 RES1   0.0000
    54 H21      2.2222  -3.7082   7.7739   H         1 RES1   0.0000
    55 C27      3.3108  -1.1089   9.6016   C.3       1 RES1   0.0000
    56 H22      2.9405  -0.2295   9.8245   H         1 RES1   0.0000
    57 H23      4.1660  -0.9946   9.1361   H         1 RES1   0.0000
    58 H24      3.4537  -1.6214  10.4248   H         1 RES1   0.0000
    59 C28     -2.7455  -1.2169   8.3782   C.3       1 RES1   0.0000
    60 H25     -2.4636  -0.9906   7.4458   H         1 RES1   0.0000
    61 C29     -3.4047   0.0240   8.9812   C.3       1 RES1   0.0000
    62 H26     -3.7058  -0.1760   9.8922   H         1 RES1   0.0000
    63 H27     -4.1741   0.2846   8.4329   H         1 RES1   0.0000
    64 H28     -2.7569   0.7589   9.0053   H         1 RES1   0.0000
    65 C30     -3.7302  -2.3859   8.2980   C.3       1 RES1   0.0000
    66 H29     -4.0443  -2.6108   9.1985   H         1 RES1   0.0000
    67 H30     -3.2823  -3.1636   7.9044   H         1 RES1   0.0000
    68 H31     -4.4943  -2.1317   7.7394   H         1 RES1   0.0000
    69 C31     -0.4769   1.1241   4.4874   C.ar      1 RES1   0.0000
    70 C32     -1.7668   1.6685   4.3798   C.ar      1 RES1   0.0000
    71 C33     -1.9793   2.5968   3.3643   C.ar      1 RES1   0.0000
    72 H32     -2.8409   2.9845   3.2651   H         1 RES1   0.0000
    73 C34     -0.9799   2.9662   2.5044   C.ar      1 RES1   0.0000
    74 H33     -1.1597   3.5797   1.8019   H         1 RES1   0.0000
    75 C35      0.2944   2.4445   2.6603   C.ar      1 RES1   0.0000
    76 H34      0.9858   2.7162   2.0676   H         1 RES1   0.0000
    77 C36      0.5801   1.5295   3.6699   C.ar      1 RES1   0.0000
    78 C37     -2.8901   1.2864   5.3233   C.3       1 RES1   0.0000
    79 H35     -2.4843   0.7767   6.0818   H         1 RES1   0.0000
    80 C38     -3.5921   2.4996   5.9134   C.3       1 RES1   0.0000
    81 H36     -2.9312   3.0811   6.3447   H         1 RES1   0.0000
    82 H37     -4.2507   2.2056   6.5764   H         1 RES1   0.0000
    83 H38     -4.0452   2.9942   5.1991   H         1 RES1   0.0000
    84 C39     -3.8962   0.3753   4.6510   C.3       1 RES1   0.0000
    85 H39     -4.2750   0.8273   3.8682   H         1 RES1   0.0000
    86 H40     -4.6146   0.1592   5.2822   H         1 RES1   0.0000
    87 H41     -3.4515  -0.4507   4.3678   H         1 RES1   0.0000
    88 C40      1.9994   1.0388   3.8695   C.3       1 RES1   0.0000
    89 H42      2.0235   0.5028   4.7133   H         1 RES1   0.0000
    90 C41      2.4408   0.1285   2.7219   C.3       1 RES1   0.0000
    91 H43      1.8648  -0.6638   2.6930   H         1 RES1   0.0000
    92 H44      3.3704  -0.1489   2.8637   H         1 RES1   0.0000
    93 H45      2.3711   0.6143   1.8737   H         1 RES1   0.0000
    94 C42      2.9674   2.2145   4.0319   C.3       1 RES1   0.0000
    95 H46      3.0288   2.7061   3.1862   H         1 RES1   0.0000
    96 H47      3.8533   1.8768   4.2787   H         1 RES1   0.0000
    97 H48      2.6385   2.8135   4.7345   H         1 RES1   0.0000
    98 C43      3.8911   6.1582  11.6093   C.3       2 RES2   0.0000
    99 H49      4.5464   5.6612  11.0771   H         2 RES2   0.0000
   100 H50      4.2661   6.3513  12.4935   H         2 RES2   0.0000
   101 H51      3.0765   5.6229  11.7089   H         2 RES2   0.0000
   102 C44      3.6142   7.2350  11.0294   C.3       2 RES2   0.0000
   103 H52      3.3087   6.9710  10.1260   H         2 RES2   0.0000
   104 H53      4.4834   7.6903  10.9009   H         2 RES2   0.0000
   105 C45      2.6427   8.3406  11.4757   C.3       2 RES2   0.0000
   106 H54      1.7361   7.9437  11.5077   H         2 RES2   0.0000
   107 H55      2.8814   8.5879  12.4046   H         2 RES2   0.0000
   108 C46      2.5504   9.5661  10.7123   C.3       2 RES2   0.0000
   109 H56      3.4840   9.8734  10.5932   H         2 RES2   0.0000
   110 H57      2.2339   9.2954   9.8152   H         2 RES2   0.0000
   111 H58      1.9246  11.4189  10.3426   H         2 RES2   0.0000
   112 H59      0.8491  10.5183  11.1129   H         2 RES2   0.0000
   113 H60      2.1138  11.1031  11.9000   H         2 RES2   0.0000
   114 C43B     1.7997  10.7461  11.0430   C.3       2 RES2   0.0000
@<TRIPOS>BOND
     1     1     2    1
     2     3     1    1
     3     4     3    1
     4     5     1    1
     5     6     5    3
     6     7     1    1
     7     8     7    3
     8     9     1    1
     9    10     9    3
    10    11     3    1
    11    12    11   ar
    12    13    12    1
    13    14    12   ar
    14    15    14    1
    15    16    14   ar
    16    17    16    1
    17    18    16   ar
    18    19    18    1
    19    20    11   ar
    20    21    20    1
    21    22     3    1
    22    23    22   ar
    23    24    23    1
    24    25    23   ar
    25    26    25    1
    26    27    25   ar
    27    28    27    1
    28    29    27   ar
    29    30    29    1
    30    31    22   ar
    31    32    31    1
    32    33     1    1
    33    34    33    1
    34    35    34    1
    35    36    35    1
    36    37    35    2
    37    38    37    1
    38    39    33    1
    39    40    34    1
    40    41    40   ar
    41    42    41   ar
    42    43    42    1
    43    44    42   ar
    44    45    44    1
    45    46    44   ar
    46    47    46    1
    47    48    40   ar
    48    49    41    1
    49    50    49    1
    50    51    49    1
    51    52    51    1
    52    53    51    1
    53    54    51    1
    54    55    49    1
    55    56    55    1
    56    57    55    1
    57    58    55    1
    58    59    48    1
    59    60    59    1
    60    61    59    1
    61    62    61    1
    62    63    61    1
    63    64    61    1
    64    65    59    1
    65    66    65    1
    66    67    65    1
    67    68    65    1
    68    69    39    1
    69    70    69   ar
    70    71    70   ar
    71    72    71    1
    72    73    71   ar
    73    74    73    1
    74    75    73   ar
    75    76    75    1
    76    77    69   ar
    77    78    70    1
    78    79    78    1
    79    80    78    1
    80    81    80    1
    81    82    80    1
    82    83    80    1
    83    84    78    1
    84    85    84    1
    85    86    84    1
    86    87    84    1
    87    88    77    1
    88    89    88    1
    89    90    88    1
    90    91    90    1
    91    92    90    1
    92    93    90    1
    93    94    88    1
    94    95    94    1
    95    96    94    1
    96    97    94    1
    97    18    20   ar
    98    29    31   ar
    99    37    39    1
   100    46    48   ar
   101    75    77   ar
   102    98    99    1
   103   100    98    1
   104   101    98    1
   105   102    98    1
   106   103   102    1
   107   104   102    1
   108   105   102    1
   109   106   105    1
   110   107   105    1
   111   108   105    1
   112   109   108    1
   113   110   108    1
   114   111   114    1
   115   112   114    1
   116   113   114    1
   117   114   108    1
@<TRIPOS>SUBSTRUCTURE
     1 RES1        1 GROUP             0 ****  ****    0  
     2 RES2       98 GROUP             0 ****  ****    0  
@<TRIPOS>CRYSIN
   10.5817   16.9043   23.1743   90.0000  102.1840   90.0000    14     1
