@<TRIPOS>MOLECULE
HAJYOG
    62    65     3     0     0
SMALL
NO_CHARGES
****
Generated from the CSD

@<TRIPOS>ATOM
     1 Fe1      3.8277   3.7519   9.2773   Fe        1 RES1   0.0000
     2 O1       4.4131   1.9598  10.0907   O.3       1 RES1   0.0000
     3 O2       2.0662   2.8280   8.8061   O.2       1 RES1   0.0000
     4 N1       5.6780   4.7101   9.8956   N.ar      1 RES1   0.0000
     5 N2       3.3084   5.6673   8.4306   N.ar      1 RES1   0.0000
     6 N3       4.8180   3.4159   7.3204   N.ar      1 RES1   0.0000
     7 N4       2.8733   4.3586  11.2807   N.1       1 RES1   0.0000
     8 N5       6.3458   5.5086   8.9702   N.ar      1 RES1   0.0000
     9 N6       4.2948   6.3751   7.7594   N.ar      1 RES1   0.0000
    10 N7       5.5985   4.4250   6.8104   N.ar      1 RES1   0.0000
    11 B1       5.7210   5.7597   7.5909   B         1 RES1   0.0000
    12 C1       4.4293  -0.2122  11.0693   C.3       1 RES1   0.0000
    13 C2       3.7112   0.9329  10.3346   C.2       1 RES1   0.0000
    14 C3       2.3603   0.7710   9.9621   C.2       1 RES1   0.0000
    15 C4       1.6355   1.6974   9.2008   C.2       1 RES1   0.0000
    16 C5       0.1853   1.3265   8.7854   C.3       1 RES1   0.0000
    17 C6       7.0234   2.6126  12.3096   C.3       1 RES1   0.0000
    18 C7       6.1212   4.7360  13.4789   C.3       1 RES1   0.0000
    19 C8       6.0841   3.8371  12.1972   C.3       1 RES1   0.0000
    20 C9       6.4582   4.6534  10.9954   C.ar      1 RES1   0.0000
    21 C10      7.6079   5.4471  10.7884   C.ar      1 RES1   0.0000
    22 C11      7.5246   5.9427   9.4949   C.ar      1 RES1   0.0000
    23 C12      8.5162   6.7768   8.7085   C.3       1 RES1   0.0000
    24 C13      9.3698   5.8293   7.7964   C.3       1 RES1   0.0000
    25 C14      9.4366   7.6191   9.6605   C.3       1 RES1   0.0000
    26 C15     -0.0623   5.4454   7.8881   C.3       1 RES1   0.0000
    27 C16      0.2496   7.1153   9.7758   C.3       1 RES1   0.0000
    28 C17      0.9063   5.9524   8.9746   C.3       1 RES1   0.0000
    29 C18      2.1889   6.4027   8.3655   C.ar      1 RES1   0.0000
    30 C19      2.4425   7.5915   7.6545   C.ar      1 RES1   0.0000
    31 C20      3.7833   7.5543   7.2849   C.ar      1 RES1   0.0000
    32 C21      4.6085   8.6119   6.5827   C.3       1 RES1   0.0000
    33 C22      5.2126   9.5659   7.6501   C.3       1 RES1   0.0000
    34 C23      3.7533   9.4088   5.5687   C.3       1 RES1   0.0000
    35 C24      5.0122  -0.1296   6.3447   C.3       1 RES1   0.0000
    36 C25      2.8628   1.0706   5.7623   C.3       1 RES1   0.0000
    37 C26      4.1385   1.1046   6.6655   C.3       1 RES1   0.0000
    38 C27      4.8826   2.4134   6.4467   C.ar      1 RES1   0.0000
    39 C28      5.7053   2.7519   5.3824   C.ar      1 RES1   0.0000
    40 C29      6.1530   4.0379   5.6160   C.ar      1 RES1   0.0000
    41 C30      7.0252   4.9385   4.7704   C.3       1 RES1   0.0000
    42 C31      8.1553   4.1173   4.0889   C.3       1 RES1   0.0000
    43 C32      6.2267   5.7224   3.7267   C.3       1 RES1   0.0000
    44 C33      2.4654   4.6826  12.3007   C.1       1 RES1   0.0000
    45 C34      1.9528   5.1264  13.6533   C.3       1 RES1   0.0000
    46 H1       6.3131   6.4156   7.0639   H         1 RES1   0.0000
    47 H2       1.8773  -0.0779  10.2743   H         1 RES1   0.0000
    48 H3       5.1335   3.4958  12.0702   H         1 RES1   0.0000
    49 H4       8.3583   5.6184  11.5048   H         1 RES1   0.0000
    50 H5       7.9900   7.4143   8.1036   H         1 RES1   0.0000
    51 H6       1.1038   5.1881   9.6253   H         1 RES1   0.0000
    52 H7       1.7728   8.3327   7.4493   H         1 RES1   0.0000
    53 H8       5.3711   8.1477   6.0674   H         1 RES1   0.0000
    54 H9       3.8512   1.0494   7.6450   H         1 RES1   0.0000
    55 H10      5.9383   2.1631   4.5797   H         1 RES1   0.0000
    56 H11      7.4655   5.6260   5.4012   H         1 RES1   0.0000
    57 N8      11.6640   3.6929   9.8039   N.1       2 RES2   0.0000
    58 C35     11.6215   3.4014  10.8801   C.1       2 RES2   0.0000
    59 C36     11.5560   3.0774  12.2948   C.3       2 RES2   0.0000
    60 N9       8.5109  -0.0810   9.0175   N.1       3 RES3   0.0000
    61 C37      8.3493   1.0690   8.8105   C.1       3 RES3   0.0000
    62 C38      7.9029   2.2579   8.4661   C.2       3 RES3   0.0000
@<TRIPOS>BOND
     1     1     2    1
     2     2    13    1
     3     3     1    1
     4     4     1    1
     5     5     1    1
     6     6     1    1
     7     7     1    1
     8     8     4   ar
     9     9     5   ar
    10    10     6   ar
    11    11     8    1
    12    12    13    1
    13    13    14    2
    14    14    15    1
    15    15     3    2
    16    16    15    1
    17    17    19    1
    18    18    19    1
    19    19    20    1
    20    20     4   ar
    21    21    20   ar
    22    22     8   ar
    23    23    22    1
    24    24    23    1
    25    25    23    1
    26    26    28    1
    27    27    28    1
    28    28    29    1
    29    29     5   ar
    30    30    29   ar
    31    31     9   ar
    32    32    31    1
    33    33    32    1
    34    34    32    1
    35    35    37    1
    36    36    37    1
    37    37    38    1
    38    38     6   ar
    39    39    38   ar
    40    40    10   ar
    41    41    40    1
    42    42    41    1
    43    43    41    1
    44    44     7    3
    45    45    44    1
    46    46    11    1
    47    47    14    1
    48    48    19    1
    49    49    21    1
    50    50    23    1
    51    51    28    1
    52    52    30    1
    53    53    32    1
    54    54    37    1
    55    55    39    1
    56    56    41    1
    57     9    11    1
    58    10    11    1
    59    21    22   ar
    60    30    31   ar
    61    39    40   ar
    62    57    58    3
    63    58    59    1
    64    60    61    3
    65    61    62    1
@<TRIPOS>SUBSTRUCTURE
     1 RES1        1 GROUP             0 ****  ****    0  
     2 RES2       57 GROUP             0 ****  ****    0  
     3 RES3       60 GROUP             0 ****  ****    0  
@<TRIPOS>CRYSIN
   18.6280   16.1970   14.7890   90.0000   91.6700   90.0000   231     1
