@<TRIPOS>MOLECULE
HAZPAD04
   119   126     1     0     0
SMALL
NO_CHARGES
****
Generated from the CSD

@<TRIPOS>ATOM
     1 Fe1      7.8643   4.9913  10.4829   Fe        1 RES1   0.0000
     2 O1       8.6541   6.2066   9.0161   O.3       1 RES1   0.0000
     3 O2       5.9558   4.8187   9.6322   O.3       1 RES1   0.0000
     4 N1       8.5684   6.7275  11.4566   N.2       1 RES1   0.0000
     5 N2       7.6923   3.0048   9.7849   N.2       1 RES1   0.0000
     6 N3       9.8052   3.9467  11.0036   N.ar      1 RES1   0.0000
     7 N4       9.2777   7.6445  10.7221   N.2       1 RES1   0.0000
     8 N5       6.5550   2.6434   9.1189   N.2       1 RES1   0.0000
     9 N6       7.2504   4.8006  12.5861   N.ar      1 RES1   0.0000
    10 C1       4.4738   3.4934   8.3427   C.ar      1 RES1   0.0000
    11 C2       9.2567   7.2470   9.4369   C.2       1 RES1   0.0000
    12 C3       7.6638   5.8107  13.3822   C.ar      1 RES1   0.0000
    13 O3       0.9084   2.8228   6.3246   O.3       1 RES1   0.0000
    14 C4       5.7283   3.6876   9.0789   C.2       1 RES1   0.0000
    15 C5       8.4028   6.8601  12.7271   C.2       1 RES1   0.0000
    16 H1       8.7400   7.5900  13.1929   H         1 RES1   0.0000
    17 C6       4.2301   2.3272   7.6177   C.ar      1 RES1   0.0000
    18 H2       4.8846   1.6679   7.5785   H         1 RES1   0.0000
    19 C7       9.8816   2.6844  10.5177   C.ar      1 RES1   0.0000
    20 C8       9.9618   8.0856   8.4677   C.ar      1 RES1   0.0000
    21 O4      11.9713  10.3591   5.6378   O.3       1 RES1   0.0000
    22 C9       8.6964   2.2077   9.8631   C.2       1 RES1   0.0000
    23 H3       8.6564   1.3490   9.5088   H         1 RES1   0.0000
    24 C10     12.0257   3.7179  11.8333   C.ar      1 RES1   0.0000
    25 H4      12.7383   4.0890  12.3029   H         1 RES1   0.0000
    26 C11     12.1103   2.4602  11.3146   C.ar      1 RES1   0.0000
    27 H5      12.8938   1.9676  11.4030   H         1 RES1   0.0000
    28 C12     10.8647   4.4224  11.6507   C.ar      1 RES1   0.0000
    29 H6      10.8145   5.2835  11.9984   H         1 RES1   0.0000
    30 C13      7.4164   5.8164  14.7460   C.ar      1 RES1   0.0000
    31 H7       7.7199   6.5195  15.2734   H         1 RES1   0.0000
    32 C14      6.5744   3.8048  13.1606   C.ar      1 RES1   0.0000
    33 H8       6.2702   3.1118  12.6200   H         1 RES1   0.0000
    34 C15      3.4829   4.4601   8.3508   C.ar      1 RES1   0.0000
    35 H9       3.6324   5.2540   8.8115   H         1 RES1   0.0000
    36 C16     11.0232   1.9253  10.6522   C.ar      1 RES1   0.0000
    37 H10     11.0610   1.0648  10.3022   H         1 RES1   0.0000
    38 C17      3.0377   2.1379   6.9626   C.ar      1 RES1   0.0000
    39 H11      2.8905   1.3531   6.4847   H         1 RES1   0.0000
    40 C18      2.0574   3.1095   7.0089   C.ar      1 RES1   0.0000
    41 C19      6.3029   3.7475  14.5049   C.ar      1 RES1   0.0000
    42 H12      5.8433   3.0247  14.8666   H         1 RES1   0.0000
    43 C20      2.2818   4.2832   7.6981   C.ar      1 RES1   0.0000
    44 H13      1.6311   4.9470   7.7224   H         1 RES1   0.0000
    45 C21      6.7248   4.7824  15.3061   C.ar      1 RES1   0.0000
    46 H14      6.5417   4.7776  16.2176   H         1 RES1   0.0000
    47 C22     11.2674   9.6001   6.5316   C.ar      1 RES1   0.0000
    48 C23      9.7689   7.8728   7.1209   C.ar      1 RES1   0.0000
    49 H15      9.1780   7.2055   6.8559   H         1 RES1   0.0000
    50 C24     10.8589   9.0775   8.8111   C.ar      1 RES1   0.0000
    51 H16     11.0388   9.2366   9.7097   H         1 RES1   0.0000
    52 C25     10.4089   8.5978   6.1590   C.ar      1 RES1   0.0000
    53 H17     10.2633   8.4151   5.2589   H         1 RES1   0.0000
    54 C26     11.4866   9.8282   7.8613   C.ar      1 RES1   0.0000
    55 H18     12.0706  10.5033   8.1217   H         1 RES1   0.0000
    56 C27     -0.1634   3.6877   6.3806   C.3       1 RES1   0.0000
    57 H19      0.0686   4.5173   5.9366   H         1 RES1   0.0000
    58 H20     -0.3650   3.8903   7.3085   H         1 RES1   0.0000
    59 C28     11.6554  10.2881   4.2716   C.3       1 RES1   0.0000
    60 H21     10.7092  10.4616   4.1449   H         1 RES1   0.0000
    61 H22     11.8477   9.3987   3.9363   H         1 RES1   0.0000
    62 C29     12.4633  11.3032   3.5118   C.3       1 RES1   0.0000
    63 H23     13.4065  11.1518   3.6792   H         1 RES1   0.0000
    64 H24     12.2415  12.1920   3.8294   H         1 RES1   0.0000
    65 C30     -1.3645   3.0995   5.7328   C.3       1 RES1   0.0000
    66 H25     -2.1322   3.6637   5.9171   H         1 RES1   0.0000
    67 H26     -1.5377   2.2265   6.1178   H         1 RES1   0.0000
    68 C31     12.2021  11.2242   2.0311   C.3       1 RES1   0.0000
    69 H27     12.4249  10.3323   1.7221   H         1 RES1   0.0000
    70 H28     11.2551  11.3626   1.8738   H         1 RES1   0.0000
    71 C32     12.9718  12.2156   1.2323   C.3       1 RES1   0.0000
    72 H29     13.9176  12.0917   1.4069   H         1 RES1   0.0000
    73 H30     12.7318  13.1082   1.5261   H         1 RES1   0.0000
    74 C33     12.7300  12.1108  -0.2776   C.3       1 RES1   0.0000
    75 H31     12.9697  11.2201  -0.5776   H         1 RES1   0.0000
    76 H32     11.7866  12.2434  -0.4594   H         1 RES1   0.0000
    77 C34     13.3377  12.9268  -2.5449   C.3       1 RES1   0.0000
    78 H33     12.4069  13.0587  -2.7849   H         1 RES1   0.0000
    79 H34     13.5996  12.0289  -2.8019   H         1 RES1   0.0000
    80 C35     13.5380  13.1342  -1.0496   C.3       1 RES1   0.0000
    81 H35     14.4778  13.0421  -0.8305   H         1 RES1   0.0000
    82 H36     13.2546  14.0280  -0.8033   H         1 RES1   0.0000
    83 C36     14.2211  13.9625  -3.2463   C.3       1 RES1   0.0000
    84 H37     13.9139  14.8580  -3.0378   H         1 RES1   0.0000
    85 H38     15.1391  13.8749  -2.9451   H         1 RES1   0.0000
    86 C37     14.1346  13.7170  -4.7465   C.3       1 RES1   0.0000
    87 H39     13.3009  14.0621  -5.0932   H         1 RES1   0.0000
    88 H40     14.1774  12.7659  -4.9302   H         1 RES1   0.0000
    89 C38     15.3217  14.4368  -5.4211   C.2       1 RES1   0.0000
    90 H41     16.1900  14.1414  -5.2612   H         1 RES1   0.0000
    91 C39     15.1157  15.4203  -6.1955   C.2       1 RES1   0.0000
    92 H42     14.2480  15.7128  -6.3568   H         1 RES1   0.0000
    93 H43     15.8341  15.8499  -6.6018   H         1 RES1   0.0000
    94 C40     -1.1990   2.9617   4.2570   C.3       1 RES1   0.0000
    95 H44     -0.6375   2.1949   4.0653   H         1 RES1   0.0000
    96 H45     -0.7586   3.7519   3.9062   H         1 RES1   0.0000
    97 C41     -2.5611   2.7850   3.5629   C.3       1 RES1   0.0000
    98 H46     -2.9983   1.9874   3.8992   H         1 RES1   0.0000
    99 H47     -3.1292   3.5467   3.7587   H         1 RES1   0.0000
   100 C42     -1.8675   3.9666   1.4344   C.3       1 RES1   0.0000
   101 H48     -0.9749   4.1980   1.7440   H         1 RES1   0.0000
   102 H49     -2.4721   4.7058   1.5982   H         1 RES1   0.0000
   103 C43     -2.3664   2.6643   2.0408   C.3       1 RES1   0.0000
   104 H50     -1.7277   1.9581   1.8560   H         1 RES1   0.0000
   105 H51     -3.2093   2.4219   1.6287   H         1 RES1   0.0000
   106 C44     -1.8755   3.5222  -0.0365   C.3       1 RES1   0.0000
   107 H52     -1.3060   2.7497  -0.1894   H         1 RES1   0.0000
   108 H53     -2.7688   3.3415  -0.3608   H         1 RES1   0.0000
   109 C45     -1.2828   4.8010  -0.6454   C.3       1 RES1   0.0000
   110 H54     -1.8699   5.5644  -0.5279   H         1 RES1   0.0000
   111 H55     -0.4049   5.0033  -0.2901   H         1 RES1   0.0000
   112 C46     -1.1565   5.9186  -3.7236   C.2       1 RES1   0.0000
   113 H56     -1.9383   5.4870  -3.9866   H         1 RES1   0.0000
   114 H57     -0.8401   6.6437  -4.2118   H         1 RES1   0.0000
   115 C47     -0.4771   5.4866  -2.6229   C.2       1 RES1   0.0000
   116 H58      0.3084   5.8471  -2.2782   H         1 RES1   0.0000
   117 C48     -1.2269   4.3471  -2.0871   C.3       1 RES1   0.0000
   118 H59     -0.7409   3.5122  -2.1890   H         1 RES1   0.0000
   119 H60     -2.1054   4.2679  -2.4837   H         1 RES1   0.0000
@<TRIPOS>BOND
     1     1     2    1
     2     2    11    1
     3     3     1    1
     4     4     1    1
     5     5     1    1
     6     6     1    1
     7     7     4    1
     8     8     5    1
     9     9     1    1
    10    10    14    1
    11    11     7    2
    12    12     9   ar
    13    13    40    1
    14    14     3    1
    15    15     4    2
    16    16    15    1
    17    17    10   ar
    18    18    17    1
    19    19     6   ar
    20    20    11    1
    21    21    47    1
    22    22     5    2
    23    23    22    1
    24    24    25    1
    25    26    24   ar
    26    27    26    1
    27    28     6   ar
    28    29    28    1
    29    30    12   ar
    30    31    30    1
    31    32     9   ar
    32    33    32    1
    33    34    10   ar
    34    35    34    1
    35    36    19   ar
    36    37    36    1
    37    38    17   ar
    38    39    38    1
    39    40    38   ar
    40    41    32   ar
    41    42    41    1
    42    43    34   ar
    43    44    43    1
    44    45    30   ar
    45    46    45    1
    46    47    52   ar
    47    48    20   ar
    48    49    48    1
    49    50    20   ar
    50    51    50    1
    51    52    48   ar
    52    53    52    1
    53    54    47   ar
    54    55    54    1
    55    56    13    1
    56    57    56    1
    57    58    56    1
    58    59    21    1
    59    60    59    1
    60    61    59    1
    61    62    59    1
    62    63    62    1
    63    64    62    1
    64    65    56    1
    65    66    65    1
    66    67    65    1
    67    68    62    1
    68    69    68    1
    69    70    68    1
    70    71    68    1
    71    72    71    1
    72    73    71    1
    73    74    71    1
    74    75    74    1
    75    76    74    1
    76    77    78    1
    77    79    77    1
    78    80    74    1
    79    81    80    1
    80    82    80    1
    81    83    77    1
    82    84    83    1
    83    85    83    1
    84    86    83    1
    85    87    86    1
    86    88    86    1
    87    89    86    1
    88    90    89    1
    89    91    89    2
    90    92    91    1
    91    93    91    1
    92    94    65    1
    93    95    94    1
    94    96    94    1
    95    97    94    1
    96    98    97    1
    97    99    97    1
    98   100   101    1
    99   102   100    1
   100   103    97    1
   101   104   103    1
   102   105   103    1
   103   106   100    1
   104   107   106    1
   105   108   106    1
   106   109   106    1
   107   110   109    1
   108   111   109    1
   109   112   113    1
   110   114   112    1
   111   115   112    2
   112   116   115    1
   113   117   109    1
   114   118   117    1
   115   119   117    1
   116     8    14    2
   117    12    15    1
   118    19    22    1
   119    24    28   ar
   120    26    36   ar
   121    40    43   ar
   122    41    45   ar
   123    50    54   ar
   124    77    80    1
   125   100   103    1
   126   115   117    1
@<TRIPOS>SUBSTRUCTURE
     1 RES1        1 GROUP             0 ****  ****    0  
@<TRIPOS>CRYSIN
    8.9210   11.1180   24.7090   81.9360   83.5210   82.0460     2     1
