@<TRIPOS>MOLECULE
HAZYAI
   113   119     4     0     0
SMALL
USER_CHARGES
****
Generated from the CSD

@<TRIPOS>ATOM
     1 Fe1     -1.3141   4.9155   3.9151   Fe        1 RES1   0.0000
     2 O1      -3.4937   3.1394   3.8904   O.3       1 RES1   0.0000
     3 O2      -2.6898   5.0635   6.4384   O.3       1 RES1   0.0000
     4 O3      -0.3448   2.6174   5.3512   O.3       1 RES1  -1.0000
     5 N1      -0.2322   4.2183   2.4950   N.2       1 RES1   0.0000
     6 N2      -0.6048   3.1043   1.9563   N.2       1 RES1   0.0000
     7 N3      -2.3499   3.4042   3.3961   N.2       1 RES1   0.0000
     8 N4      -2.3604   6.1580   2.8944   N.2       1 RES1   0.0000
     9 N5      -3.2394   6.8630   3.5132   N.2       1 RES1   0.0000
    10 N6      -2.5826   5.5348   5.2353   N.2       1 RES1   0.0000
    11 N7      -0.1284   6.2748   4.6448   N.2       1 RES1   0.0000
    12 N8       0.5745   5.9632   5.6680   N.2       1 RES1   0.0000
    13 N9      -0.2990   3.9145   5.1996   N.2       1 RES1   0.0000
    14 C1       0.9652   4.7831   1.9292   C.ar      1 RES1   0.0000
    15 C2       2.0813   4.9038   2.7033   C.ar      1 RES1   0.0000
    16 C3       3.2232   5.4764   2.1498   C.ar      1 RES1   0.0000
    17 C4       3.2124   5.9438   0.8641   C.ar      1 RES1   0.0000
    18 C5       2.0967   5.8308   0.1183   C.ar      1 RES1   0.0000
    19 C6       0.9656   5.2271   0.6385   C.ar      1 RES1   0.0000
    20 C7      -1.7862   2.6291   2.4555   C.2       1 RES1   0.0000
    21 C8      -2.2976   1.3671   1.9206   C.ar      1 RES1   0.0000
    22 C9      -3.4794   0.7751   2.3347   C.ar      1 RES1   0.0000
    23 C10     -3.8929  -0.4246   1.8096   C.ar      1 RES1   0.0000
    24 C11     -3.2140  -1.0828   0.8629   C.ar      1 RES1   0.0000
    25 C12     -2.0337  -0.5375   0.4894   C.ar      1 RES1   0.0000
    26 C13     -1.5834   0.6622   0.9849   C.ar      1 RES1   0.0000
    27 C14     -3.6939  -2.3876   0.2971   C.3       1 RES1   0.0000
    28 C15     -2.3189   6.4034   1.4719   C.ar      1 RES1   0.0000
    29 C16     -2.0538   7.6848   1.0071   C.ar      1 RES1   0.0000
    30 C17     -1.9969   7.8952  -0.3501   C.ar      1 RES1   0.0000
    31 C18     -2.2517   6.8552  -1.2117   C.ar      1 RES1   0.0000
    32 C19     -2.5610   5.6049  -0.7593   C.ar      1 RES1   0.0000
    33 C20     -2.5958   5.3673   0.6040   C.ar      1 RES1   0.0000
    34 C21     -3.3452   6.5553   4.8458   C.2       1 RES1   0.0000
    35 C22     -4.3293   7.2914   5.6335   C.ar      1 RES1   0.0000
    36 C23     -4.1943   7.5057   7.0030   C.ar      1 RES1   0.0000
    37 C24     -5.1384   8.2301   7.7155   C.ar      1 RES1   0.0000
    38 C25     -6.2484   8.7832   7.0856   C.ar      1 RES1   0.0000
    39 C26     -6.3712   8.5885   5.7308   C.ar      1 RES1   0.0000
    40 C27     -5.4356   7.8757   5.0134   C.ar      1 RES1   0.0000
    41 C28     -7.2776   9.5505   7.8708   C.3       1 RES1   0.0000
    42 C29     -0.1588   7.6926   4.4069   C.ar      1 RES1   0.0000
    43 C30     -0.7145   8.5262   5.3561   C.ar      1 RES1   0.0000
    44 C31     -0.7218   9.8894   5.1441   C.ar      1 RES1   0.0000
    45 C32     -0.1919  10.3880   3.9792   C.ar      1 RES1   0.0000
    46 C33      0.3403   9.5544   3.0423   C.ar      1 RES1   0.0000
    47 C34      0.3637   8.2029   3.2395   C.ar      1 RES1   0.0000
    48 C35      0.5480   4.6273   5.9564   C.2       1 RES1   0.0000
    49 C36      1.4635   4.1482   6.9845   C.ar      1 RES1   0.0000
    50 C37      1.2325   3.0147   7.7759   C.ar      1 RES1   0.0000
    51 C38      2.1264   2.6642   8.7670   C.ar      1 RES1   0.0000
    52 C39      3.2767   3.3731   9.0111   C.ar      1 RES1   0.0000
    53 C40      3.5143   4.4909   8.2419   C.ar      1 RES1   0.0000
    54 C41      2.6124   4.8688   7.2594   C.ar      1 RES1   0.0000
    55 C42      4.2468   2.9368  10.0737   C.3       1 RES1   0.0000
    56 H1      -3.8024   2.4305   3.5366   H         1 RES1   0.0000
    57 H2       2.0703   4.5883   3.6106   H         1 RES1   0.0000
    58 H3       4.0333   5.5348   2.6614   H         1 RES1   0.0000
    59 H4       3.9873   6.3722   0.4931   H         1 RES1   0.0000
    60 H5       2.0790   6.1463  -0.7877   H         1 RES1   0.0000
    61 H6       0.1725   5.1102   0.1097   H         1 RES1   0.0000
    62 H7      -3.9695   1.1880   3.0509   H         1 RES1   0.0000
    63 H8      -4.7290  -0.7946   2.1018   H         1 RES1   0.0000
    64 H9      -1.5097  -1.0010  -0.1676   H         1 RES1   0.0000
    65 H10     -0.7380   1.0127   0.6977   H         1 RES1   0.0000
    66 H11     -4.5375  -2.6330   0.6854   H         1 RES1   0.0000
    67 H12     -3.7957  -2.2864  -0.6521   H         1 RES1   0.0000
    68 H13     -3.0482  -3.0771   0.4783   H         1 RES1   0.0000
    69 H14     -1.9145   8.3976   1.6370   H         1 RES1   0.0000
    70 H15     -1.7854   8.7676  -0.6891   H         1 RES1   0.0000
    71 H16     -2.2002   7.0110  -2.1585   H         1 RES1   0.0000
    72 H17     -2.7492   4.8960  -1.3794   H         1 RES1   0.0000
    73 H18     -2.8345   4.5065   0.9480   H         1 RES1   0.0000
    74 H19     -3.4266   7.1473   7.4554   H         1 RES1   0.0000
    75 H20     -5.0459   8.3353   8.6647   H         1 RES1   0.0000
    76 H21     -7.1361   8.9546   5.2809   H         1 RES1   0.0000
    77 H22     -5.5488   7.7900   4.0642   H         1 RES1   0.0000
    78 H23     -7.9616   9.8738   7.2804   H         1 RES1   0.0000
    79 H24     -7.6694   8.9702   8.5266   H         1 RES1   0.0000
    80 H25     -6.8574  10.2906   8.3121   H         1 RES1   0.0000
    81 H26     -1.0970   8.1678   6.1598   H         1 RES1   0.0000
    82 H27     -1.0901  10.4853   5.7999   H         1 RES1   0.0000
    83 H28     -0.2092  11.3345   3.8202   H         1 RES1   0.0000
    84 H29      0.7119   9.9206   2.2374   H         1 RES1   0.0000
    85 H30      0.7399   7.6030   2.5899   H         1 RES1   0.0000
    86 H31      0.4471   2.4889   7.6132   H         1 RES1   0.0000
    87 H32      1.9280   1.9008   9.3156   H         1 RES1   0.0000
    88 H33      4.2954   5.0246   8.4034   H         1 RES1   0.0000
    89 H34     -1.9120   5.6516   6.7367   H         1 RES1   0.0000
    90 H35      4.9974   3.5328  10.1156   H         1 RES1   0.0000
    91 H36      3.8021   2.9213  10.9242   H         1 RES1   0.0000
    92 H37      4.5522   2.0527   9.8555   H         1 RES1   0.0000
    93 N10      4.6141   0.8530   6.7651   N.pl3     2 RES2   1.0000
    94 N11      6.0026   2.4811   6.7158   N.2       2 RES2   0.0000
    95 C43      4.8044   2.0838   6.3460   C.2       2 RES2   0.0000
    96 C44      5.7156   0.4129   7.4418   C.2       2 RES2   0.0000
    97 C45      6.5651   1.4879   7.4246   C.2       2 RES2   0.0000
    98 H38      3.8701   0.3700   6.6172   H         2 RES2   0.0000
    99 H39      4.1796   2.6252   5.8566   H         2 RES2   0.0000
   100 H40      5.8499  -0.4479   7.8486   H         2 RES2   0.0000
   101 H41      7.4302   1.5307   7.8388   H         2 RES2   0.0000
   102 C46      2.2325   1.2347   3.6735   C.3       3 RES3   0.0000
   103 O4       1.9921   1.2425   5.0381   O.3       3 RES3   0.0000
   104 H42      2.7839   0.4908   3.4269   H         3 RES3   0.0000
   105 H43      1.3871   1.1724   3.2223   H         3 RES3   0.0000
   106 H44      2.6678   2.0527   3.4208   H         3 RES3   0.0000
   107 H48      2.4099   0.5258   5.5225   H         3 RES3   0.0000
   108 C47     -0.6255   5.9671   9.2428   C.3       4 RES4   0.0000
   109 O5      -1.8543   5.8853   8.9236   O.3       4 RES4   0.0000
   110 H45     -0.5375   6.6721   9.8888   H         4 RES4   0.0000
   111 H46     -0.2542   5.1609   9.6003   H         4 RES4   0.0000
   112 H47     -0.1569   6.2086   8.4403   H         4 RES4   0.0000
   113 H49     -2.2928   6.5864   8.4391   H         4 RES4   0.0000
@<TRIPOS>BOND
     1     1     5    1
     2     2     7    1
     3     3    10    1
     4     4    13    1
     5     5     6    2
     6     6    20    1
     7     7     1    1
     8     8     1    1
     9     9     8    2
    10    10     1    1
    11    11     1    1
    12    12    11    2
    13    13     1    1
    14    14     5    1
    15    15    14   ar
    16    16    15   ar
    17    17    16   ar
    18    18    17   ar
    19    19    14   ar
    20    20     7    2
    21    21    20    1
    22    22    21   ar
    23    23    22   ar
    24    24    23   ar
    25    25    24   ar
    26    26    21   ar
    27    27    24    1
    28    28     8    1
    29    29    28   ar
    30    30    29   ar
    31    31    30   ar
    32    32    31   ar
    33    33    28   ar
    34    34     9    1
    35    35    34    1
    36    36    35   ar
    37    37    36   ar
    38    38    37   ar
    39    39    38   ar
    40    40    35   ar
    41    41    38    1
    42    42    11    1
    43    43    42   ar
    44    44    43   ar
    45    45    44   ar
    46    46    45   ar
    47    47    42   ar
    48    48    12    1
    49    49    48    1
    50    50    49   ar
    51    51    50   ar
    52    52    51   ar
    53    53    52   ar
    54    54    49   ar
    55    55    52    1
    56    56     2    1
    57    57    15    1
    58    58    16    1
    59    59    17    1
    60    60    18    1
    61    61    19    1
    62    62    22    1
    63    63    23    1
    64    64    25    1
    65    65    26    1
    66    66    27    1
    67    67    27    1
    68    68    27    1
    69    69    29    1
    70    70    30    1
    71    71    31    1
    72    72    32    1
    73    73    33    1
    74    74    36    1
    75    75    37    1
    76    76    39    1
    77    77    40    1
    78    78    41    1
    79    79    41    1
    80    80    41    1
    81    81    43    1
    82    82    44    1
    83    83    45    1
    84    84    46    1
    85    85    47    1
    86    86    50    1
    87    87    51    1
    88    88    53    1
    89    89     3    1
    90    90    55    1
    91    91    55    1
    92    92    55    1
    93    10    34    2
    94    13    48    2
    95    18    19   ar
    96    25    26   ar
    97    32    33   ar
    98    39    40   ar
    99    46    47   ar
   100    53    54   ar
   101    93    95    2
   102    94    95    1
   103    95    99    1
   104    96    93    1
   105    97    94    1
   106    98    93    1
   107   100    96    1
   108   101    97    1
   109    96    97    2
   110   102   103    1
   111   103   107    1
   112   104   102    1
   113   105   102    1
   114   106   102    1
   115   108   109    1
   116   109   113    1
   117   110   108    1
   118   111   108    1
   119   112   108    1
@<TRIPOS>SUBSTRUCTURE
     1 RES1        1 GROUP             0 ****  ****    0  
     2 RES2       93 GROUP             0 ****  ****    0  
     3 RES3      102 GROUP             0 ****  ****    0  
     4 RES4      108 GROUP             0 ****  ****    0  
@<TRIPOS>CRYSIN
    9.4070   38.9500   13.1970   90.0000  110.9200   90.0000    14     1
