@<TRIPOS>MOLECULE
HECBUO
   121   128     7     0     0
SMALL
USER_CHARGES
****
Generated from the CSD

@<TRIPOS>ATOM
     1 Fe1      0.5611   4.8411   4.1299   Fe        1 RES1   2.0000
     2 O1       2.8220   7.9714   8.2098   O.3       1 RES1   0.0000
     3 H1       3.2214   7.7297   8.9610   H         1 RES1   0.0000
     4 O2      -2.5372   1.6249  -1.2898   O.3       1 RES1   0.0000
     5 H2      -2.4933   1.4173  -2.1513   H         1 RES1   0.0000
     6 O3       2.7064   5.7073  -0.9867   O.3       1 RES1   0.0000
     7 H3       2.4579   6.2520  -1.6472   H         1 RES1   0.0000
     8 O4      -3.8136   5.5904   7.6926   O.3       1 RES1   0.0000
     9 H4      -4.6562   5.9062   7.6761   H         1 RES1   0.0000
    10 N1       1.6681   7.4344   5.8362   N.pl3     1 RES1   0.0000
    11 H5       2.2148   6.9975   6.3699   H         1 RES1   0.0000
    12 N2       0.8727   6.8369   4.9252   N.2       1 RES1   0.0000
    13 N3      -0.7282   6.1567   3.0128   N.ar      1 RES1   0.0000
    14 N4      -0.5673   3.5856   2.6982   N.2       1 RES1   0.0000
    15 N5      -0.6161   2.3014   2.3193   N.pl3     1 RES1   0.0000
    16 H6      -0.1367   1.6660   2.6932   H         1 RES1   0.0000
    17 N6       2.8065   5.0711   1.5781   N.pl3     1 RES1   0.0000
    18 H7       2.3833   5.6514   1.0707   H         1 RES1   0.0000
    19 N7       2.3681   4.6798   2.7970   N.2       1 RES1   0.0000
    20 N8       1.9103   3.4970   5.0933   N.ar      1 RES1   0.0000
    21 N9      -0.4283   4.2595   6.0157   N.2       1 RES1   0.0000
    22 N10     -1.4823   4.6355   6.7850   N.pl3     1 RES1   0.0000
    23 H8      -2.1424   5.1416   6.4967   H         1 RES1   0.0000
    24 C1       3.0115   9.2604   7.8128   C.ar      1 RES1   0.0000
    25 C2       3.8194  10.1401   8.5063   C.ar      1 RES1   0.0000
    26 H9       4.2629   9.8514   9.2970   H         1 RES1   0.0000
    27 C3       3.9884  11.4436   8.0599   C.ar      1 RES1   0.0000
    28 H10      4.5450  12.0413   8.5442   H         1 RES1   0.0000
    29 C4       3.3550  11.8719   6.9184   C.ar      1 RES1   0.0000
    30 H11      3.4737  12.7629   6.6104   H         1 RES1   0.0000
    31 C5       2.5424  10.9941   6.2233   C.ar      1 RES1   0.0000
    32 H12      2.0893  11.2958   5.4425   H         1 RES1   0.0000
    33 C6       2.3751   9.6692   6.6482   C.ar      1 RES1   0.0000
    34 C7       1.5286   8.7852   5.8378   C.2       1 RES1   0.0000
    35 C8       0.5644   9.0676   4.8857   C.2       1 RES1   0.0000
    36 H13      0.2289   9.9252   4.6485   H         1 RES1   0.0000
    37 C9       0.1820   7.8347   4.3454   C.2       1 RES1   0.0000
    38 C10     -0.7426   7.4763   3.2862   C.ar      1 RES1   0.0000
    39 C11     -1.5880   8.3556   2.6109   C.ar      1 RES1   0.0000
    40 H14     -1.5991   9.2820   2.8201   H         1 RES1   0.0000
    41 C12     -2.4090   7.8339   1.6308   C.ar      1 RES1   0.0000
    42 H15     -2.9888   8.4122   1.1481   H         1 RES1   0.0000
    43 C13     -2.3966   6.4935   1.3441   C.ar      1 RES1   0.0000
    44 H16     -2.9579   6.1375   0.6655   H         1 RES1   0.0000
    45 C14     -1.5444   5.6650   2.0656   C.ar      1 RES1   0.0000
    46 C15     -1.4214   4.2186   1.8910   C.2       1 RES1   0.0000
    47 C16     -2.0074   3.3270   0.9916   C.2       1 RES1   0.0000
    48 H17     -2.6366   3.5306   0.3097   H         1 RES1   0.0000
    49 C17     -1.4788   2.0851   1.2997   C.2       1 RES1   0.0000
    50 C18     -1.6771   0.7276   0.7413   C.ar      1 RES1   0.0000
    51 C19     -1.3274  -0.3802   1.5023   C.ar      1 RES1   0.0000
    52 H18     -0.9995  -0.2542   2.3852   H         1 RES1   0.0000
    53 C20     -1.4427  -1.6582   1.0032   C.ar      1 RES1   0.0000
    54 H19     -1.1844  -2.4055   1.5303   H         1 RES1   0.0000
    55 C21     -1.9430  -1.8414  -0.2767   C.ar      1 RES1   0.0000
    56 H20     -2.0334  -2.7205  -0.6276   H         1 RES1   0.0000
    57 C22     -2.3066  -0.7551  -1.0394   C.ar      1 RES1   0.0000
    58 H21     -2.6463  -0.8915  -1.9157   H         1 RES1   0.0000
    59 C23     -2.1857   0.5314  -0.5452   C.ar      1 RES1   0.0000
    60 C24      3.9674   5.2204  -1.1662   C.ar      1 RES1   0.0000
    61 C25      4.5930   5.2681  -2.4099   C.ar      1 RES1   0.0000
    62 H22      4.1272   5.6329  -3.1528   H         1 RES1   0.0000
    63 C26      5.8670   4.7975  -2.5812   C.ar      1 RES1   0.0000
    64 H23      6.2821   4.8410  -3.4345   H         1 RES1   0.0000
    65 C27      6.5470   4.2584  -1.5023   C.ar      1 RES1   0.0000
    66 H24      7.4363   3.9456  -1.6110   H         1 RES1   0.0000
    67 C28      5.9326   4.1756  -0.2652   C.ar      1 RES1   0.0000
    68 H25      6.4007   3.7892   0.4662   H         1 RES1   0.0000
    69 C29      4.6285   4.6533  -0.0758   C.ar      1 RES1   0.0000
    70 C30      3.9729   4.4686   1.2239   C.2       1 RES1   0.0000
    71 C31      4.3010   3.6262   2.2781   C.2       1 RES1   0.0000
    72 H26      5.0624   3.0626   2.3473   H         1 RES1   0.0000
    73 C32      3.2811   3.7847   3.2072   C.2       1 RES1   0.0000
    74 C33      3.0432   3.1154   4.4854   C.ar      1 RES1   0.0000
    75 C34      3.8771   2.1633   5.0521   C.ar      1 RES1   0.0000
    76 H27      4.6731   1.8961   4.6090   H         1 RES1   0.0000
    77 C35      3.5330   1.6069   6.2727   C.ar      1 RES1   0.0000
    78 H28      4.0801   0.9375   6.6664   H         1 RES1   0.0000
    79 C36      2.3857   2.0341   6.9134   C.ar      1 RES1   0.0000
    80 H29      2.1490   1.6860   7.7651   H         1 RES1   0.0000
    81 C37      1.5858   2.9792   6.2924   C.ar      1 RES1   0.0000
    82 C38      0.3279   3.4966   6.8245   C.2       1 RES1   0.0000
    83 C39     -0.2275   3.4091   8.0962   C.2       1 RES1   0.0000
    84 H30      0.1278   2.9412   8.8424   H         1 RES1   0.0000
    85 C40     -1.4047   4.1423   8.0566   C.2       1 RES1   0.0000
    86 C41     -2.3462   4.4310   9.1438   C.ar      1 RES1   0.0000
    87 C42     -2.0460   3.9703  10.4352   C.ar      1 RES1   0.0000
    88 H31     -1.2571   3.4606  10.5785   H         1 RES1   0.0000
    89 C43     -2.8761   4.2466  11.4944   C.ar      1 RES1   0.0000
    90 H32     -2.6551   3.9363  12.3658   H         1 RES1   0.0000
    91 C44     -4.0346   4.9769  11.2918   C.ar      1 RES1   0.0000
    92 H33     -4.6050   5.1723  12.0265   H         1 RES1   0.0000
    93 C45     -4.3674   5.4231  10.0267   C.ar      1 RES1   0.0000
    94 H34     -5.1718   5.9087   9.8884   H         1 RES1   0.0000
    95 C46     -3.5260   5.1599   8.9643   C.ar      1 RES1   0.0000
    96 Cl1      1.1162  -0.7227   4.5917   Cl        2 RES2   0.0000
    97 O5       0.6966   0.6042   4.2268   O.3       2 RES2  -1.0000
    98 O6       0.2627  -1.6938   3.9896   O.2       2 RES2   0.0000
    99 O7       1.0628  -0.8587   6.0108   O.2       2 RES2   0.0000
   100 O8       2.4603  -0.9134   4.1230   O.2       2 RES2   0.0000
   101 Cl2      0.4469   0.2220  10.2148   Cl        3 RES3   0.0000
   102 O9       1.6788   0.9278  10.0234   O.3       3 RES3  -1.0000
   103 O10     -0.1679  -0.0195   8.9297   O.2       3 RES3   0.0000
   104 O11     -0.4438   1.0504  11.0035   O.2       3 RES3   0.0000
   105 O12      0.6946  -1.0209  10.8849   O.2       3 RES3   0.0000
   106 N11     -1.9054  -2.7700  11.4055   N.pl3     4 RES4   0.0000
   107 O13     -2.6946  -2.1237  10.7910   O.2       4 RES4   0.0000
   108 O14     -1.6909  -2.6303  12.5585   O.2       4 RES4   0.0000
   109 C47     -1.1941  -3.7834  10.6873   C.3       4 RES4   0.0000
   110 H35     -1.4783  -3.7801   9.7483   H         4 RES4   0.0000
   111 H36     -1.3841  -4.6596  11.0826   H         4 RES4   0.0000
   112 H37     -0.2317  -3.6048  10.7367   H         4 RES4   0.0000
   113 N12     -0.9130   6.3795  14.2535   N.pl3     5 RES5   0.0000
   114 O15     -1.2140   5.4026  14.8037   O.2       5 RES5   0.0000
   115 O16     -0.0337   6.4945  13.5255   O.2       5 RES5   0.0000
   116 C48     -1.6939   7.5608  14.5270   C.3       5 RES5   0.0000
   117 H38     -1.3343   8.3152  14.0147   H         5 RES5   0.0000
   118 H39     -1.6506   7.7662  15.4857   H         5 RES5   0.0000
   119 H40     -2.6253   7.4041  14.2684   H         5 RES5   0.0000
   120 O17      7.1040   5.4958   2.7987   O.3       6 RES6   0.0000
   121 O18     -3.2822   0.4901  11.5850   O.3       7 RES7   0.0000
@<TRIPOS>BOND
     1     1    12    1
     2     2     3    1
     3     4     5    1
     4     6     7    1
     5     8     9    1
     6    10    11    1
     7    12    10    1
     8    13     1    1
     9    14     1    1
    10    15    14    1
    11    16    15    1
    12    17    18    1
    13    19     1    1
    14    20     1    1
    15    21     1    1
    16    22    21    1
    17    23    22    1
    18    24     2    1
    19    25    24   ar
    20    26    25    1
    21    27    25   ar
    22    28    27    1
    23    29    27   ar
    24    30    29    1
    25    31    29   ar
    26    32    31    1
    27    33    24   ar
    28    34    10    1
    29    35    34    2
    30    36    35    1
    31    37    12    2
    32    38    13   ar
    33    39    38   ar
    34    40    39    1
    35    41    39   ar
    36    42    41    1
    37    43    41   ar
    38    44    43    1
    39    45    13   ar
    40    46    14    2
    41    47    46    1
    42    48    47    1
    43    49    15    1
    44    50    49    1
    45    51    50   ar
    46    52    51    1
    47    53    51   ar
    48    54    53    1
    49    55    53   ar
    50    56    55    1
    51    57    55   ar
    52    58    57    1
    53    59     4    1
    54    60     6    1
    55    61    60   ar
    56    62    61    1
    57    63    61   ar
    58    64    63    1
    59    65    63   ar
    60    66    65    1
    61    67    65   ar
    62    68    67    1
    63    69    60   ar
    64    70    17    1
    65    71    70    2
    66    72    71    1
    67    73    19    2
    68    74    20   ar
    69    75    74   ar
    70    76    75    1
    71    77    75   ar
    72    78    77    1
    73    79    77   ar
    74    80    79    1
    75    81    20   ar
    76    82    21    2
    77    83    82    1
    78    84    83    1
    79    85    22    1
    80    86    85    1
    81    87    86   ar
    82    88    87    1
    83    89    87   ar
    84    90    89    1
    85    91    89   ar
    86    92    91    1
    87    93    91   ar
    88    94    93    1
    89    95     8    1
    90    17    19    1
    91    31    33   ar
    92    33    34    1
    93    35    37    1
    94    37    38    1
    95    43    45   ar
    96    45    46    1
    97    47    49    2
    98    50    59   ar
    99    57    59   ar
   100    67    69   ar
   101    69    70    1
   102    71    73    1
   103    73    74    1
   104    79    81   ar
   105    81    82    1
   106    83    85    2
   107    86    95   ar
   108    93    95   ar
   109    96    97    1
   110    98    96    2
   111    99    96    2
   112   100    96    2
   113   101   102    1
   114   103   101    2
   115   104   101    2
   116   105   101    2
   117   106   107    2
   118   108   106    2
   119   109   106    1
   120   110   109    1
   121   111   109    1
   122   112   109    1
   123   113   114    2
   124   115   113    2
   125   116   113    1
   126   117   116    1
   127   118   116    1
   128   119   116    1
@<TRIPOS>SUBSTRUCTURE
     1 RES1        1 GROUP             0 ****  ****    0  
     2 RES2       96 GROUP             0 ****  ****    0  
     3 RES3      101 GROUP             0 ****  ****    0  
     4 RES4      106 GROUP             0 ****  ****    0  
     5 RES5      113 GROUP             0 ****  ****    0  
     6 RES6      120 GROUP             0 ****  ****    0  
     7 RES7      121 GROUP             0 ****  ****    0  
@<TRIPOS>CRYSIN
   12.0456   13.3687   18.0990  108.0320  101.5970  102.6360     2     1
