@<TRIPOS>MOLECULE
HENGOX
   101   106     4     0     0
SMALL
USER_CHARGES
****
Generated from the CSD

@<TRIPOS>ATOM
     1 Fe1      9.7822   6.6498  10.8286   Fe        1 RES1   2.0000
     2 O1       8.2511   6.6429  12.2631   O.2       1 RES1   0.0000
     3 O2      11.2737   6.6802   9.3920   O.2       1 RES1   0.0000
     4 O3      10.7768   5.7606  12.5264   O.2       1 RES1   0.0000
     5 N1       8.0087   7.3416   9.7825   N.ar      1 RES1   0.0000
     6 N2       6.0311   6.3469  12.5875   N.am      1 RES1   0.0000
     7 N3      10.6409   8.6297  10.9900   N.ar      1 RES1   0.0000
     8 N4      13.2035   7.6327   8.7068   N.am      1 RES1   0.0000
     9 N5       9.6448   4.5328  10.4804   N.ar      1 RES1   0.0000
    10 N6      10.3945   4.0024  13.9241   N.am      1 RES1   0.0000
    11 C1       7.9635   7.8944   8.5642   C.ar      1 RES1   0.0000
    12 H1       8.7598   7.9225   8.0465   H         1 RES1   0.0000
    13 C2       6.8095   8.4214   8.0331   C.ar      1 RES1   0.0000
    14 H2       6.8210   8.8204   7.1711   H         1 RES1   0.0000
    15 C3       5.6391   8.3699   8.7538   C.ar      1 RES1   0.0000
    16 H3       4.8343   8.7292   8.3988   H         1 RES1   0.0000
    17 C4       5.6558   7.7837  10.0084   C.ar      1 RES1   0.0000
    18 H4       4.8620   7.7218  10.5274   H         1 RES1   0.0000
    19 C5       6.8473   7.2933  10.4844   C.ar      1 RES1   0.0000
    20 C6       7.0741   6.7381  11.8640   C.2       1 RES1   0.0000
    21 C7       6.0655   5.7170  13.8730   C.ar      1 RES1   0.0000
    22 C8       4.8873   5.1396  14.3181   C.ar      1 RES1   0.0000
    23 H5       4.1010   5.1915  13.7856   H         1 RES1   0.0000
    24 C9       4.8566   4.4846  15.5417   C.ar      1 RES1   0.0000
    25 H6       4.0413   4.0978  15.8389   H         1 RES1   0.0000
    26 C10      5.9905   4.3807  16.3431   C.ar      1 RES1   0.0000
    27 C11      5.9579   3.6548  17.6596   C.3       1 RES1   0.0000
    28 H7       5.0566   3.3066  17.8196   H         1 RES1   0.0000
    29 H8       6.2009   4.2753  18.3790   H         1 RES1   0.0000
    30 H9       6.5960   2.9119  17.6394   H         1 RES1   0.0000
    31 C12      7.1589   4.9707  15.8739   C.ar      1 RES1   0.0000
    32 H10      7.9460   4.9168  16.4037   H         1 RES1   0.0000
    33 C13      7.2092   5.6344  14.6596   C.ar      1 RES1   0.0000
    34 H11      8.0218   6.0322  14.3665   H         1 RES1   0.0000
    35 C14     10.1809   9.6442  11.7255   C.ar      1 RES1   0.0000
    36 H12      9.3579   9.5396  12.1895   H         1 RES1   0.0000
    37 C15     10.8617  10.8361  11.8345   C.ar      1 RES1   0.0000
    38 H13     10.4976  11.5522  12.3427   H         1 RES1   0.0000
    39 C16     12.0756  10.9815  11.1984   C.ar      1 RES1   0.0000
    40 H14     12.5796  11.7810  11.2966   H         1 RES1   0.0000
    41 C17     12.5444   9.9478  10.4172   C.ar      1 RES1   0.0000
    42 H15     13.3687  10.0312   9.9519   H         1 RES1   0.0000
    43 C18     11.8038   8.7951  10.3217   C.ar      1 RES1   0.0000
    44 C19     12.0997   7.6201   9.4396   C.2       1 RES1   0.0000
    45 C20     13.5573   6.6074   7.7722   C.ar      1 RES1   0.0000
    46 C21     14.8750   6.1559   7.7682   C.ar      1 RES1   0.0000
    47 H16     15.5101   6.5059   8.3827   H         1 RES1   0.0000
    48 C22     15.2446   5.1816   6.8457   C.ar      1 RES1   0.0000
    49 H17     16.1454   4.8825   6.8282   H         1 RES1   0.0000
    50 C23     14.3404   4.6341   5.9515   C.ar      1 RES1   0.0000
    51 C24     14.7548   3.5853   4.9484   C.3       1 RES1   0.0000
    52 H18     15.7079   3.3864   5.0587   H         1 RES1   0.0000
    53 H19     14.5950   3.9199   4.0407   H         1 RES1   0.0000
    54 H20     14.2323   2.7700   5.0923   H         1 RES1   0.0000
    55 C25     13.0289   5.1020   5.9959   C.ar      1 RES1   0.0000
    56 H21     12.3861   4.7379   5.4002   H         1 RES1   0.0000
    57 C26     12.6439   6.0877   6.8901   C.ar      1 RES1   0.0000
    58 H22     11.7479   6.4033   6.8928   H         1 RES1   0.0000
    59 C27      9.2990   3.9268   9.3320   C.ar      1 RES1   0.0000
    60 H23      9.0650   4.4652   8.5857   H         1 RES1   0.0000
    61 C28      9.2723   2.5584   9.1949   C.ar      1 RES1   0.0000
    62 H24      9.0452   2.1620   8.3639   H         1 RES1   0.0000
    63 C29      9.5842   1.7679  10.2908   C.ar      1 RES1   0.0000
    64 H25      9.5536   0.8214  10.2289   H         1 RES1   0.0000
    65 C30      9.9427   2.3844  11.4714   C.ar      1 RES1   0.0000
    66 H26     10.1681   1.8624  12.2325   H         1 RES1   0.0000
    67 C31      9.9696   3.7554  11.5413   C.ar      1 RES1   0.0000
    68 C32     10.4330   4.5893  12.7139   C.2       1 RES1   0.0000
    69 C33     10.6707   4.6340  15.1827   C.ar      1 RES1   0.0000
    70 C34     10.9127   3.7812  16.2571   C.ar      1 RES1   0.0000
    71 H27     10.9218   2.8397  16.1280   H         1 RES1   0.0000
    72 C35     11.1379   4.3143  17.5170   C.ar      1 RES1   0.0000
    73 H28     11.3143   3.7302  18.2445   H         1 RES1   0.0000
    74 C36     11.1107   5.6770  17.7362   C.ar      1 RES1   0.0000
    75 C37     11.3524   6.2462  19.1172   C.3       1 RES1   0.0000
    76 H29     11.2970   7.2242  19.0809   H         1 RES1   0.0000
    77 H30     12.2429   5.9807  19.4292   H         1 RES1   0.0000
    78 H31     10.6734   5.9025  19.7344   H         1 RES1   0.0000
    79 C38     10.8601   6.5174  16.6565   C.ar      1 RES1   0.0000
    80 H32     10.8307   7.4566  16.7950   H         1 RES1   0.0000
    81 C39     10.6498   6.0073  15.3750   C.ar      1 RES1   0.0000
    82 H33     10.4946   6.5927  14.6435   H         1 RES1   0.0000
    83 H37      5.3082   6.4518  12.2096   H         1 RES1   0.0000
    84 H38     13.7762   8.2438   8.8076   H         1 RES1   0.0000
    85 H39     10.2273   3.1308  13.9442   H         1 RES1   0.0000
    86 Cl1     15.1836   7.2544  12.0606   Cl        2 RES2   0.0000
    87 O4      15.1886   8.2648  11.0451   O.3       2 RES2  -1.0000
    88 O5      15.7061   7.7854  13.2827   O.2       2 RES2   0.0000
    89 O6      16.0150   6.1451  11.6354   O.2       2 RES2   0.0000
    90 O7      13.8374   6.7634  12.2621   O.2       2 RES2   0.0000
    91 Cl2      8.5315   5.2507   5.6374   Cl        3 RES3   0.0000
    92 O8       9.1210   6.5622   5.6839   O.3       3 RES3  -1.0000
    93 O9       9.5375   4.2583   5.8372   O.2       3 RES3   0.0000
    94 O10      7.5573   5.1880   6.6682   O.2       3 RES3   0.0000
    95 O11      7.9139   5.0606   4.3621   O.2       3 RES3   0.0000
    96 N7      19.5883  10.2324  11.8909   N.1       4 RES4   0.0000
    97 C40     17.1143  10.8653  12.3562   C.3       4 RES4   0.0000
    98 C41     18.4974  10.5065  12.0846   C.1       4 RES4   0.0000
    99 H34     16.6455  10.9441  11.5776   H         4 RES4   0.0000
   100 H35     17.1007  11.6403  12.8954   H         4 RES4   0.0000
   101 H36     16.6308  10.2253  12.8551   H         4 RES4   0.0000
@<TRIPOS>BOND
     1     1     2    1
     2     2    20    2
     3     3     1    1
     4     4     1    1
     5     5     1    1
     6     6    20   am
     7     7     1    1
     8     8    44   am
     9     9     1    1
    10    10    68   am
    11    11     5   ar
    12    12    11    1
    13    13    11   ar
    14    14    13    1
    15    15    13   ar
    16    16    15    1
    17    17    15   ar
    18    18    17    1
    19    19     5   ar
    20    20    19    1
    21    21     6    1
    22    22    21   ar
    23    23    22    1
    24    24    22   ar
    25    25    24    1
    26    26    24   ar
    27    27    26    1
    28    28    27    1
    29    29    27    1
    30    30    27    1
    31    31    26   ar
    32    32    31    1
    33    33    21   ar
    34    34    33    1
    35    35     7   ar
    36    36    35    1
    37    37    35   ar
    38    38    37    1
    39    39    37   ar
    40    40    39    1
    41    41    39   ar
    42    42    41    1
    43    43     7   ar
    44    44     3    2
    45    45     8    1
    46    46    45   ar
    47    47    46    1
    48    48    46   ar
    49    49    48    1
    50    50    48   ar
    51    51    50    1
    52    52    51    1
    53    53    51    1
    54    54    51    1
    55    55    50   ar
    56    56    55    1
    57    57    45   ar
    58    58    57    1
    59    59     9   ar
    60    60    59    1
    61    61    59   ar
    62    62    61    1
    63    63    61   ar
    64    64    63    1
    65    65    63   ar
    66    66    65    1
    67    67     9   ar
    68    68     4    2
    69    69    10    1
    70    70    69   ar
    71    71    70    1
    72    72    70   ar
    73    73    72    1
    74    74    72   ar
    75    75    74    1
    76    76    75    1
    77    77    75    1
    78    78    75    1
    79    79    74   ar
    80    80    79    1
    81    81    69   ar
    82    82    81    1
    83    83     6    1
    84    84     8    1
    85    85    10    1
    86    17    19   ar
    87    31    33   ar
    88    41    43   ar
    89    43    44    1
    90    55    57   ar
    91    65    67   ar
    92    67    68    1
    93    79    81   ar
    94    86    87    1
    95    88    86    2
    96    89    86    2
    97    90    86    2
    98    91    92    1
    99    93    91    2
   100    94    91    2
   101    95    91    2
   102    96    98    3
   103    97    98    1
   104    99    97    1
   105   100    97    1
   106   101    97    1
@<TRIPOS>SUBSTRUCTURE
     1 RES1        1 GROUP             0 ****  ****    0  
     2 RES2       86 GROUP             0 ****  ****    0  
     3 RES3       91 GROUP             0 ****  ****    0  
     4 RES4       96 GROUP             0 ****  ****    0  
@<TRIPOS>CRYSIN
   12.8190   13.4790   15.0750   67.0290   68.1450   64.8760     2     1
