@<TRIPOS>MOLECULE
HIFCAD
   163   169     6     0     0
SMALL
USER_CHARGES
****
Generated from the CSD

@<TRIPOS>ATOM
     1 Br1      5.5309   5.1821   5.2617   Br        1 RES1  -1.0000
     2 Fe1      7.7440   8.9798   7.1938   Fe        2 RES2   1.0000
     3 O1       2.1689   9.3949   0.7762   O.3       2 RES2   0.0000
     4 O2      11.9596   2.8327   3.0435   O.3       2 RES2   0.0000
     5 O3      10.1168  13.7409   0.5992   O.3       2 RES2   0.0000
     6 O4       3.3463   3.3837  11.9768   O.3       2 RES2   0.0000
     7 N1       7.0028  10.3925   8.3497   N.2       2 RES2   0.0000
     8 N2       7.0422  10.3978   9.6395   N.2       2 RES2   0.0000
     9 N3       9.0626   9.0888   9.7951   N.2       2 RES2   0.0000
    10 N4       9.2031   8.9423   8.5296   N.2       2 RES2   0.0000
    11 N5       5.4822   9.1604   5.1839   N.1       2 RES2   0.0000
    12 N6       9.0636   6.7605   5.6106   N.1       2 RES2   0.0000
    13 N7       9.0301  10.7933   5.1311   N.1       2 RES2   0.0000
    14 N8       6.2291   6.9253   8.8891   N.1       2 RES2   0.0000
    15 C1       6.0879  11.3837   7.8481   C.ar      2 RES2   0.0000
    16 C2       4.7295  11.2686   8.1307   C.ar      2 RES2   0.0000
    17 H1       4.4146  10.5503   8.6665   H         2 RES2   0.0000
    18 C3       3.8357  12.2036   7.6300   C.ar      2 RES2   0.0000
    19 H2       2.9070  12.1175   7.8120   H         2 RES2   0.0000
    20 C4       4.2968  13.2663   6.8615   C.ar      2 RES2   0.0000
    21 H3       3.6850  13.9084   6.5209   H         2 RES2   0.0000
    22 C5       5.6535  13.3884   6.5926   C.ar      2 RES2   0.0000
    23 H4       5.9712  14.1213   6.0777   H         2 RES2   0.0000
    24 C6       6.5504  12.4397   7.0764   C.ar      2 RES2   0.0000
    25 H5       7.4763  12.5151   6.8784   H         2 RES2   0.0000
    26 C7       7.9303   9.6292  10.3104   C.2       2 RES2   0.0000
    27 C8       7.7915   9.6110  11.7800   C.ar      2 RES2   0.0000
    28 C9       6.5692   9.9003  12.3789   C.ar      2 RES2   0.0000
    29 H6       5.8094  10.0723  11.8348   H         2 RES2   0.0000
    30 C10      6.4453   9.9426  13.7620   C.ar      2 RES2   0.0000
    31 H7       5.6041  10.1564  14.1484   H         2 RES2   0.0000
    32 C11      7.5287   9.6763  14.5916   C.ar      2 RES2   0.0000
    33 C12      8.7437   9.3411  13.9898   C.ar      2 RES2   0.0000
    34 H8       9.4928   9.1317  14.5353   H         2 RES2   0.0000
    35 C13      8.8755   9.3101  12.6147   C.ar      2 RES2   0.0000
    36 H9       9.7130   9.0806  12.2297   H         2 RES2   0.0000
    37 C14      7.4088   9.7551  16.0884   C.3       2 RES2   0.0000
    38 H10      7.9587  10.4938  16.4221   H         2 RES2   0.0000
    39 H11      7.7166   8.9131  16.4852   H         2 RES2   0.0000
    40 H12      6.4722   9.9078  16.3334   H         2 RES2   0.0000
    41 C15     10.5165   8.4612   8.1772   C.ar      2 RES2   0.0000
    42 C16     10.8827   7.1668   8.5353   C.ar      2 RES2   0.0000
    43 H13     10.2829   6.6199   9.0298   H         2 RES2   0.0000
    44 C17     12.1260   6.6799   8.1663   C.ar      2 RES2   0.0000
    45 H14     12.3798   5.7974   8.4106   H         2 RES2   0.0000
    46 C18     13.0024   7.4745   7.4414   C.ar      2 RES2   0.0000
    47 H15     13.8526   7.1370   7.1849   H         2 RES2   0.0000
    48 C19     12.6305   8.7584   7.0954   C.ar      2 RES2   0.0000
    49 H16     13.2336   9.3050   6.6058   H         2 RES2   0.0000
    50 C20     11.3834   9.2624   7.4541   C.ar      2 RES2   0.0000
    51 H17     11.1305  10.1444   7.2060   H         2 RES2   0.0000
    52 C21      6.3130   9.0680   5.9926   C.1       2 RES2   0.0000
    53 C22      8.5312   7.5904   6.2224   C.1       2 RES2   0.0000
    54 C23      8.6105  10.1721   6.0167   C.1       2 RES2   0.0000
    55 C24      6.8056   7.7067   8.2621   C.1       2 RES2   0.0000
    56 C25      4.5880   9.2056   4.1064   C.ar      2 RES2   0.0000
    57 C26      4.2523  10.4345   3.5454   C.ar      2 RES2   0.0000
    58 H18      4.5727  11.2441   3.9255   H         2 RES2   0.0000
    59 C27      3.4449  10.4555   2.4280   C.ar      2 RES2   0.0000
    60 H19      3.2188  11.2849   2.0246   H         2 RES2   0.0000
    61 C28      2.9566   9.2612   1.8827   C.ar      2 RES2   0.0000
    62 C29      3.2718   8.0455   2.4782   C.ar      2 RES2   0.0000
    63 H20      2.9260   7.2355   2.1214   H         2 RES2   0.0000
    64 C30      4.0949   8.0179   3.5947   C.ar      2 RES2   0.0000
    65 H21      4.3175   7.1911   4.0055   H         2 RES2   0.0000
    66 C31      1.7107   8.1987   0.1383   C.3       2 RES2   0.0000
    67 H22      1.1734   8.4324  -0.6474   H         2 RES2   0.0000
    68 H23      1.1625   7.6829   0.7666   H         2 RES2   0.0000
    69 H24      2.4807   7.6610  -0.1406   H         2 RES2   0.0000
    70 C32      9.8086   5.7952   4.9274   C.ar      2 RES2   0.0000
    71 C33      9.1656   4.6657   4.4263   C.ar      2 RES2   0.0000
    72 H25      8.2262   4.5589   4.5192   H         2 RES2   0.0000
    73 C34      9.9279   3.7030   3.7904   C.ar      2 RES2   0.0000
    74 H26      9.5109   2.9214   3.4458   H         2 RES2   0.0000
    75 C35     11.3062   3.8731   3.6527   C.ar      2 RES2   0.0000
    76 C36     11.9343   5.0120   4.1394   C.ar      2 RES2   0.0000
    77 H27     12.8706   5.1290   4.0315   H         2 RES2   0.0000
    78 C37     11.1741   5.9772   4.7853   C.ar      2 RES2   0.0000
    79 H28     11.5890   6.7602   5.1286   H         2 RES2   0.0000
    80 C38     13.3606   2.9904   2.7967   C.3       2 RES2   0.0000
    81 H29     13.7215   2.1620   2.4175   H         2 RES2   0.0000
    82 H30     13.8205   3.1916   3.6386   H         2 RES2   0.0000
    83 H31     13.5005   3.7267   2.1648   H         2 RES2   0.0000
    84 C39      9.3502  11.5817   4.0206   C.ar      2 RES2   0.0000
    85 C40      8.8378  12.8576   3.9270   C.ar      2 RES2   0.0000
    86 H32      8.3213  13.2154   4.6398   H         2 RES2   0.0000
    87 C41      9.0749  13.6202   2.7956   C.ar      2 RES2   0.0000
    88 H33      8.7224  14.4996   2.7275   H         2 RES2   0.0000
    89 C42      9.8303  13.0864   1.7622   C.ar      2 RES2   0.0000
    90 C43     10.3751  11.8077   1.8684   C.ar      2 RES2   0.0000
    91 H34     10.9054  11.4548   1.1633   H         2 RES2   0.0000
    92 C44     10.1397  11.0518   3.0048   C.ar      2 RES2   0.0000
    93 H35     10.5131  10.1826   3.0896   H         2 RES2   0.0000
    94 C45      9.6036  15.0685   0.4471   C.3       2 RES2   0.0000
    95 H36      9.8949  15.4343  -0.4141   H         2 RES2   0.0000
    96 H37      9.9401  15.6337   1.1731   H         2 RES2   0.0000
    97 H38      8.6244  15.0452   0.4778   H         2 RES2   0.0000
    98 C46      5.5061   6.0023   9.6602   C.ar      2 RES2   0.0000
    99 C47      4.9777   4.8796   9.0352   C.ar      2 RES2   0.0000
   100 H39      5.1150   4.7322   8.1067   H         2 RES2   0.0000
   101 C48      4.2436   3.9727   9.7962   C.ar      2 RES2   0.0000
   102 H40      3.8735   3.1987   9.3883   H         2 RES2   0.0000
   103 C49      4.0528   4.2040  11.1530   C.ar      2 RES2   0.0000
   104 C50      4.5991   5.3416  11.7668   C.ar      2 RES2   0.0000
   105 H41      4.4679   5.4915  12.6956   H         2 RES2   0.0000
   106 C51      5.3258   6.2401  11.0155   C.ar      2 RES2   0.0000
   107 H42      5.6987   7.0143  11.4209   H         2 RES2   0.0000
   108 C52      2.7630   2.2104  11.3880   C.3       2 RES2   0.0000
   109 H43      2.1261   2.4757  10.6922   H         2 RES2   0.0000
   110 H44      2.2962   1.6954  12.0790   H         2 RES2   0.0000
   111 H45      3.4690   1.6582  10.9908   H         2 RES2   0.0000
   112 O5       7.8056   1.4901   7.6902   O.3       3 RES3   0.0000
   113 C53      8.0825   2.7470   7.0701   C.3       3 RES3   0.0000
   114 H46      7.2647   3.1088   6.6461   H         3 RES3   0.0000
   115 H47      8.7783   2.6403   6.3736   H         3 RES3   0.0000
   116 C54      8.5722   3.6868   8.1700   C.3       3 RES3   0.0000
   117 H48      9.5390   3.8746   8.0728   H         3 RES3   0.0000
   118 H49      8.0741   4.5428   8.1528   H         3 RES3   0.0000
   119 C55      8.2895   2.9150   9.4559   C.3       3 RES3   0.0000
   120 H50      9.1311   2.5822   9.8582   H         3 RES3   0.0000
   121 H51      7.8243   3.4882  10.1156   H         3 RES3   0.0000
   122 C56      7.4116   1.7703   9.0254   C.3       3 RES3   0.0000
   123 H52      7.5531   0.9812   9.6062   H         3 RES3   0.0000
   124 H53      6.4560   2.0274   9.0628   H         3 RES3   0.0000
   125 O6       9.8694   5.5544  13.8208   O.3       4 RES4   0.0000
   126 C57      8.6790   5.6969  13.0790   C.3       4 RES4   0.0000
   127 H54      8.1670   6.4860  13.3874   H         4 RES4   0.0000
   128 H55      8.1098   4.8916  13.1731   H         4 RES4   0.0000
   129 C58      9.1224   5.8752  11.6336   C.3       4 RES4   0.0000
   130 H56      9.1439   6.8329  11.3853   H         4 RES4   0.0000
   131 H57      8.5157   5.3956  11.0151   H         4 RES4   0.0000
   132 C59     10.5247   5.2697  11.6026   C.3       4 RES4   0.0000
   133 H58     10.5739   4.5218  10.9557   H         4 RES4   0.0000
   134 H59     11.1997   5.9515  11.3579   H         4 RES4   0.0000
   135 C60     10.7393   4.7822  13.0036   C.3       4 RES4   0.0000
   136 H60     10.5193   3.8191  13.0743   H         4 RES4   0.0000
   137 H61     11.6816   4.9131  13.2774   H         4 RES4   0.0000
   138 O7       2.7848  11.0458  12.5011   O.3       5 RES5   0.0000
   139 C61      2.4766   9.9777  13.4027   C.3       5 RES5   0.0000
   140 H62      1.5296  10.0253  13.6882   H         5 RES5   0.0000
   141 H63      3.0531  10.0232  14.2062   H         5 RES5   0.0000
   142 C62      2.7366   8.6951  12.6314   C.3       5 RES5   0.0000
   143 H64      2.0233   8.0300  12.8012   H         5 RES5   0.0000
   144 H65      3.6091   8.3015  12.8853   H         5 RES5   0.0000
   145 C63      2.7406   9.1291  11.1607   C.3       5 RES5   0.0000
   146 H66      3.6381   9.0155  10.7586   H         5 RES5   0.0000
   147 H67      2.0829   8.6084  10.6346   H         5 RES5   0.0000
   148 C64      2.3528  10.5901  11.2238   C.3       5 RES5   0.0000
   149 H68      2.7995  11.1006  10.5027   H         5 RES5   0.0000
   150 H69      1.3733  10.6954  11.1287   H         5 RES5   0.0000
   151 O8       8.5451   7.6817   0.5762   O.3       6 RES6   0.0000
   152 C65      8.7750   7.4647   1.9726   C.3       6 RES6   0.0000
   153 H70      9.6518   7.8363   2.2439   H         6 RES6   0.0000
   154 H71      8.7608   6.4973   2.1821   H         6 RES6   0.0000
   155 C66      7.6479   8.1822   2.6845   C.3       6 RES6   0.0000
   156 H72      7.9636   8.5738   3.5373   H         6 RES6   0.0000
   157 H73      6.9007   7.5611   2.8747   H         6 RES6   0.0000
   158 C67      7.2114   9.2743   1.7160   C.3       6 RES6   0.0000
   159 H74      7.3731  10.1728   2.0976   H         6 RES6   0.0000
   160 H75      6.2513   9.1865   1.4914   H         6 RES6   0.0000
   161 C68      8.0892   9.0340   0.4821   C.3       6 RES6   0.0000
   162 H76      7.5653   9.1660  -0.3474   H         6 RES6   0.0000
   163 H77      8.8567   9.6592   0.4754   H         6 RES6   0.0000
@<TRIPOS>BOND
     1     2     7    1
     2     3    61    1
     3     4    75    1
     4     5    89    1
     5     6   103    1
     6     7     8   un
     7     8    26   un
     8     9    10   un
     9    10     2    1
    10    11    52    3
    11    12    53    3
    12    13    54    3
    13    14    55    3
    14    15     7    1
    15    16    15   ar
    16    17    16    1
    17    18    16   ar
    18    19    18    1
    19    20    18   ar
    20    21    20    1
    21    22    20   ar
    22    23    22    1
    23    24    15   ar
    24    25    24    1
    25    26     9   un
    26    27    26    1
    27    28    27   ar
    28    29    28    1
    29    30    28   ar
    30    31    30    1
    31    32    30   ar
    32    33    32   ar
    33    34    33    1
    34    35    27   ar
    35    36    35    1
    36    37    32    1
    37    38    37    1
    38    39    37    1
    39    40    37    1
    40    41    10    1
    41    42    41   ar
    42    43    42    1
    43    44    42   ar
    44    45    44    1
    45    46    44   ar
    46    47    46    1
    47    48    46   ar
    48    49    48    1
    49    50    41   ar
    50    51    50    1
    51    52     2    1
    52    53     2    1
    53    54     2    1
    54    55     2    1
    55    56    11    1
    56    57    56   ar
    57    58    57    1
    58    59    57   ar
    59    60    59    1
    60    61    59   ar
    61    62    61   ar
    62    63    62    1
    63    64    56   ar
    64    65    64    1
    65    66     3    1
    66    67    66    1
    67    68    66    1
    68    69    66    1
    69    70    12    1
    70    71    70   ar
    71    72    71    1
    72    73    71   ar
    73    74    73    1
    74    75    73   ar
    75    76    75   ar
    76    77    76    1
    77    78    70   ar
    78    79    78    1
    79    80     4    1
    80    81    80    1
    81    82    80    1
    82    83    80    1
    83    84    13    1
    84    85    84   ar
    85    86    85    1
    86    87    85   ar
    87    88    87    1
    88    89    87   ar
    89    90    89   ar
    90    91    90    1
    91    92    84   ar
    92    93    92    1
    93    94     5    1
    94    95    94    1
    95    96    94    1
    96    97    94    1
    97    98    14    1
    98    99    98   ar
    99   100    99    1
   100   101    99   ar
   101   102   101    1
   102   103   101   ar
   103   104   103   ar
   104   105   104    1
   105   106    98   ar
   106   107   106    1
   107   108     6    1
   108   109   108    1
   109   110   108    1
   110   111   108    1
   111    22    24   ar
   112    33    35   ar
   113    48    50   ar
   114    62    64   ar
   115    76    78   ar
   116    90    92   ar
   117   104   106   ar
   118   112   113    1
   119   113   114    1
   120   115   113    1
   121   116   113    1
   122   117   116    1
   123   118   116    1
   124   119   116    1
   125   120   119    1
   126   121   119    1
   127   122   112    1
   128   123   122    1
   129   124   122    1
   130   119   122    1
   131   125   126    1
   132   126   127    1
   133   128   126    1
   134   129   126    1
   135   130   129    1
   136   131   129    1
   137   132   129    1
   138   133   132    1
   139   134   132    1
   140   135   125    1
   141   136   135    1
   142   137   135    1
   143   132   135    1
   144   138   139    1
   145   139   140    1
   146   141   139    1
   147   142   139    1
   148   143   142    1
   149   144   142    1
   150   145   142    1
   151   146   145    1
   152   147   145    1
   153   148   138    1
   154   149   148    1
   155   150   148    1
   156   145   148    1
   157   151   152    1
   158   152   153    1
   159   154   152    1
   160   155   152    1
   161   156   155    1
   162   157   155    1
   163   158   155    1
   164   159   158    1
   165   160   158    1
   166   161   151    1
   167   162   161    1
   168   163   161    1
   169   158   161    1
@<TRIPOS>SUBSTRUCTURE
     1 RES1        1 GROUP             0 ****  ****    0  
     2 RES2        2 GROUP             0 ****  ****    0  
     3 RES3      112 GROUP             0 ****  ****    0  
     4 RES4      125 GROUP             0 ****  ****    0  
     5 RES5      138 GROUP             0 ****  ****    0  
     6 RES6      151 GROUP             0 ****  ****    0  
@<TRIPOS>CRYSIN
   10.1421   11.1790   28.7640   87.4110   86.5370   77.4640     2     1
