@<TRIPOS>MOLECULE
HIGQEV
   110   119     2     0     0
SMALL
NO_CHARGES
****
Generated from the CSD

@<TRIPOS>ATOM
     1 Fe1      4.5863  14.5921   1.1505   Fe        1 RES1   0.0000
     2 P1       6.2971  11.9562   2.2178   P.3       1 RES1   0.0000
     3 N1       5.9882  11.6575   0.6721   N.2       1 RES1   0.0000
     4 B1       5.5641  13.6816   2.7424   B         1 RES1   0.0000
     5 H1       6.1916  14.6205   1.9774   H         1 RES1   0.0000
     6 H2       5.6978  13.9639   3.8250   H         1 RES1   0.0000
     7 H3       4.5036  13.7231   2.3123   H         1 RES1   0.0000
     8 C1       8.0952  11.8015   2.4787   C.ar      1 RES1   0.0000
     9 C2       8.6147  11.7446   3.7678   C.ar      1 RES1   0.0000
    10 H4       8.0437  11.7840   4.5263   H         1 RES1   0.0000
    11 C3      10.0143  11.6264   3.9169   C.ar      1 RES1   0.0000
    12 H5      10.3962  11.5563   4.7835   H         1 RES1   0.0000
    13 C4      10.8278  11.6176   2.8018   C.ar      1 RES1   0.0000
    14 H6      11.7695  11.5760   2.9120   H         1 RES1   0.0000
    15 C5      10.3033  11.6658   1.5559   C.ar      1 RES1   0.0000
    16 H7      10.8788  11.6242   0.8017   H         1 RES1   0.0000
    17 C6       8.9422  11.7708   1.3701   C.ar      1 RES1   0.0000
    18 H8       8.5827  11.8234   0.4927   H         1 RES1   0.0000
    19 C7       5.6685  10.6502   3.2880   C.ar      1 RES1   0.0000
    20 C8       4.5680  10.8822   4.1049   C.ar      1 RES1   0.0000
    21 H9       4.1991  11.7577   4.1578   H         1 RES1   0.0000
    22 C9       3.9928   9.8404   4.8548   C.ar      1 RES1   0.0000
    23 H10      3.2346  10.0111   5.4026   H         1 RES1   0.0000
    24 C10      4.5274   8.5841   4.7953   C.ar      1 RES1   0.0000
    25 H11      4.1263   7.8728   5.2816   H         1 RES1   0.0000
    26 C11      5.6679   8.3455   4.0152   C.ar      1 RES1   0.0000
    27 H12      6.0676   7.4832   4.0012   H         1 RES1   0.0000
    28 C12      6.2026   9.3698   3.2697   C.ar      1 RES1   0.0000
    29 H13      6.9615   9.1947   2.7262   H         1 RES1   0.0000
    30 C13      6.1247  13.1628  -1.6197   C.ar      1 RES1   0.0000
    31 C14      7.3642  13.7341  -1.3950   C.ar      1 RES1   0.0000
    32 H14      7.6414  13.9333  -0.5078   H         1 RES1   0.0000
    33 C15      8.2126  14.0252  -2.4722   C.ar      1 RES1   0.0000
    34 H15      9.0615  14.4213  -2.3166   H         1 RES1   0.0000
    35 C16      7.8119  13.7341  -3.7516   C.ar      1 RES1   0.0000
    36 H16      8.3919  13.9158  -4.4820   H         1 RES1   0.0000
    37 C17      6.5813  13.1847  -3.9774   C.ar      1 RES1   0.0000
    38 H17      6.3043  13.0053  -4.8688   H         1 RES1   0.0000
    39 C18      5.7380  12.8827  -2.9304   C.ar      1 RES1   0.0000
    40 H18      4.8925  12.4865  -3.1011   H         1 RES1   0.0000
    41 C19      3.6950  11.9109  -0.8687   C.ar      1 RES1   0.0000
    42 C20      3.5604  10.5320  -0.6775   C.ar      1 RES1   0.0000
    43 H19      4.1787  10.0746  -0.1210   H         1 RES1   0.0000
    44 C21      2.5306   9.8229  -1.2945   C.ar      1 RES1   0.0000
    45 H20      2.4406   8.8861  -1.1572   H         1 RES1   0.0000
    46 C22      1.6361  10.5101  -2.1146   C.ar      1 RES1   0.0000
    47 H21      0.9468  10.0330  -2.5630   H         1 RES1   0.0000
    48 C23      1.7462  11.8584  -2.2777   C.ar      1 RES1   0.0000
    49 H22      1.1243  12.3114  -2.8353   H         1 RES1   0.0000
    50 C24      2.7543  12.5850  -1.6424   C.ar      1 RES1   0.0000
    51 H23      2.7972  13.5305  -1.7364   H         1 RES1   0.0000
    52 C25      3.7816  16.2270  -1.8077   C.ar      1 RES1   0.0000
    53 C26      4.3982  15.8265  -3.0125   C.ar      1 RES1   0.0000
    54 H24      5.3373  15.6842  -3.0471   H         1 RES1   0.0000
    55 C27      3.6124  15.6448  -4.1546   C.ar      1 RES1   0.0000
    56 H25      4.0285  15.3756  -4.9661   H         1 RES1   0.0000
    57 C28      2.2502  15.8440  -4.1308   C.ar      1 RES1   0.0000
    58 H26      1.7274  15.6886  -4.9088   H         1 RES1   0.0000
    59 C29      1.6511  16.2796  -2.9531   C.ar      1 RES1   0.0000
    60 H27      0.7154  16.4459  -2.9369   H         1 RES1   0.0000
    61 C30      2.3970  16.4765  -1.8055   C.ar      1 RES1   0.0000
    62 H28      1.9729  16.7808  -1.0124   H         1 RES1   0.0000
    63 C31      6.2351  17.1463  -0.6570   C.ar      1 RES1   0.0000
    64 C32      7.4230  16.8048   0.0249   C.ar      1 RES1   0.0000
    65 H29      7.4225  16.0957   0.6570   H         1 RES1   0.0000
    66 C33      8.6046  17.5162  -0.2356   C.ar      1 RES1   0.0000
    67 H30      9.4086  17.2820   0.2139   H         1 RES1   0.0000
    68 C34      8.5977  18.5624  -1.1497   C.ar      1 RES1   0.0000
    69 H31      9.4006  19.0395  -1.3301   H         1 RES1   0.0000
    70 C35      7.4326  18.9147  -1.7947   C.ar      1 RES1   0.0000
    71 H32      7.4341  19.6414  -2.4074   H         1 RES1   0.0000
    72 C36      6.2513  18.2144  -1.5581   C.ar      1 RES1   0.0000
    73 H33      5.4543  18.4639  -2.0119   H         1 RES1   0.0000
    74 C37      1.9004  16.3343   2.5932   C.ar      1 RES1   0.0000
    75 C38      1.3207  17.4571   3.1951   C.ar      1 RES1   0.0000
    76 H34      1.8623  18.2078   3.4058   H         1 RES1   0.0000
    77 C39     -0.0434  17.4877   3.4901   C.ar      1 RES1   0.0000
    78 H35     -0.4298  18.2603   3.8866   H         1 RES1   0.0000
    79 C40     -0.8231  16.3912   3.2027   C.ar      1 RES1   0.0000
    80 H36     -1.7545  16.4131   3.3874   H         1 RES1   0.0000
    81 C41     -0.2637  15.2618   2.6505   C.ar      1 RES1   0.0000
    82 H37     -0.8020  14.4958   2.4938   H         1 RES1   0.0000
    83 C42      1.0914  15.2377   2.3177   C.ar      1 RES1   0.0000
    84 H38      1.4627  14.4695   1.9006   H         1 RES1   0.0000
    85 C43      4.4303  17.2229   3.4901   C.ar      1 RES1   0.0000
    86 C44      5.2098  18.3632   3.3042   C.ar      1 RES1   0.0000
    87 H39      5.3128  18.7287   2.4333   H         1 RES1   0.0000
    88 C45      5.8300  18.9585   4.3739   C.ar      1 RES1   0.0000
    89 H40      6.3539  19.7399   4.2302   H         1 RES1   0.0000
    90 C46      5.7119  18.4529   5.6554   C.ar      1 RES1   0.0000
    91 H41      6.1398  18.8863   6.3848   H         1 RES1   0.0000
    92 C47      4.9586  17.3017   5.8629   C.ar      1 RES1   0.0000
    93 H42      4.8821  16.9318   6.7349   H         1 RES1   0.0000
    94 C48      4.3173  16.6954   4.7835   C.ar      1 RES1   0.0000
    95 H43      3.7954  15.9162   4.9272   H         1 RES1   0.0000
    96 P2       5.0932  12.8223  -0.1225   P.3       1 RES1   0.0000
    97 N2       3.8286  17.3257   0.7499   N.3       1 RES1   0.0000
    98 H44      3.4812  18.1224   0.5727   H         1 RES1   0.0000
    99 P3       4.6939  16.2550  -0.2390   P.3       1 RES1   0.0000
   100 P4       3.6670  16.3249   2.1042   P.3       1 RES1   0.0000
   101 H45      3.4752  14.4717   0.3252   H         1 RES1   0.0000
   102 O1       2.7479  19.9830   0.0583   O.3       2 RES2   0.0000
   103 H46      3.0902  20.9021  -0.0864   H         2 RES2   0.0000
   104 C49      1.6681  20.1098   0.9844   C.3       2 RES2   0.0000
   105 H47      1.2995  19.2124   1.1767   H         2 RES2   0.0000
   106 H48      0.9495  20.6504   0.5705   H         2 RES2   0.0000
   107 C50      2.0854  20.7533   2.2691   C.3       2 RES2   0.0000
   108 H49      1.3584  20.6788   2.9228   H         2 RES2   0.0000
   109 H50      2.2868  21.6988   2.1113   H         2 RES2   0.0000
   110 H51      2.8840  20.3024   2.6159   H         2 RES2   0.0000
@<TRIPOS>BOND
     1     1     5    1
     2     2     3    2
     3     3    96    1
     4     4     2    1
     5     5     4    1
     6     6     4    1
     7     7     1    1
     8     8     2    1
     9     9     8   ar
    10    10     9    1
    11    11     9   ar
    12    12    11    1
    13    13    11   ar
    14    14    13    1
    15    15    13   ar
    16    16    15    1
    17    17     8   ar
    18    18    17    1
    19    19     2    1
    20    20    19   ar
    21    21    20    1
    22    22    20   ar
    23    23    22    1
    24    24    22   ar
    25    25    24    1
    26    26    24   ar
    27    27    26    1
    28    28    19   ar
    29    29    28    1
    30    30    31   ar
    31    31    32    1
    32    33    31   ar
    33    34    33    1
    34    35    33   ar
    35    36    35    1
    36    37    35   ar
    37    38    37    1
    38    39    30   ar
    39    40    39    1
    40    41    42   ar
    41    42    43    1
    42    44    42   ar
    43    45    44    1
    44    46    44   ar
    45    47    46    1
    46    48    46   ar
    47    49    48    1
    48    50    41   ar
    49    51    50    1
    50    52    53   ar
    51    53    54    1
    52    55    53   ar
    53    56    55    1
    54    57    55   ar
    55    58    57    1
    56    59    57   ar
    57    60    59    1
    58    61    52   ar
    59    62    61    1
    60    63    64   ar
    61    64    65    1
    62    66    64   ar
    63    67    66    1
    64    68    66   ar
    65    69    68    1
    66    70    68   ar
    67    71    70    1
    68    72    63   ar
    69    73    72    1
    70    74    75   ar
    71    75    76    1
    72    77    75   ar
    73    78    77    1
    74    79    77   ar
    75    80    79    1
    76    81    79   ar
    77    82    81    1
    78    83    74   ar
    79    84    83    1
    80    85    86   ar
    81    86    87    1
    82    88    86   ar
    83    89    88    1
    84    90    88   ar
    85    91    90    1
    86    92    90   ar
    87    93    92    1
    88    94    85   ar
    89    95    94    1
    90    96     1    1
    91    97    98    1
    92    99     1    1
    93   100     1    1
    94   101     1    1
    95     4     7    1
    96    15    17   ar
    97    26    28   ar
    98    30    96    1
    99    37    39   ar
   100    41    96    1
   101    48    50   ar
   102    52    99    1
   103    59    61   ar
   104    63    99    1
   105    70    72   ar
   106    74   100    1
   107    81    83   ar
   108    85   100    1
   109    92    94   ar
   110    97    99    1
   111    97   100    1
   112   102   103    1
   113   104   102    1
   114   105   104    1
   115   106   104    1
   116   107   104    1
   117   108   107    1
   118   109   107    1
   119   110   107    1
@<TRIPOS>SUBSTRUCTURE
     1 RES1        1 GROUP             0 ****  ****    0  
     2 RES2      102 GROUP             0 ****  ****    0  
@<TRIPOS>CRYSIN
    9.5776   21.8870   11.2600   90.0000  106.3400   90.0000     4     1
