@<TRIPOS>MOLECULE
HIKGEQ
   107   115     4     0     0
SMALL
USER_CHARGES
****
Generated from the CSD

@<TRIPOS>ATOM
     1 Fe1      4.2629   7.6593   5.5535   Fe        1 RES1   2.0000
     2 N1       4.1002   7.8991   7.7356   N.ar      1 RES1   0.0000
     3 N2       3.1913   5.8863   6.1468   N.2       1 RES1   0.0000
     4 N3       3.3781   4.4213   7.8232   N.pl3     1 RES1   0.0000
     5 N4       5.3843   9.5650   4.8916   N.ar      1 RES1   0.0000
     6 N5       2.7429   9.1309   5.4357   N.2       1 RES1   0.0000
     7 N6       2.4666  11.3097   5.8313   N.pl3     1 RES1   0.0000
     8 N7       4.5430   7.2815   3.3371   N.ar      1 RES1   0.0000
     9 N8       6.0250   6.4187   5.4695   N.2       1 RES1   0.0000
    10 N9       6.9571   4.8356   4.1941   N.pl3     1 RES1   0.0000
    11 C1       4.2381   9.0681   8.3628   C.ar      1 RES1   0.0000
    12 H1       4.7387   9.7570   7.9427   H         1 RES1   0.0000
    13 C2       3.6813   9.3128   9.5999   C.ar      1 RES1   0.0000
    14 H2       3.8338  10.1390  10.0477   H         1 RES1   0.0000
    15 C3       2.8996   8.3366  10.1750   C.ar      1 RES1   0.0000
    16 H3       2.4844   8.5025  11.0132   H         1 RES1   0.0000
    17 C4       2.7083   7.1039   9.5426   C.ar      1 RES1   0.0000
    18 C5       1.7584   6.1198  10.1432   C.3       1 RES1   0.0000
    19 H4       1.4985   5.4615   9.4663   H         1 RES1   0.0000
    20 H5       0.9613   6.5905  10.4636   H         1 RES1   0.0000
    21 H6       2.1923   5.6627  10.8944   H         1 RES1   0.0000
    22 C6       3.3759   6.9236   8.3386   C.ar      1 RES1   0.0000
    23 C7       3.2873   5.7251   7.4633   C.2       1 RES1   0.0000
    24 C8       3.7498   3.8650   9.1301   C.3       1 RES1   0.0000
    25 H7       4.0240   4.5906   9.7294   H         1 RES1   0.0000
    26 H8       4.4928   3.2359   9.0185   H         1 RES1   0.0000
    27 H9       2.9808   3.3959   9.5151   H         1 RES1   0.0000
    28 C9       3.3341   3.6766   6.6582   C.ar      1 RES1   0.0000
    29 C10      3.4235   2.3028   6.4424   C.ar      1 RES1   0.0000
    30 H10      3.5212   1.6847   7.1575   H         1 RES1   0.0000
    31 C11      3.3620   1.8966   5.1289   C.ar      1 RES1   0.0000
    32 H11      3.4215   0.9685   4.9315   H         1 RES1   0.0000
    33 C12      3.2139   2.8040   4.0764   C.ar      1 RES1   0.0000
    34 H12      3.1647   2.4739   3.1872   H         1 RES1   0.0000
    35 C13      3.1387   4.1663   4.2886   C.ar      1 RES1   0.0000
    36 H13      3.0400   4.7799   3.5713   H         1 RES1   0.0000
    37 C14      3.2142   4.5980   5.6178   C.ar      1 RES1   0.0000
    38 C15      6.6434   9.6205   4.3628   C.ar      1 RES1   0.0000
    39 H14      7.2574   8.9444   4.6238   H         1 RES1   0.0000
    40 C16      7.0865  10.5686   3.4928   C.ar      1 RES1   0.0000
    41 H15      7.9772  10.5737   3.1618   H         1 RES1   0.0000
    42 C17      6.1150  11.5688   3.1045   C.ar      1 RES1   0.0000
    43 H16      6.3408  12.2532   2.4849   H         1 RES1   0.0000
    44 C18      4.8507  11.5001   3.6541   C.ar      1 RES1   0.0000
    45 C19      3.7699  12.4608   3.0621   C.3       1 RES1   0.0000
    46 H17      3.6491  12.2675   2.1071   H         1 RES1   0.0000
    47 H18      4.0622  13.3899   3.1724   H         1 RES1   0.0000
    48 H19      2.9201  12.3277   3.5310   H         1 RES1   0.0000
    49 C20      4.5278  10.5370   4.5475   C.ar      1 RES1   0.0000
    50 C21      3.2683  10.3936   5.2144   C.2       1 RES1   0.0000
    51 C22      2.7521  12.7361   6.0371   C.3       1 RES1   0.0000
    52 H20      3.7038  12.9037   5.8801   H         1 RES1   0.0000
    53 H21      2.5221  12.9858   6.9559   H         1 RES1   0.0000
    54 H22      2.2184  13.2678   5.4090   H         1 RES1   0.0000
    55 C23      1.4377  10.6937   6.4933   C.ar      1 RES1   0.0000
    56 C24      0.4057  11.0785   7.2848   C.ar      1 RES1   0.0000
    57 H23      0.2512  12.0061   7.4291   H         1 RES1   0.0000
    58 C25     -0.3983  10.1844   7.8705   C.ar      1 RES1   0.0000
    59 H24     -1.0959  10.4652   8.4498   H         1 RES1   0.0000
    60 C26     -0.1938   8.8417   7.6116   C.ar      1 RES1   0.0000
    61 H25     -0.7781   8.2169   8.0254   H         1 RES1   0.0000
    62 C27      0.8210   8.3386   6.7756   C.ar      1 RES1   0.0000
    63 H26      0.9161   7.4078   6.6122   H         1 RES1   0.0000
    64 C28      1.6682   9.2578   6.2090   C.ar      1 RES1   0.0000
    65 C29      3.9548   8.0154   2.3830   C.ar      1 RES1   0.0000
    66 H27      3.0820   8.3572   2.5379   H         1 RES1   0.0000
    67 C30      4.5826   8.2909   1.1756   C.ar      1 RES1   0.0000
    68 H28      4.1290   8.7801   0.5008   H         1 RES1   0.0000
    69 C31      5.8645   7.8496   0.9698   C.ar      1 RES1   0.0000
    70 H29      6.3165   8.0733   0.1655   H         1 RES1   0.0000
    71 C32      6.5090   7.0778   1.9353   C.ar      1 RES1   0.0000
    72 C33      7.9617   6.7341   1.7570   C.3       1 RES1   0.0000
    73 H30      8.3374   6.4475   2.6143   H         1 RES1   0.0000
    74 H31      8.4468   7.5204   1.4324   H         1 RES1   0.0000
    75 H32      8.0470   6.0064   1.1034   H         1 RES1   0.0000
    76 C34      5.7812   6.7768   3.0839   C.ar      1 RES1   0.0000
    77 C35      6.2803   6.0059   4.2285   C.2       1 RES1   0.0000
    78 C36      7.1869   3.9501   3.0514   C.3       1 RES1   0.0000
    79 H33      6.7254   4.3070   2.2642   H         1 RES1   0.0000
    80 H34      6.8421   3.0562   3.2552   H         1 RES1   0.0000
    81 H35      8.1487   3.8951   2.8689   H         1 RES1   0.0000
    82 C37      7.1732   4.4616   5.5087   C.ar      1 RES1   0.0000
    83 C38      7.8115   3.3554   6.0520   C.ar      1 RES1   0.0000
    84 H36      8.2195   2.6985   5.5002   H         1 RES1   0.0000
    85 C39      7.8277   3.2527   7.4079   C.ar      1 RES1   0.0000
    86 H37      8.2483   2.5017   7.8111   H         1 RES1   0.0000
    87 C40      7.2388   4.2284   8.2185   C.ar      1 RES1   0.0000
    88 H38      7.2660   4.1195   9.1628   H         1 RES1   0.0000
    89 C41      6.6177   5.3475   7.6923   C.ar      1 RES1   0.0000
    90 H39      6.2356   6.0141   8.2503   H         1 RES1   0.0000
    91 C42      6.5788   5.4500   6.3015   C.ar      1 RES1   0.0000
    92 N10      5.5970   0.6778   2.9963   N.1       2 RES2   0.0000
    93 C43      5.7022   0.8529   1.8419   C.1       2 RES2   0.0000
    94 C44      5.8983   1.0942   0.4477   C.3       2 RES2   0.0000
    95 H40      5.8413   0.2474  -0.0424   H         2 RES2   0.0000
    96 H41      6.7817   1.4940   0.3056   H         2 RES2   0.0000
    97 H42      5.2059   1.7064   0.1210   H         2 RES2   0.0000
    98 Cl1      5.3720  13.0209   9.5078   Cl        3 RES3   0.0000
    99 O1       5.2147  12.2124  10.6735   O.2       3 RES3   0.0000
   100 O2       6.7635  13.3267   9.3152   O.3       3 RES3  -1.0000
   101 O3       4.8610  12.3205   8.3777   O.2       3 RES3   0.0000
   102 O4       4.6549  14.2543   9.6742   O.2       3 RES3   0.0000
   103 Cl2      1.8961   2.7976   0.2152   Cl        4 RES4   0.0000
   104 O5       1.5044   2.9020  -1.1607   O.3       4 RES4  -1.0000
   105 O6       3.0231   2.1007   0.2568   O.2       4 RES4   0.0000
   106 O7       2.1685   4.0533   0.8424   O.2       4 RES4   0.0000
   107 O8       0.9683   2.2003   0.9782   O.2       4 RES4   0.0000
@<TRIPOS>BOND
     1     1     2    1
     2     2    11   ar
     3     3     1    1
     4     4    23    1
     5     5     1    1
     6     6     1    1
     7     7    50    1
     8     8     1    1
     9     9     1    1
    10    10    77    1
    11    11    12    1
    12    13    11   ar
    13    14    13    1
    14    15    13   ar
    15    16    15    1
    16    17    15   ar
    17    18    17    1
    18    19    18    1
    19    20    18    1
    20    21    18    1
    21    22     2   ar
    22    23     3    2
    23    24     4    1
    24    25    24    1
    25    26    24    1
    26    27    24    1
    27    28     4    1
    28    29    28   ar
    29    30    29    1
    30    31    29   ar
    31    32    31    1
    32    33    31   ar
    33    34    33    1
    34    35    33   ar
    35    36    35    1
    36    37     3    1
    37    38     5   ar
    38    39    38    1
    39    40    38   ar
    40    41    40    1
    41    42    40   ar
    42    43    42    1
    43    44    42   ar
    44    45    44    1
    45    46    45    1
    46    47    45    1
    47    48    45    1
    48    49     5   ar
    49    50     6    2
    50    51     7    1
    51    52    51    1
    52    53    51    1
    53    54    51    1
    54    55     7    1
    55    56    55   ar
    56    57    56    1
    57    58    56   ar
    58    59    58    1
    59    60    58   ar
    60    61    60    1
    61    62    60   ar
    62    63    62    1
    63    64     6    1
    64    65     8   ar
    65    66    65    1
    66    67    65   ar
    67    68    67    1
    68    69    67   ar
    69    70    69    1
    70    71    69   ar
    71    72    71    1
    72    73    72    1
    73    74    72    1
    74    75    72    1
    75    76     8   ar
    76    77     9    2
    77    78    10    1
    78    79    78    1
    79    80    78    1
    80    81    78    1
    81    82    10    1
    82    83    82   ar
    83    84    83    1
    84    85    83   ar
    85    86    85    1
    86    87    85   ar
    87    88    87    1
    88    89    87   ar
    89    90    89    1
    90    91     9    1
    91    17    22   ar
    92    22    23    1
    93    28    37   ar
    94    35    37   ar
    95    44    49   ar
    96    49    50    1
    97    55    64   ar
    98    62    64   ar
    99    71    76   ar
   100    76    77    1
   101    82    91   ar
   102    89    91   ar
   103    92    93    3
   104    93    94    1
   105    94    95    1
   106    96    94    1
   107    97    94    1
   108    98    99    2
   109   100    98    1
   110   101    98    2
   111   102    98    2
   112   103   104    1
   113   105   103    2
   114   106   103    2
   115   107   103    2
@<TRIPOS>SUBSTRUCTURE
     1 RES1        1 GROUP             0 ****  ****    0  
     2 RES2       92 GROUP             0 ****  ****    0  
     3 RES3       98 GROUP             0 ****  ****    0  
     4 RES4      103 GROUP             0 ****  ****    0  
@<TRIPOS>CRYSIN
    7.9648   13.3150   22.1652   73.5050   89.1650   76.4630     2     1
