@<TRIPOS>MOLECULE
HISCUH01
   134   146     4     0     0
SMALL
USER_CHARGES
****
Generated from the CSD

@<TRIPOS>ATOM
     1 Fe1      6.6046   7.8318  14.0461   Fe        1 RES1   1.0000
     2 O1       8.5675   7.5728  14.9758   O.3       1 RES1   0.0000
     3 O2       4.7222   8.0935  13.1020   O.3       1 RES1   0.0000
     4 N1       6.1353   5.9273  14.5011   N.2       1 RES1   0.0000
     5 N2       7.0884   9.7394  13.6052   N.2       1 RES1   0.0000
     6 N3       5.7959   8.4544  15.7916   N.2       1 RES1   0.0000
     7 N4       7.4306   7.2129  12.3129   N.2       1 RES1   0.0000
     8 C1       5.4883   5.4816  15.6385   C.2       1 RES1   0.0000
     9 C2       8.0777   7.9983  11.3739   C.2       1 RES1   0.0000
    10 C3       6.8640  10.8627  14.3815   C.2       1 RES1   0.0000
    11 C4       8.5154   7.1750  10.2812   C.2       1 RES1   0.0000
    12 H1       8.9588   7.4654   9.5176   H         1 RES1   0.0000
    13 C5       8.1630   5.8991  10.5676   C.2       1 RES1   0.0000
    14 H2       8.3206   5.1514  10.0376   H         1 RES1   0.0000
    15 C6       7.4996   5.9163  11.8426   C.2       1 RES1   0.0000
    16 C7       6.3876   4.8013  13.7377   C.2       1 RES1   0.0000
    17 C8       4.9966   6.2771  16.6663   C.2       1 RES1   0.0000
    18 C9       4.5003   8.5038  17.6911   C.2       1 RES1   0.0000
    19 H3       3.9857   8.2165  18.4116   H         1 RES1   0.0000
    20 C10      7.8425  10.1622  12.5258   C.2       1 RES1   0.0000
    21 C11      5.1109   7.6710  16.6997   C.2       1 RES1   0.0000
    22 C12      6.1477  10.8958  15.5774   C.2       1 RES1   0.0000
    23 C13      9.0924  10.0355  10.3883   C.ar      1 RES1   0.0000
    24 C14      4.8084   9.7881  17.3857   C.2       1 RES1   0.0000
    25 H4       4.5416  10.5459  17.8553   H         1 RES1   0.0000
    26 C15      5.6248   9.7624  16.2014   C.2       1 RES1   0.0000
    27 C16      6.4106  12.5059  17.4875   C.ar      1 RES1   0.0000
    28 H5       6.9255  11.8719  17.9335   H         1 RES1   0.0000
    29 C17      4.2262   5.6161  17.7737   C.ar      1 RES1   0.0000
    30 C18      7.3584   3.4494  11.8977   C.ar      1 RES1   0.0000
    31 C19      5.9090  12.2233  16.2178   C.ar      1 RES1   0.0000
    32 C20      5.8941   3.6387  14.4206   C.2       1 RES1   0.0000
    33 H6       5.9457   2.7597  14.1210   H         1 RES1   0.0000
    34 C21      5.1615  13.1985  15.5565   C.ar      1 RES1   0.0000
    35 H7       4.8325  13.0269  14.7028   H         1 RES1   0.0000
    36 C22      8.2925   9.3683  11.4693   C.2       1 RES1   0.0000
    37 C23      8.1072  11.5677  12.6485   C.2       1 RES1   0.0000
    38 H8       8.5989  12.0890  12.0557   H         1 RES1   0.0000
    39 C24      5.3414   4.0598  15.5787   C.2       1 RES1   0.0000
    40 H9       4.9387   3.5219  16.2209   H         1 RES1   0.0000
    41 C25     10.6027  11.3168   8.4239   C.ar      1 RES1   0.0000
    42 H10     11.1056  11.7451   7.7686   H         1 RES1   0.0000
    43 C26      4.9032  14.4246  16.1621   C.ar      1 RES1   0.0000
    44 H11      4.4053  15.0690  15.7118   H         1 RES1   0.0000
    45 C27      5.3840  14.6852  17.4306   C.ar      1 RES1   0.0000
    46 H12      5.1992  15.4984  17.8408   H         1 RES1   0.0000
    47 C28      7.0340   4.7801  12.5038   C.2       1 RES1   0.0000
    48 C29      6.1476  13.7288  18.0928   C.ar      1 RES1   0.0000
    49 H13      6.4817  13.9087  18.9425   H         1 RES1   0.0000
    50 C30      7.5076  11.9945  13.7823   C.2       1 RES1   0.0000
    51 H14      7.5124  12.8642  14.1137   H         1 RES1   0.0000
    52 C31      9.2293  11.4092   8.4142   C.ar      1 RES1   0.0000
    53 H15      8.8050  11.8988   7.7468   H         1 RES1   0.0000
    54 C32      9.3830   8.6739  15.4513   C.3       1 RES1   0.0000
    55 H16      8.9092   9.1804  16.1300   H         1 RES1   0.0000
    56 H17      9.6121   9.2688  14.7210   H         1 RES1   0.0000
    57 C33      2.7383   4.4521  19.8274   C.ar      1 RES1   0.0000
    58 H18      2.2401   4.0865  20.5224   H         1 RES1   0.0000
    59 C34      8.4673  10.7723   9.3985   C.ar      1 RES1   0.0000
    60 H19      7.5404  10.8444   9.3885   H         1 RES1   0.0000
    61 C35     10.4706   9.9334  10.3839   C.ar      1 RES1   0.0000
    62 H20     10.8975   9.4260  11.0357   H         1 RES1   0.0000
    63 C36     11.2273  10.5845   9.4104   C.ar      1 RES1   0.0000
    64 H21     12.1548  10.5253   9.4267   H         1 RES1   0.0000
    65 C37      3.0973   8.7374  11.5364   C.3       1 RES1   0.0000
    66 H22      2.8376   8.4454  10.6485   H         1 RES1   0.0000
    67 H23      2.8695   9.6752  11.6393   H         1 RES1   0.0000
    68 C38      2.8657   5.4962  17.6733   C.ar      1 RES1   0.0000
    69 H24      2.4331   5.8023  16.9099   H         1 RES1   0.0000
    70 C39      6.3982   2.6381  11.3081   C.ar      1 RES1   0.0000
    71 H25      5.5070   2.9053  11.2921   H         1 RES1   0.0000
    72 C40     10.6276   6.5942  15.5198   C.3       1 RES1   0.0000
    73 H26     11.4706   6.3770  15.0918   H         1 RES1   0.0000
    74 H27     10.4745   5.9701  16.2463   H         1 RES1   0.0000
    75 C41      9.4963   6.5469  14.5261   C.3       1 RES1   0.0000
    76 H28      9.8152   6.7406  13.6301   H         1 RES1   0.0000
    77 H29      9.0733   5.6746  14.5264   H         1 RES1   0.0000
    78 C42      2.1209   4.9198  18.7027   C.ar      1 RES1   0.0000
    79 H30      1.1965   4.8549  18.6225   H         1 RES1   0.0000
    80 C43      6.7747   1.4214  10.7408   C.ar      1 RES1   0.0000
    81 H31      6.1359   0.8864  10.3267   H         1 RES1   0.0000
    82 C44      8.6760   3.0183  11.9453   C.ar      1 RES1   0.0000
    83 H32      9.3227   3.5528  12.3465   H         1 RES1   0.0000
    84 C45      8.0846   1.0064  10.7883   C.ar      1 RES1   0.0000
    85 H33      8.3290   0.1935  10.4085   H         1 RES1   0.0000
    86 C46      2.4184   7.8895  12.6091   C.3       1 RES1   0.0000
    87 H34      1.7487   8.4079  13.0829   H         1 RES1   0.0000
    88 H35      1.9917   7.1144  12.2138   H         1 RES1   0.0000
    89 C47     10.6369   8.0360  16.0369   C.3       1 RES1   0.0000
    90 H36     10.6101   8.0534  17.0063   H         1 RES1   0.0000
    91 H37     11.4322   8.5040  15.7373   H         1 RES1   0.0000
    92 C48      9.0360   1.7992  11.4001   C.ar      1 RES1   0.0000
    93 H38      9.9195   1.5120  11.4448   H         1 RES1   0.0000
    94 C49      4.8507   5.1116  18.8942   C.ar      1 RES1   0.0000
    95 H39      5.7763   5.1601  18.9716   H         1 RES1   0.0000
    96 C50      4.0963   4.5290  19.9119   C.ar      1 RES1   0.0000
    97 H40      4.5272   4.1858  20.6624   H         1 RES1   0.0000
    98 C51      4.5564   8.5135  11.7675   C.3       1 RES1   0.0000
    99 H41      4.8902   7.8345  11.1593   H         1 RES1   0.0000
   100 H42      5.0495   9.3339  11.6120   H         1 RES1   0.0000
   101 C52      3.4959   7.4822  13.5192   C.3       1 RES1   0.0000
   102 H43      3.2827   7.7551  14.4246   H         1 RES1   0.0000
   103 H44      3.5889   6.5170  13.5065   H         1 RES1   0.0000
   104 Cl1      1.9201   3.7924  13.3474   Cl        2 RES2   0.0000
   105 O3       3.0919   3.7224  12.5262   O.2       2 RES2   0.0000
   106 O4       0.9759   4.7106  12.7620   O.3       2 RES2  -1.0000
   107 O5       2.2676   4.2524  14.6662   O.2       2 RES2   0.0000
   108 O6       1.2991   2.5037  13.4628   O.2       2 RES2   0.0000
   109 O7       9.5402   4.9463   7.7603   O.3       3 RES3   0.0000
   110 C53     10.1763   3.7661   8.2122   C.3       3 RES3   0.0000
   111 H45     10.2630   3.7578   9.1795   H         3 RES3   0.0000
   112 H46     11.0525   3.6593   7.8123   H         3 RES3   0.0000
   113 C54      8.4813   4.6107   6.8669   C.3       3 RES3   0.0000
   114 H47      8.5122   5.1948   6.0924   H         3 RES3   0.0000
   115 H48      7.6287   4.7430   7.3087   H         3 RES3   0.0000
   116 C55      9.1765   2.6564   7.7159   C.3       3 RES3   0.0000
   117 H49      9.6413   1.8252   7.5341   H         3 RES3   0.0000
   118 H50      8.4824   2.4938   8.3722   H         3 RES3   0.0000
   119 C56      8.5949   3.2468   6.4414   C.3       3 RES3   0.0000
   120 H51      9.1963   3.1497   5.6869   H         3 RES3   0.0000
   121 H52      7.7314   2.8611   6.2233   H         3 RES3   0.0000
   122 C57      1.7872  11.5036  15.7173   C.3       4 RES4   0.0000
   123 H53      2.5970  11.9711  15.9736   H         4 RES4   0.0000
   124 H54      1.5307  10.8903  16.4245   H         4 RES4   0.0000
   125 O8       1.9441  10.8146  14.4391   O.3       4 RES4   0.0000
   126 C58      1.3092  11.6931  13.4810   C.3       4 RES4   0.0000
   127 H55      1.9341  11.9217  12.7756   H         4 RES4   0.0000
   128 H56      0.5448  11.2490  13.0810   H         4 RES4   0.0000
   129 C59      0.7020  12.4379  15.3918   C.3       4 RES4   0.0000
   130 H57     -0.1598  12.0010  15.4791   H         4 RES4   0.0000
   131 H58      0.7240  13.2032  15.9863   H         4 RES4   0.0000
   132 C60      0.9040  12.8220  14.1283   C.3       4 RES4   0.0000
   133 H59      1.5867  13.5088  14.0828   H         4 RES4   0.0000
   134 H60      0.0853  13.1688  13.7392   H         4 RES4   0.0000
@<TRIPOS>BOND
     1     1     2    1
     2     2    54    1
     3     3     1    1
     4     4     1    1
     5     5     1    1
     6     6     1    1
     7     7     1    1
     8     8     4    1
     9     9     7    1
    10    10     5    1
    11    11     9    1
    12    12    11    1
    13    13    11    2
    14    14    13    1
    15    15     7    1
    16    16     4    2
    17    17     8    2
    18    18    19    1
    19    20     5    2
    20    21     6    1
    21    22    10    2
    22    23    36    1
    23    24    18    1
    24    25    24    1
    25    26     6    1
    26    27    28    1
    27    29    17    1
    28    30    47    1
    29    31    22    1
    30    32    16    1
    31    33    32    1
    32    34    31   ar
    33    35    34    1
    34    36     9    2
    35    37    20    1
    36    38    37    1
    37    39     8    1
    38    40    39    1
    39    41    42    1
    40    43    34   ar
    41    44    43    1
    42    45    43   ar
    43    46    45    1
    44    47    15    2
    45    48    27   ar
    46    49    48    1
    47    50    10    1
    48    51    50    1
    49    52    41   ar
    50    53    52    1
    51    54    55    1
    52    56    54    1
    53    57    58    1
    54    59    23   ar
    55    60    59    1
    56    61    23   ar
    57    62    61    1
    58    63    41   ar
    59    64    63    1
    60    65    66    1
    61    67    65    1
    62    68    29   ar
    63    69    68    1
    64    70    30   ar
    65    71    70    1
    66    72    73    1
    67    74    72    1
    68    75     2    1
    69    76    75    1
    70    77    75    1
    71    78    57   ar
    72    79    78    1
    73    80    70   ar
    74    81    80    1
    75    82    30   ar
    76    83    82    1
    77    84    80   ar
    78    85    84    1
    79    86    65    1
    80    87    86    1
    81    88    86    1
    82    89    54    1
    83    90    89    1
    84    91    89    1
    85    92    82   ar
    86    93    92    1
    87    94    29   ar
    88    95    94    1
    89    96    57   ar
    90    97    96    1
    91    98     3    1
    92    99    98    1
    93   100    98    1
    94   101     3    1
    95   102   101    1
    96   103   101    1
    97    13    15    1
    98    16    47    1
    99    17    21    1
   100    18    21    2
   101    20    36    1
   102    22    26    1
   103    24    26    2
   104    27    31   ar
   105    32    39    2
   106    37    50    2
   107    45    48   ar
   108    52    59   ar
   109    61    63   ar
   110    65    98    1
   111    68    78   ar
   112    72    75    1
   113    72    89    1
   114    84    92   ar
   115    86   101    1
   116    94    96   ar
   117   104   105    2
   118   106   104    1
   119   107   104    2
   120   108   104    2
   121   109   110    1
   122   110   111    1
   123   112   110    1
   124   113   109    1
   125   114   113    1
   126   115   113    1
   127   116   110    1
   128   117   116    1
   129   118   116    1
   130   119   113    1
   131   120   119    1
   132   121   119    1
   133   116   119    1
   134   122   123    1
   135   124   122    1
   136   125   122    1
   137   126   125    1
   138   127   126    1
   139   128   126    1
   140   129   122    1
   141   130   129    1
   142   131   129    1
   143   132   126    1
   144   133   132    1
   145   134   132    1
   146   129   132    1
@<TRIPOS>SUBSTRUCTURE
     1 RES1        1 GROUP             0 ****  ****    0  
     2 RES2      104 GROUP             0 ****  ****    0  
     3 RES3      109 GROUP             0 ****  ****    0  
     4 RES4      122 GROUP             0 ****  ****    0  
@<TRIPOS>CRYSIN
   10.6138   13.3714   18.5626   78.5360   86.6710   83.2290     2     1
