@<TRIPOS>MOLECULE
HISYIS01
   106   112     2     0     0
SMALL
USER_CHARGES
****
Generated from the CSD

@<TRIPOS>ATOM
     1 Fe1      1.3531   1.9675  12.0772   Fe        1 RES1   2.0000
     2 N1       2.8725   3.2643  11.9685   N.2       1 RES1   0.0000
     3 N2       4.0832   2.9833  11.4045   N.2       1 RES1   0.0000
     4 N3       4.9392   3.9147  11.6847   N.2       1 RES1   0.0000
     5 N4       4.2667   4.8280  12.4407   N.pl3     1 RES1   0.0000
     6 N5       7.0762   4.8938  13.3864   N.pl3     1 RES1   0.0000
     7 N6       7.5834   5.4656  12.2716   N.2       1 RES1   0.0000
     8 N7       8.4309   4.6220  11.7632   N.2       1 RES1   0.0000
     9 N8       8.4738   3.4935  12.5434   N.2       1 RES1   0.0000
    10 N9      -3.9700   2.4657   8.1050   N.2       1 RES1   0.0000
    11 N10     -4.0338   2.4958   6.7415   N.2       1 RES1   0.0000
    12 N11     -3.0505   3.1876   6.2475   N.2       1 RES1   0.0000
    13 N12     -2.3221   3.6216   7.3055   N.pl3     1 RES1   0.0000
    14 N13      0.4559   2.9450   8.1642   N.pl3     1 RES1   0.0000
    15 N14     -0.0258   1.6701   8.2584   N.2       1 RES1   0.0000
    16 N15      0.2787   1.2472   9.4226   N.2       1 RES1   0.0000
    17 N16      0.9382   2.2131  10.1340   N.2       1 RES1   0.0000
    18 C1       3.0137   4.4176  12.5977   C.2       1 RES1   0.0000
    19 H1       2.3354   4.8756  13.0808   H         1 RES1   0.0000
    20 C2       4.9345   5.9839  13.0470   C.3       1 RES1   0.0000
    21 H2       4.2549   6.5708  13.4637   H         1 RES1   0.0000
    22 H3       5.3927   6.5032  12.3393   H         1 RES1   0.0000
    23 C3       5.9607   5.5635  14.1110   C.3       1 RES1   0.0000
    24 C4       6.4922   6.8283  14.7861   C.3       1 RES1   0.0000
    25 H4       7.1850   6.5851  15.4347   H         1 RES1   0.0000
    26 H5       5.7581   7.2849  15.2475   H         1 RES1   0.0000
    27 H6       6.8737   7.4251  14.1086   H         1 RES1   0.0000
    28 C5       5.3811   4.5849  15.1279   C.3       1 RES1   0.0000
    29 H7       5.1265   3.7544  14.6738   H         1 RES1   0.0000
    30 H8       4.5903   4.9814  15.5494   H         1 RES1   0.0000
    31 H9       6.0537   4.3897  15.8127   H         1 RES1   0.0000
    32 C6       7.6259   3.6907  13.5410   C.2       1 RES1   0.0000
    33 H10      7.4422   3.0804  14.2451   H         1 RES1   0.0000
    34 C7      -2.9009   3.1869   8.4106   C.2       1 RES1   0.0000
    35 H11     -2.5963   3.3642   9.2922   H         1 RES1   0.0000
    36 C8      -1.1564   4.4951   7.1268   C.3       1 RES1   0.0000
    37 H12     -1.0841   5.0863   7.9178   H         1 RES1   0.0000
    38 H13     -1.3144   5.0716   6.3381   H         1 RES1   0.0000
    39 C9       0.1759   3.7700   6.9396   C.3       1 RES1   0.0000
    40 C10      0.1845   2.8386   5.7306   C.3       1 RES1   0.0000
    41 H14      1.0555   2.3934   5.6678   H         1 RES1   0.0000
    42 H15      0.0250   3.3593   4.9154   H         1 RES1   0.0000
    43 H16     -0.5204   2.1658   5.8321   H         1 RES1   0.0000
    44 C11      1.2810   4.8228   6.8357   C.3       1 RES1   0.0000
    45 H17      1.2670   5.3899   7.6340   H         1 RES1   0.0000
    46 H18      1.1333   5.3740   6.0398   H         1 RES1   0.0000
    47 H19      2.1513   4.3765   6.7669   H         1 RES1   0.0000
    48 C12      1.0329   3.2477   9.3127   C.2       1 RES1   0.0000
    49 H20      1.4495   4.0766   9.5180   H         1 RES1   0.0000
    50 Fe1      9.6570   1.9675  12.0772   Fe        1 RES1   2.0000
    51 Fe1     -6.9508   1.9675  12.0772   Fe        1 RES1   2.0000
    52 N1A     -0.1663   0.6707  12.1859   N.2       1 RES1   0.0000
    53 N2A     -1.3771   0.9518  12.7499   N.2       1 RES1   0.0000
    54 N3A     -2.2330   0.0203  12.4697   N.2       1 RES1   0.0000
    55 N4A     -1.5605  -0.8930  11.7137   N.pl3     1 RES1   0.0000
    56 N5A     -4.3701  -0.9588  10.7680   N.pl3     1 RES1   0.0000
    57 N6A     -4.8772  -1.5306  11.8828   N.2       1 RES1   0.0000
    58 N7A     -5.7248  -0.6870  12.3912   N.2       1 RES1   0.0000
    59 N8A     -5.7677   0.4415  11.6110   N.2       1 RES1   0.0000
    60 N8       0.1699   3.4935  12.5434   N.3       1 RES1   0.0000
    61 N8A      2.5362   0.4415  11.6110   N.3       1 RES1   0.0000
    62 N9A      6.6761   1.4693  16.0494   N.2       1 RES1   0.0000
    63 N10A     6.7400   1.4393  17.4129   N.2       1 RES1   0.0000
    64 N11A     5.7566   0.7474  17.9069   N.2       1 RES1   0.0000
    65 N12A     5.0282   0.3135  16.8489   N.pl3     1 RES1   0.0000
    66 N13A     2.2502   0.9900  15.9902   N.pl3     1 RES1   0.0000
    67 N14A     2.7320   2.2650  15.8960   N.2       1 RES1   0.0000
    68 N15A     2.4275   2.6879  14.7318   N.2       1 RES1   0.0000
    69 N16A     1.7679   1.7219  14.0204   N.2       1 RES1   0.0000
    70 C1A     -0.3076  -0.4825  11.5567   C.2       1 RES1   0.0000
    71 H1A      0.3707  -0.9405  11.0736   H         1 RES1   0.0000
    72 C2A     -2.2284  -2.0488  11.1074   C.3       1 RES1   0.0000
    73 H2A     -1.5488  -2.6358  10.6907   H         1 RES1   0.0000
    74 H3A     -2.6865  -2.5682  11.8151   H         1 RES1   0.0000
    75 C3A     -3.2546  -1.6285  10.0434   C.3       1 RES1   0.0000
    76 C4A     -3.7861  -2.8932   9.3683   C.3       1 RES1   0.0000
    77 H4A     -4.4788  -2.6500   8.7197   H         1 RES1   0.0000
    78 H5A     -3.0520  -3.3498   8.9069   H         1 RES1   0.0000
    79 H6A     -4.1676  -3.4900  10.0458   H         1 RES1   0.0000
    80 C5A     -2.6749  -0.6499   9.0265   C.3       1 RES1   0.0000
    81 H7A     -2.4204   0.1806   9.4806   H         1 RES1   0.0000
    82 H8A     -1.8841  -1.0464   8.6050   H         1 RES1   0.0000
    83 H9A     -3.3475  -0.4546   8.3417   H         1 RES1   0.0000
    84 C6A     -4.9197   0.2444  10.6134   C.2       1 RES1   0.0000
    85 H10A    -4.7361   0.8547   9.9093   H         1 RES1   0.0000
    86 C7A      5.6070   0.7481  15.7438   C.2       1 RES1   0.0000
    87 H11A     5.3024   0.5709  14.8622   H         1 RES1   0.0000
    88 C8A      3.8625  -0.5600  17.0276   C.3       1 RES1   0.0000
    89 H12A     3.7902  -1.1512  16.2366   H         1 RES1   0.0000
    90 H13A     4.0206  -1.1366  17.8163   H         1 RES1   0.0000
    91 C9A      2.5303   0.1650  17.2148   C.3       1 RES1   0.0000
    92 C10A     2.5216   1.0964  18.4238   C.3       1 RES1   0.0000
    93 H14A     1.6507   1.5417  18.4866   H         1 RES1   0.0000
    94 H15A     2.6812   0.5757  19.2390   H         1 RES1   0.0000
    95 H16A     3.2265   1.7692  18.3223   H         1 RES1   0.0000
    96 C11A     1.4251  -0.8877  17.3187   C.3       1 RES1   0.0000
    97 H17A     1.4391  -1.4549  16.5204   H         1 RES1   0.0000
    98 H18A     1.5728  -1.4389  18.1146   H         1 RES1   0.0000
    99 H19A     0.5549  -0.4415  17.3875   H         1 RES1   0.0000
   100 C12A     1.6733   0.6873  14.8417   C.2       1 RES1   0.0000
   101 H20A     1.2566  -0.1416  14.6364   H         1 RES1   0.0000
   102 Cl1      8.9725   5.7542   2.9183   Cl        2 RES2   0.0000
   103 O1       7.9921   6.1101   3.9021   O.3       2 RES2  -1.0000
   104 O2       8.3579   4.9580   1.8804   O.2       2 RES2   0.0000
   105 O3       9.5319   6.9412   2.3345   O.2       2 RES2   0.0000
   106 O4      10.0222   4.9929   3.5459   O.2       2 RES2   0.0000
@<TRIPOS>BOND
     1     1     2    1
     2     2     3    1
     3     3     4    2
     4     4     5    1
     5     5    18    1
     6     6     7    1
     7     7     8    2
     8     8     9    1
     9     9    32    2
    10    10    11    1
    11    11    12    2
    12    12    13    1
    13    13    34    1
    14    14    15    1
    15    15    16    2
    16    16    17    1
    17    17     1    1
    18    18     2    2
    19    19    18    1
    20    20     5    1
    21    21    20    1
    22    22    20    1
    23    23     6    1
    24    24    23    1
    25    25    24    1
    26    26    24    1
    27    27    24    1
    28    28    23    1
    29    29    28    1
    30    30    28    1
    31    31    28    1
    32    32     6    1
    33    33    32    1
    34    34    10    2
    35    35    34    1
    36    36    13    1
    37    37    36    1
    38    38    36    1
    39    39    14    1
    40    40    39    1
    41    41    40    1
    42    42    40    1
    43    43    40    1
    44    44    39    1
    45    45    44    1
    46    46    44    1
    47    47    44    1
    48    48    14    1
    49    49    48    1
    50    50     9   un
    51    51    59   un
    52    52     1    1
    53    53    52    1
    54    54    53    2
    55    55    54    1
    56    56    57    1
    57    57    58    2
    58    58    59    1
    59    59    84    2
    60    60     1   un
    61    61     1   un
    62    62    63    1
    63    63    64    2
    64    64    65    1
    65    65    86    1
    66    66    67    1
    67    67    68    2
    68    68    69    1
    69    69     1    1
    70    70    52    2
    71    71    70    1
    72    72    55    1
    73    73    72    1
    74    74    72    1
    75    75    56    1
    76    76    75    1
    77    77    76    1
    78    78    76    1
    79    79    76    1
    80    80    75    1
    81    81    80    1
    82    82    80    1
    83    83    80    1
    84    84    56    1
    85    85    84    1
    86    86    62    2
    87    87    86    1
    88    88    65    1
    89    89    88    1
    90    90    88    1
    91    91    66    1
    92    92    91    1
    93    93    92    1
    94    94    92    1
    95    95    92    1
    96    96    91    1
    97    97    96    1
    98    98    96    1
    99    99    96    1
   100   100    66    1
   101   101   100    1
   102    17    48    2
   103    20    23    1
   104    36    39    1
   105    55    70    1
   106    69   100    2
   107    72    75    1
   108    88    91    1
   109   102   103    1
   110   104   102    2
   111   105   102    2
   112   106   102    2
@<TRIPOS>SUBSTRUCTURE
     1 RES1        1 GROUP             0 ****  ****    0  
     2 RES2      102 GROUP             0 ****  ****    0  
@<TRIPOS>CRYSIN
    8.3039   10.9503   12.3110   79.3800   83.6900   73.6500     2     1
