@<TRIPOS>MOLECULE
HIVGAU
   146   157     1     0     0
SMALL
NO_CHARGES
****
Generated from the CSD

@<TRIPOS>ATOM
     1 Fe1      7.8266   2.3325  14.8313   Fe        1 RES1   0.0000
     2 N1       6.8069   2.4290  13.1091   N.2       1 RES1   0.0000
     3 N2       9.5466   2.4466  13.8247   N.2       1 RES1   0.0000
     4 N3       7.8266   0.6647  14.8313   N.2       1 RES1   0.0000
     5 N4       7.8266   4.3347  14.8313   N.1       1 RES1   0.0000
     6 O1       7.8266  -0.4677  14.8313   O.2       1 RES1   0.0000
     7 O2       8.0185   4.9403  13.7824   O.2       1 RES1   0.0000
     8 C1       8.6849   2.4072  11.5140   C.2       1 RES1   0.0000
     9 C2       4.5022   2.4892  13.9713   C.2       1 RES1   0.0000
    10 C3       5.4425   2.4687  12.9521   C.2       1 RES1   0.0000
    11 C4       7.3364   2.4298  11.8377   C.2       1 RES1   0.0000
    12 C5       9.6992   2.4548  12.4565   C.2       1 RES1   0.0000
    13 C6      10.8171   2.5098  14.3423   C.2       1 RES1   0.0000
    14 C7       5.1151   2.5150  11.5524   C.2       1 RES1   0.0000
    15 H1       4.2421   2.5526  11.1796   H         1 RES1   0.0000
    16 C8       6.2775   2.4954  10.8660   C.2       1 RES1   0.0000
    17 H2       6.3772   2.5202   9.9217   H         1 RES1   0.0000
    18 C9      11.0947   2.5569  12.1201   C.2       1 RES1   0.0000
    19 H3      11.4633   2.5883  11.2451   H         1 RES1   0.0000
    20 C10     11.7805   2.5999  13.2799   C.2       1 RES1   0.0000
    21 H4      12.7226   2.6754  13.3766   H         1 RES1   0.0000
    22 C11      9.0719   2.3724  10.0655   C.ar      1 RES1   0.0000
    23 C12      9.2860   3.5606   9.3566   C.ar      1 RES1   0.0000
    24 C13      9.6292   3.5059   7.9974   C.ar      1 RES1   0.0000
    25 H5       9.7652   4.3070   7.5050   H         1 RES1   0.0000
    26 C14      9.7679   2.2797   7.3824   C.ar      1 RES1   0.0000
    27 H6       9.9896   2.2455   6.4593   H         1 RES1   0.0000
    28 C15      9.5912   1.0980   8.0799   C.ar      1 RES1   0.0000
    29 H7       9.7047   0.2606   7.6456   H         1 RES1   0.0000
    30 C16      9.2453   1.1533   9.4238   C.ar      1 RES1   0.0000
    31 H8       9.1259   0.3462   9.9107   H         1 RES1   0.0000
    32 N5       9.1472   4.7693  10.0610   N.am      1 RES1   0.0000
    33 H9       8.7586   4.7096  10.8482   H         1 RES1   0.0000
    34 C17      9.5349   6.0216   9.6862   C.2       1 RES1   0.0000
    35 O3       9.9777   6.2644   8.5826   O.2       1 RES1   0.0000
    36 C18      9.3684   7.0974  10.7582   C.3       1 RES1   0.0000
    37 C19      7.8858   7.1809  11.1555   C.3       1 RES1   0.0000
    38 H10      7.7540   7.9310  11.7721   H         1 RES1   0.0000
    39 H11      7.6181   6.3459  11.5941   H         1 RES1   0.0000
    40 H12      7.3402   7.3198  10.3534   H         1 RES1   0.0000
    41 C20     10.2344   6.7689  11.9671   C.3       1 RES1   0.0000
    42 H13     10.1597   7.4899  12.6264   H         1 RES1   0.0000
    43 H14     11.1692   6.6787  11.6851   H         1 RES1   0.0000
    44 H15      9.9314   5.9272  12.3673   H         1 RES1   0.0000
    45 C21      9.8041   8.4351  10.1590   C.3       1 RES1   0.0000
    46 H16      9.6797   9.1460  10.8229   H         1 RES1   0.0000
    47 H17      9.2634   8.6301   9.3655   H         1 RES1   0.0000
    48 H18     10.7503   8.3871   9.9053   H         1 RES1   0.0000
    49 C22      3.0447   2.4466  13.6221   C.ar      1 RES1   0.0000
    50 C23      2.3392   3.6072  13.2774   C.ar      1 RES1   0.0000
    51 C24      0.9744   3.5257  12.9833   C.ar      1 RES1   0.0000
    52 H19      0.4929   4.3057  12.7341   H         1 RES1   0.0000
    53 C25      0.3283   2.3058  13.0565   C.ar      1 RES1   0.0000
    54 H20     -0.6003   2.2554  12.8625   H         1 RES1   0.0000
    55 C26      1.0119   1.1619  13.4065   C.ar      1 RES1   0.0000
    56 H21      0.5564   0.3299  13.4597   H         1 RES1   0.0000
    57 C27      2.3704   1.2331  13.6812   C.ar      1 RES1   0.0000
    58 H22      2.8446   0.4432  13.9123   H         1 RES1   0.0000
    59 C28      2.7032   6.0188  12.7452   C.2       1 RES1   0.0000
    60 N6       3.0502   4.8242  13.2916   N.am      1 RES1   0.0000
    61 H23      3.8234   4.8081  13.7112   H         1 RES1   0.0000
    62 C29      3.7017   7.1605  12.9192   C.3       1 RES1   0.0000
    63 O4       1.6631   6.1829  12.1330   O.2       1 RES1   0.0000
    64 C30      4.8739   6.8572  13.8400   C.3       1 RES1   0.0000
    65 H24      5.4330   7.6562  13.9315   H         1 RES1   0.0000
    66 H25      5.4070   6.1272  13.4609   H         1 RES1   0.0000
    67 H26      4.5359   6.5908  14.7206   H         1 RES1   0.0000
    68 C31      2.9285   8.3585  13.4735   C.3       1 RES1   0.0000
    69 H27      3.4929   9.1572  13.4391   H         1 RES1   0.0000
    70 H28      2.6720   8.1796  14.4022   H         1 RES1   0.0000
    71 H29      2.1218   8.5049  12.9349   H         1 RES1   0.0000
    72 C32      4.2104   7.5181  11.5265   C.3       1 RES1   0.0000
    73 H30      4.8329   8.2731  11.5902   H         1 RES1   0.0000
    74 H31      3.4542   7.7665  10.9554   H         1 RES1   0.0000
    75 H32      4.6725   6.7459  11.1393   H         1 RES1   0.0000
    76 C6F      4.8361   2.5098  15.3203   C.2       1 RES1   0.0000
    77 N2F      6.1065   2.4466  15.8378   N.2       1 RES1   0.0000
    78 N1F      8.8462   2.4290  16.5535   N.2       1 RES1   0.0000
    79 C3F     10.2107   2.4687  16.7105   C.2       1 RES1   0.0000
    80 C2F     11.1509   2.4892  15.6913   C.2       1 RES1   0.0000
    81 O2F      7.6346   4.9403  15.8802   O.2       1 RES1   0.0000
    82 C22F    12.6084   2.4466  16.0405   C.ar      1 RES1   0.0000
    83 C23F    13.3139   3.6072  16.3852   C.ar      1 RES1   0.0000
    84 C24F    14.6788   3.5257  16.6793   C.ar      1 RES1   0.0000
    85 H19F    15.1602   4.3057  16.9284   H         1 RES1   0.0000
    86 C25F    15.3248   2.3058  16.6061   C.ar      1 RES1   0.0000
    87 H20F    16.2534   2.2554  16.8001   H         1 RES1   0.0000
    88 C26F    14.6412   1.1619  16.2561   C.ar      1 RES1   0.0000
    89 H21F    15.0968   0.3299  16.2029   H         1 RES1   0.0000
    90 C27F    13.2828   1.2331  15.9814   C.ar      1 RES1   0.0000
    91 H22F    12.8085   0.4432  15.7502   H         1 RES1   0.0000
    92 N6F     12.6030   4.8242  16.3710   N.am      1 RES1   0.0000
    93 C28F    12.9500   6.0188  16.9174   C.2       1 RES1   0.0000
    94 C29F    11.9514   7.1605  16.7433   C.3       1 RES1   0.0000
    95 C30F    10.7792   6.8572  15.8226   C.3       1 RES1   0.0000
    96 H24F    10.2202   7.6562  15.7311   H         1 RES1   0.0000
    97 H25F    10.2461   6.1272  16.2017   H         1 RES1   0.0000
    98 H26F    11.1173   6.5908  14.9420   H         1 RES1   0.0000
    99 C31F    12.7247   8.3585  16.1891   C.3       1 RES1   0.0000
   100 H27F    12.1602   9.1572  16.2235   H         1 RES1   0.0000
   101 H28F    12.9811   8.1796  15.2604   H         1 RES1   0.0000
   102 H29F    13.5314   8.5049  16.7277   H         1 RES1   0.0000
   103 C32F    11.4428   7.5181  18.1361   C.3       1 RES1   0.0000
   104 H30F    10.8203   8.2731  18.0724   H         1 RES1   0.0000
   105 H31F    12.1989   7.7665  18.7072   H         1 RES1   0.0000
   106 H32F    10.9806   6.7459  18.5233   H         1 RES1   0.0000
   107 O4F     13.9900   6.1829  17.5296   O.2       1 RES1   0.0000
   108 H23F    11.8298   4.8081  15.9514   H         1 RES1   0.0000
   109 C7F     10.5380   2.5150  18.1102   C.2       1 RES1   0.0000
   110 H1F     11.4111   2.5526  18.4830   H         1 RES1   0.0000
   111 C8F      9.3756   2.4954  18.7966   C.2       1 RES1   0.0000
   112 C4F      8.3167   2.4298  17.8248   C.2       1 RES1   0.0000
   113 C1F      6.9682   2.4072  18.1486   C.2       1 RES1   0.0000
   114 C5F      5.9539   2.4548  17.2061   C.2       1 RES1   0.0000
   115 C9F      4.5585   2.5569  17.5425   C.2       1 RES1   0.0000
   116 H3F      4.1898   2.5883  18.4175   H         1 RES1   0.0000
   117 C10F     3.8726   2.5999  16.3826   C.2       1 RES1   0.0000
   118 H4F      2.9306   2.6754  16.2859   H         1 RES1   0.0000
   119 C11F     6.5813   2.3724  19.5971   C.ar      1 RES1   0.0000
   120 C12F     6.3672   3.5606  20.3060   C.ar      1 RES1   0.0000
   121 C13F     6.0239   3.5059  21.6652   C.ar      1 RES1   0.0000
   122 H5F      5.8879   4.3070  22.1576   H         1 RES1   0.0000
   123 C14F     5.8852   2.2797  22.2802   C.ar      1 RES1   0.0000
   124 H6F      5.6636   2.2455  23.2033   H         1 RES1   0.0000
   125 C15F     6.0620   1.0980  21.5827   C.ar      1 RES1   0.0000
   126 H7F      5.9485   0.2606  22.0170   H         1 RES1   0.0000
   127 C16F     6.4079   1.1533  20.2388   C.ar      1 RES1   0.0000
   128 H8F      6.5273   0.3462  19.7519   H         1 RES1   0.0000
   129 N5F      6.5059   4.7693  19.6016   N.am      1 RES1   0.0000
   130 H9F      6.8946   4.7096  18.8144   H         1 RES1   0.0000
   131 C17F     6.1183   6.0216  19.9764   C.2       1 RES1   0.0000
   132 O3F      5.6755   6.2644  21.0800   O.2       1 RES1   0.0000
   133 C18F     6.2848   7.0974  18.9044   C.3       1 RES1   0.0000
   134 C19F     7.7673   7.1809  18.5071   C.3       1 RES1   0.0000
   135 H10F     7.8991   7.9310  17.8905   H         1 RES1   0.0000
   136 H11F     8.0351   6.3459  18.0685   H         1 RES1   0.0000
   137 H12F     8.3129   7.3198  19.3092   H         1 RES1   0.0000
   138 C20F     5.4188   6.7689  17.6955   C.3       1 RES1   0.0000
   139 H13F     5.4935   7.4899  17.0362   H         1 RES1   0.0000
   140 H14F     4.4839   6.6787  17.9775   H         1 RES1   0.0000
   141 H15F     5.7217   5.9272  17.2953   H         1 RES1   0.0000
   142 C21F     5.8491   8.4351  19.5035   C.3       1 RES1   0.0000
   143 H16F     5.9734   9.1460  18.8397   H         1 RES1   0.0000
   144 H17F     6.3898   8.6301  20.2971   H         1 RES1   0.0000
   145 H18F     4.9029   8.3871  19.7573   H         1 RES1   0.0000
   146 H2F      9.2759   2.5202  19.7408   H         1 RES1   0.0000
@<TRIPOS>BOND
     1     1     2    1
     2     2    10    1
     3     3     1    1
     4     4     1    1
     5     5     1    1
     6     6     4    2
     7     7     5    2
     8     8    11    2
     9     9    10    2
    10    10    14    1
    11    11     2    1
    12    12     3    2
    13    13     3    1
    14    14    15    1
    15    16    11    1
    16    17    16    1
    17    18    12    1
    18    19    18    1
    19    20    13    1
    20    21    20    1
    21    22     8    1
    22    23    22   ar
    23    24    23   ar
    24    25    24    1
    25    26    24   ar
    26    27    26    1
    27    28    26   ar
    28    29    28    1
    29    30    22   ar
    30    31    30    1
    31    32    23    1
    32    33    32    1
    33    34    32   am
    34    35    34    2
    35    36    34    1
    36    37    36    1
    37    38    37    1
    38    39    37    1
    39    40    37    1
    40    41    36    1
    41    42    41    1
    42    43    41    1
    43    44    41    1
    44    45    36    1
    45    46    45    1
    46    47    45    1
    47    48    45    1
    48    49     9    1
    49    50    49   ar
    50    51    50   ar
    51    52    51    1
    52    53    51   ar
    53    54    53    1
    54    55    53   ar
    55    56    55    1
    56    57    49   ar
    57    58    57    1
    58    59    60   am
    59    60    50    1
    60    61    60    1
    61    62    59    1
    62    63    59    2
    63    64    62    1
    64    65    64    1
    65    66    64    1
    66    67    64    1
    67    68    62    1
    68    69    68    1
    69    70    68    1
    70    71    68    1
    71    72    62    1
    72    73    72    1
    73    74    72    1
    74    75    72    1
    75    76     9    1
    76    77     1    1
    77    78     1    1
    78    79    78    1
    79    80    13    2
    80    81     5    2
    81    82    80    1
    82    83    82   ar
    83    84    83   ar
    84    85    84    1
    85    86    84   ar
    86    87    86    1
    87    88    86   ar
    88    89    88    1
    89    90    82   ar
    90    91    90    1
    91    92    83    1
    92    93    92   am
    93    94    93    1
    94    95    94    1
    95    96    95    1
    96    97    95    1
    97    98    95    1
    98    99    94    1
    99   100    99    1
   100   101    99    1
   101   102    99    1
   102   103    94    1
   103   104   103    1
   104   105   103    1
   105   106   103    1
   106   107    93    2
   107   108    92    1
   108   109    79    2
   109   110   109    1
   110   111   109    1
   111   112    78    1
   112   113   112    1
   113   114    77    1
   114   115   114    1
   115   116   115    1
   116   117    76    1
   117   118   117    1
   118   119   113    1
   119   120   119   ar
   120   121   120   ar
   121   122   121    1
   122   123   121   ar
   123   124   123    1
   124   125   123   ar
   125   126   125    1
   126   127   119   ar
   127   128   127    1
   128   129   120    1
   129   130   129    1
   130   131   129   am
   131   132   131    2
   132   133   131    1
   133   134   133    1
   134   135   134    1
   135   136   134    1
   136   137   134    1
   137   138   133    1
   138   139   138    1
   139   140   138    1
   140   141   138    1
   141   142   133    1
   142   143   142    1
   143   144   142    1
   144   145   142    1
   145   146   111    1
   146     8    12    1
   147    14    16    2
   148    18    20    2
   149    28    30   ar
   150    55    57   ar
   151    76    77    2
   152    79    80    1
   153    88    90   ar
   154   111   112    2
   155   113   114    2
   156   115   117    2
   157   125   127   ar
@<TRIPOS>SUBSTRUCTURE
     1 RES1        1 GROUP             0 ****  ****    0  
@<TRIPOS>CRYSIN
   16.1559   18.6920   19.7779   90.0000   90.9710   90.0000    15     1
