@<TRIPOS>MOLECULE
HIVMIL
   152   155     6     0     0
SMALL
USER_CHARGES
****
Generated from the CSD

@<TRIPOS>ATOM
     1 Fe1      1.3604  -3.3045  14.1548   Fe        1 RES1   2.0000
     2 C1       0.0618  -1.5384  16.1861   C.ar      1 RES1   0.0000
     3 H1       0.1649  -0.8338  15.5587   H         1 RES1   0.0000
     4 N1       0.5072  -2.7579  15.8538   N.ar      1 RES1   0.0000
     5 N2       1.3241  -5.0500  15.0646   N.ar      1 RES1   0.0000
     6 C2      -0.5333  -1.2605  17.3831   C.ar      1 RES1   0.0000
     7 H2      -0.8212  -0.3734  17.5654   H         1 RES1   0.0000
     8 N3      -0.3579  -3.7779  13.2861   N.ar      1 RES1   0.0000
     9 C3      -0.7284  -2.2607  18.3460   C.ar      1 RES1   0.0000
    10 N4       2.0840  -3.9693  12.4610   N.ar      1 RES1   0.0000
    11 C4      -0.2797  -3.5188  18.0061   C.ar      1 RES1   0.0000
    12 H3      -0.3892  -4.2374  18.6183   H         1 RES1   0.0000
    13 N5       3.1394  -2.8049  14.8305   N.ar      1 RES1   0.0000
    14 C5       0.3345  -3.7470  16.7751   C.ar      1 RES1   0.0000
    15 N6       1.4058  -1.4761  13.4673   N.ar      1 RES1   0.0000
    16 C6       0.8149  -5.0510  16.3277   C.ar      1 RES1   0.0000
    17 C7       1.5719  -7.4276  15.2383   C.ar      1 RES1   0.0000
    18 H4       1.8146  -8.2415  14.8137   H         1 RES1   0.0000
    19 C8       1.1095  -7.4278  16.5618   C.ar      1 RES1   0.0000
    20 C9       0.7091  -6.2198  17.0961   C.ar      1 RES1   0.0000
    21 H5       0.3627  -6.1810  17.9808   H         1 RES1   0.0000
    22 C10      1.6699  -6.2189  14.5586   C.ar      1 RES1   0.0000
    23 H6       2.0077  -6.2356  13.6702   H         1 RES1   0.0000
    24 C11     -1.3697  -1.9929  19.7261   C.3       1 RES1   0.0000
    25 C12     -1.8334  -0.5506  19.8677   C.3       1 RES1   0.0000
    26 H7      -2.4685  -0.3400  19.1514   H         1 RES1   0.0000
    27 H8      -1.0606   0.0484  19.8055   H         1 RES1   0.0000
    28 H9      -2.2703  -0.4316  20.7368   H         1 RES1   0.0000
    29 C13     -2.5754  -2.9384  19.9357   C.3       1 RES1   0.0000
    30 H10     -3.3253  -2.6396  19.3803   H         1 RES1   0.0000
    31 H11     -2.8407  -2.9262  20.8783   H         1 RES1   0.0000
    32 H12     -2.3226  -3.8505  19.6790   H         1 RES1   0.0000
    33 C14     -0.2784  -2.2840  20.8118   C.3       1 RES1   0.0000
    34 H13     -0.0343  -3.2325  20.7824   H         1 RES1   0.0000
    35 H14     -0.6332  -2.0648  21.6983   H         1 RES1   0.0000
    36 H15      0.5142  -1.7367  20.6320   H         1 RES1   0.0000
    37 C15      1.0111  -8.7039  17.4039   C.3       1 RES1   0.0000
    38 C16      1.9744  -8.5511  18.6103   C.3       1 RES1   0.0000
    39 H16      2.8856  -8.3967  18.2825   H         1 RES1   0.0000
    40 H17      1.9550  -9.3685  19.1488   H         1 RES1   0.0000
    41 H18      1.6920  -7.7900  19.1590   H         1 RES1   0.0000
    42 C17     -0.4119  -8.8942  17.9099   C.3       1 RES1   0.0000
    43 H19     -1.0331  -8.8759  17.1523   H         1 RES1   0.0000
    44 H20     -0.6358  -8.1735  18.5343   H         1 RES1   0.0000
    45 H21     -0.4817  -9.7577  18.3687   H         1 RES1   0.0000
    46 C18      1.4274  -9.9261  16.6128   C.3       1 RES1   0.0000
    47 H22      0.8230 -10.0440  15.8509   H         1 RES1   0.0000
    48 H23      1.3833 -10.7181  17.1899   H         1 RES1   0.0000
    49 H24      2.3444  -9.8097  16.2887   H         1 RES1   0.0000
    50 C19     -1.5813  -3.6705  13.8015   C.ar      1 RES1   0.0000
    51 H25     -1.6691  -3.2830  14.6642   H         1 RES1   0.0000
    52 C20     -2.7279  -4.0901  13.1577   C.ar      1 RES1   0.0000
    53 H26     -3.5773  -3.9778  13.5682   H         1 RES1   0.0000
    54 C21     -2.6232  -4.6841  11.8889   C.ar      1 RES1   0.0000
    55 C22     -1.3232  -4.8005  11.3527   C.ar      1 RES1   0.0000
    56 H27     -1.2012  -5.1853  10.4937   H         1 RES1   0.0000
    57 C23     -0.2319  -4.3619  12.0607   C.ar      1 RES1   0.0000
    58 C24      1.1607  -4.4781  11.5831   C.ar      1 RES1   0.0000
    59 C25      1.5314  -5.0702  10.3936   C.ar      1 RES1   0.0000
    60 H28      0.8625  -5.4480   9.8353   H         1 RES1   0.0000
    61 C26      2.8813  -5.1275   9.9877   C.ar      1 RES1   0.0000
    62 C27      3.8087  -4.5523  10.8769   C.ar      1 RES1   0.0000
    63 H29      4.7312  -4.5346  10.6533   H         1 RES1   0.0000
    64 C28      3.3818  -4.0183  12.0702   C.ar      1 RES1   0.0000
    65 H30      4.0379  -3.6596  12.6562   H         1 RES1   0.0000
    66 C29     -3.8575  -5.1627  11.1073   C.3       1 RES1   0.0000
    67 C30     -5.1286  -5.0972  11.9626   C.3       1 RES1   0.0000
    68 H31     -5.3348  -4.1618  12.1683   H         1 RES1   0.0000
    69 H32     -4.9875  -5.5923  12.7958   H         1 RES1   0.0000
    70 H33     -5.8750  -5.4953  11.4677   H         1 RES1   0.0000
    71 C31     -3.6306  -6.6160  10.6844   C.3       1 RES1   0.0000
    72 H34     -4.4071  -6.9335  10.1778   H         1 RES1   0.0000
    73 H35     -3.5106  -7.1734  11.4816   H         1 RES1   0.0000
    74 H36     -2.8292  -6.6720  10.1232   H         1 RES1   0.0000
    75 C32     -4.0013  -4.2755   9.8536   C.3       1 RES1   0.0000
    76 H37     -3.2565  -4.4511   9.2404   H         1 RES1   0.0000
    77 H38     -3.9898  -3.3314  10.1177   H         1 RES1   0.0000
    78 H39     -4.8482  -4.4782   9.4042   H         1 RES1   0.0000
    79 C33      3.2977  -5.7769   8.6849   C.3       1 RES1   0.0000
    80 C34      2.7735  -7.2341   8.6887   C.3       1 RES1   0.0000
    81 H40      3.0181  -7.6724   7.8474   H         1 RES1   0.0000
    82 H41      1.7975  -7.2306   8.7833   H         1 RES1   0.0000
    83 H42      3.1712  -7.7236   9.4396   H         1 RES1   0.0000
    84 C35      2.6545  -5.0328   7.5106   C.3       1 RES1   0.0000
    85 H43      2.9720  -5.4180   6.6665   H         1 RES1   0.0000
    86 H44      2.9015  -4.0851   7.5494   H         1 RES1   0.0000
    87 H45      1.6801  -5.1190   7.5624   H         1 RES1   0.0000
    88 C36      4.8091  -5.7684   8.4773   C.3       1 RES1   0.0000
    89 H46      5.0256  -6.2233   7.6371   H         1 RES1   0.0000
    90 H47      5.2439  -6.2338   9.2224   H         1 RES1   0.0000
    91 H48      5.1279  -4.8427   8.4399   H         1 RES1   0.0000
    92 C37      4.0198  -3.6031  15.4592   C.ar      1 RES1   0.0000
    93 H49      3.7552  -4.4913  15.6672   H         1 RES1   0.0000
    94 C38      5.3159  -3.1897  15.8255   C.ar      1 RES1   0.0000
    95 H50      5.9001  -3.7893  16.2750   H         1 RES1   0.0000
    96 C39      5.7318  -1.9060  15.5272   C.ar      1 RES1   0.0000
    97 C40      4.7995  -1.0763  14.8833   C.ar      1 RES1   0.0000
    98 H51      5.0421  -0.1815  14.6789   H         1 RES1   0.0000
    99 C41      3.5359  -1.5261  14.5397   C.ar      1 RES1   0.0000
   100 C42      2.5131  -0.7480  13.8355   C.ar      1 RES1   0.0000
   101 C43      2.6267   0.6055  13.5825   C.ar      1 RES1   0.0000
   102 H52      3.3968   1.0806  13.8707   H         1 RES1   0.0000
   103 C44      1.6024   1.2718  12.9028   C.ar      1 RES1   0.0000
   104 C45      0.5028   0.4944  12.4818   C.ar      1 RES1   0.0000
   105 H53     -0.2053   0.9016  11.9984   H         1 RES1   0.0000
   106 C46      0.4482  -0.8485  12.7687   C.ar      1 RES1   0.0000
   107 H54     -0.2957  -1.3519  12.4582   H         1 RES1   0.0000
   108 C47      7.1261  -1.3869  15.8953   C.3       1 RES1   0.0000
   109 C48      8.0137  -2.5337  16.5297   C.3       1 RES1   0.0000
   110 H55      8.0326  -3.3047  15.9244   H         1 RES1   0.0000
   111 H56      7.6314  -2.8047  17.3907   H         1 RES1   0.0000
   112 H57      8.9257  -2.2036  16.6665   H         1 RES1   0.0000
   113 C49      7.8702  -0.8437  14.6889   C.3       1 RES1   0.0000
   114 H58      7.9530  -1.5473  14.0127   H         1 RES1   0.0000
   115 H59      8.7621  -0.5456  14.9628   H         1 RES1   0.0000
   116 H60      7.3734  -0.0864  14.3136   H         1 RES1   0.0000
   117 C50      6.9792  -0.3526  16.9923   C.3       1 RES1   0.0000
   118 H61      6.5384   0.4449  16.6309   H         1 RES1   0.0000
   119 H62      7.8649  -0.1106  17.3329   H         1 RES1   0.0000
   120 H63      6.4382  -0.7234  17.7200   H         1 RES1   0.0000
   121 C51      1.6486   2.7675  12.6139   C.3       1 RES1   0.0000
   122 C52      1.7578   2.9451  11.1092   C.3       1 RES1   0.0000
   123 H64      2.5974   2.5508  10.7925   H         1 RES1   0.0000
   124 H65      1.7440   3.9010  10.8906   H         1 RES1   0.0000
   125 H66      1.0025   2.4999  10.6710   H         1 RES1   0.0000
   126 C53      2.8956   3.4089  13.2408   C.3       1 RES1   0.0000
   127 H67      3.6993   2.9696  12.8922   H         1 RES1   0.0000
   128 H68      2.8619   3.3039  14.2143   H         1 RES1   0.0000
   129 H69      2.9207   4.3622  13.0154   H         1 RES1   0.0000
   130 C54      0.4139   3.4164  13.2030   C.3       1 RES1   0.0000
   131 H70      0.4425   4.3819  13.0403   H         1 RES1   0.0000
   132 H71      0.3871   3.2487  14.1690   H         1 RES1   0.0000
   133 H72     -0.3864   3.0372  12.7840   H         1 RES1   0.0000
   134 O1      10.0080  -1.3118  11.0620   O.2       2 RES2   0.0000
   135 O2       9.5629   0.6805  10.3766   O.2       2 RES2   0.0000
   136 O3       9.8382   0.2925  12.4931   O.3       2 RES2  -1.0000
   137 N7       9.8116  -0.1274  11.3017   N.pl3     2 RES2   0.0000
   138 O4       2.1498   5.6669  15.5687   O.3       3 RES3  -1.0000
   139 O5       2.5866   5.9061  17.6701   O.2       3 RES3   0.0000
   140 O6       0.5435   5.5491  17.0753   O.2       3 RES3   0.0000
   141 N8       1.7489   5.7110  16.7638   N.pl3     3 RES3   0.0000
   142 C55      8.5523   3.6058  11.9475   C.3       4 RES4   0.0000
   143 H73      9.5008   3.7851  11.7823   H         4 RES4   0.0000
   144 H74      8.1083   4.4322  12.2332   H         4 RES4   0.0000
   145 H75      8.1328   3.2785  11.1244   H         4 RES4   0.0000
   146 O7       8.4220   2.6027  12.9896   O.3       4 RES4   0.0000
   147 C56      5.7596   5.7373  16.2087   C.3       5 RES5   0.0000
   148 H76      5.3989   6.6307  16.3867   H         5 RES5   0.0000
   149 H77      6.6826   5.8159  15.8875   H         5 RES5   0.0000
   150 H78      5.7451   5.2085  17.0335   H         5 RES5   0.0000
   151 O8       4.8956   5.0358  15.1288   O.3       5 RES5   0.0000
   152 O9       5.9466   2.3052  14.3358   O.3       6 RES6   0.0000
@<TRIPOS>BOND
     1     1     4    1
     2     2     3    1
     3     4     2   ar
     4     5     1    1
     5     6     2   ar
     6     7     6    1
     7     8     1    1
     8     9     6   ar
     9    10     1    1
    10    11     9   ar
    11    12    11    1
    12    13     1    1
    13    14     4   ar
    14    15     1    1
    15    16     5   ar
    16    17    18    1
    17    19    17   ar
    18    20    16   ar
    19    21    20    1
    20    22     5   ar
    21    23    22    1
    22    24     9    1
    23    25    24    1
    24    26    25    1
    25    27    25    1
    26    28    25    1
    27    29    24    1
    28    30    29    1
    29    31    29    1
    30    32    29    1
    31    33    24    1
    32    34    33    1
    33    35    33    1
    34    36    33    1
    35    37    19    1
    36    38    37    1
    37    39    38    1
    38    40    38    1
    39    41    38    1
    40    42    37    1
    41    43    42    1
    42    44    42    1
    43    45    42    1
    44    46    37    1
    45    47    46    1
    46    48    46    1
    47    49    46    1
    48    50     8   ar
    49    51    50    1
    50    52    50   ar
    51    53    52    1
    52    54    52   ar
    53    55    54   ar
    54    56    55    1
    55    57     8   ar
    56    58    10   ar
    57    59    58   ar
    58    60    59    1
    59    61    59   ar
    60    62    61   ar
    61    63    62    1
    62    64    10   ar
    63    65    64    1
    64    66    54    1
    65    67    66    1
    66    68    67    1
    67    69    67    1
    68    70    67    1
    69    71    66    1
    70    72    71    1
    71    73    71    1
    72    74    71    1
    73    75    66    1
    74    76    75    1
    75    77    75    1
    76    78    75    1
    77    79    61    1
    78    80    79    1
    79    81    80    1
    80    82    80    1
    81    83    80    1
    82    84    79    1
    83    85    84    1
    84    86    84    1
    85    87    84    1
    86    88    79    1
    87    89    88    1
    88    90    88    1
    89    91    88    1
    90    92    13   ar
    91    93    92    1
    92    94    92   ar
    93    95    94    1
    94    96    94   ar
    95    97    96   ar
    96    98    97    1
    97    99    13   ar
    98   100    15   ar
    99   101   100   ar
   100   102   101    1
   101   103   101   ar
   102   104   103   ar
   103   105   104    1
   104   106    15   ar
   105   107   106    1
   106   108    96    1
   107   109   108    1
   108   110   109    1
   109   111   109    1
   110   112   109    1
   111   113   108    1
   112   114   113    1
   113   115   113    1
   114   116   113    1
   115   117   108    1
   116   118   117    1
   117   119   117    1
   118   120   117    1
   119   121   103    1
   120   122   121    1
   121   123   122    1
   122   124   122    1
   123   125   122    1
   124   126   121    1
   125   127   126    1
   126   128   126    1
   127   129   126    1
   128   130   121    1
   129   131   130    1
   130   132   130    1
   131   133   130    1
   132    11    14   ar
   133    14    16    1
   134    17    22   ar
   135    19    20   ar
   136    55    57   ar
   137    57    58    1
   138    62    64   ar
   139    97    99   ar
   140    99   100    1
   141   104   106   ar
   142   134   137    2
   143   135   137    2
   144   136   137    1
   145   138   141    1
   146   139   141    2
   147   140   141    2
   148   142   143    1
   149   144   142    1
   150   145   142    1
   151   146   142    1
   152   147   148    1
   153   149   147    1
   154   150   147    1
   155   151   147    1
@<TRIPOS>SUBSTRUCTURE
     1 RES1        1 GROUP             0 ****  ****    0  
     2 RES2      134 GROUP             0 ****  ****    0  
     3 RES3      138 GROUP             0 ****  ****    0  
     4 RES4      142 GROUP             0 ****  ****    0  
     5 RES5      147 GROUP             0 ****  ****    0  
     6 RES6      152 GROUP             0 ****  ****    0  
@<TRIPOS>CRYSIN
   12.5090   12.6860   20.1900  103.6100  100.4010  107.7480     2     1
