@<TRIPOS>MOLECULE
HOBKAN
   166   172     8     0     0
SMALL
USER_CHARGES
****
Generated from the CSD

@<TRIPOS>ATOM
     1 Fe1      2.8461  10.2053  16.2707   Fe        1 RES1   0.0000
     2 O1       1.4556  11.3874  15.5983   O.3       1 RES1   0.0000
     3 O2       1.4214   9.0263  16.8436   O.3       1 RES1   0.0000
     4 O3       0.9181  14.1703  18.3294   O.3       1 RES1   0.0000
     5 O4       0.4197   6.2388  13.8548   O.3       1 RES1   0.0000
     6 N1       4.1621   8.7868  16.3801   N.ar      1 RES1   0.0000
     7 N2       2.7910   9.6456  14.5067   N.2       1 RES1   0.0000
     8 N3       1.8613  10.2340  13.6577   N.2       1 RES1   0.0000
     9 N4       4.1678  11.6470  16.2675   N.ar      1 RES1   0.0000
    10 N5       2.7347  10.6830  18.0630   N.2       1 RES1   0.0000
    11 N6       1.7768  10.0723  18.8643   N.2       1 RES1   0.0000
    12 N7       4.2437  16.8485  16.3411   N.pl3     1 RES1   0.0000
    13 H1       4.6103  17.1747  15.6112   H         1 RES1   0.0000
    14 N8      -2.2604  11.6171  20.6858   N.pl3     1 RES1   1.0000
    15 H2      -2.8872  10.9981  20.6490   H         1 RES1   0.0000
    16 N9      -3.2204   8.5665  11.9510   N.pl3     1 RES1   0.0000
    17 H3      -3.7564   9.2580  12.0420   H         1 RES1   0.0000
    18 N10      3.9919   3.5805  15.4596   N.pl3     1 RES1   1.0000
    19 H4       4.4488   3.2793  16.1484   H         1 RES1   0.0000
    20 C1       4.8686   8.3740  17.4695   C.ar      1 RES1   0.0000
    21 H5       4.7571   8.8314  18.2969   H         1 RES1   0.0000
    22 C2       5.7582   7.2893  17.3937   C.ar      1 RES1   0.0000
    23 H6       6.2450   7.0188  18.1626   H         1 RES1   0.0000
    24 C3       5.9230   6.6173  16.2025   C.ar      1 RES1   0.0000
    25 H7       6.5135   5.8755  16.1440   H         1 RES1   0.0000
    26 C4       5.2235   7.0355  15.0979   C.ar      1 RES1   0.0000
    27 H8       5.3476   6.6089  14.2598   H         1 RES1   0.0000
    28 C5       4.3253   8.0952  15.2236   C.ar      1 RES1   0.0000
    29 C6       3.5149   8.6139  14.1407   C.2       1 RES1   0.0000
    30 H9       3.5108   8.2513  13.2613   H         1 RES1   0.0000
    31 C7       1.1995  11.1459  14.3984   C.2       1 RES1   0.0000
    32 C8       0.0601  11.8625  13.7616   C.ar      1 RES1   0.0000
    33 C9      -0.4172  11.5391  12.5185   C.ar      1 RES1   0.0000
    34 H10     -0.0149  10.8252  12.0355   H         1 RES1   0.0000
    35 C10     -1.4728  12.2306  11.9553   C.ar      1 RES1   0.0000
    36 H11     -1.7762  12.0020  11.0847   H         1 RES1   0.0000
    37 C11     -2.0893  13.2512  12.6506   C.ar      1 RES1   0.0000
    38 H12     -2.8168  13.7253  12.2607   H         1 RES1   0.0000
    39 C12     -1.6394  13.5859  13.9197   C.ar      1 RES1   0.0000
    40 H13     -2.0668  14.2858  14.4006   H         1 RES1   0.0000
    41 C13     -0.5622  12.9027  14.5045   C.ar      1 RES1   0.0000
    42 C14     -0.0720  13.3488  15.8430   C.2       1 RES1   0.0000
    43 C15     -0.6706  12.8971  17.0234   C.2       1 RES1   0.0000
    44 C16     -1.7811  11.9908  17.1013   C.2       1 RES1   0.0000
    45 H14     -2.1674  11.6757  16.2935   H         1 RES1   0.0000
    46 C17     -2.3040  11.5642  18.2860   C.2       1 RES1   0.0000
    47 C18     -1.7344  12.0243  19.5249   C.2       1 RES1   0.0000
    48 C19     -0.6477  12.9110  19.4816   C.2       1 RES1   0.0000
    49 H15     -0.2615  13.2289  20.2894   H         1 RES1   0.0000
    50 C20     -0.1449  13.3182  18.2687   C.2       1 RES1   0.0000
    51 C21      1.4616  14.6567  17.1793   C.ar      1 RES1   0.0000
    52 C22      2.5393  15.5072  17.3417   C.ar      1 RES1   0.0000
    53 H16      2.8443  15.7386  18.2102   H         1 RES1   0.0000
    54 C23      3.1770  16.0231  16.2025   C.ar      1 RES1   0.0000
    55 C24      2.6964  15.6745  14.8987   C.ar      1 RES1   0.0000
    56 C25      1.6439  14.8240  14.8034   C.ar      1 RES1   0.0000
    57 H17      1.3445  14.5814  13.9349   H         1 RES1   0.0000
    58 C26      0.9673  14.2746  15.9188   C.ar      1 RES1   0.0000
    59 C27     -3.4787  10.6216  18.3250   C.3       1 RES1   0.0000
    60 H18     -3.1842   9.7460  18.6542   H         1 RES1   0.0000
    61 H19     -3.8494  10.5212  17.4240   H         1 RES1   0.0000
    62 H20     -4.1671  10.9813  18.9250   H         1 RES1   0.0000
    63 C28      3.3366  16.2712  13.6793   C.3       1 RES1   0.0000
    64 H21      3.2739  17.2500  13.7227   H         1 RES1   0.0000
    65 H22      2.8742  15.9506  12.8780   H         1 RES1   0.0000
    66 H23      4.2781  16.0063  13.6425   H         1 RES1   0.0000
    67 C29     -1.8900  12.1024  21.9896   C.3       1 RES1   0.0000
    68 H24     -0.9028  12.1553  22.0459   H         1 RES1   0.0000
    69 H25     -2.2001  11.4582  22.6740   H         1 RES1   0.0000
    70 C30     -2.4712  13.4464  22.2798   C.3       1 RES1   0.0000
    71 H26     -2.0608  14.1157  21.6929   H         1 RES1   0.0000
    72 H27     -2.2969  13.6835  23.2155   H         1 RES1   0.0000
    73 H28     -3.4392  13.4269  22.1239   H         1 RES1   0.0000
    74 C31      4.8186  17.2333  17.6233   C.3       1 RES1   0.0000
    75 H29      5.1969  16.4330  18.0673   H         1 RES1   0.0000
    76 H30      4.1070  17.5986  18.2081   H         1 RES1   0.0000
    77 C32      5.8932  18.2567  17.4435   C.3       1 RES1   0.0000
    78 H31      6.5804  17.9053  16.8393   H         1 RES1   0.0000
    79 H32      6.2962  18.4631  18.3120   H         1 RES1   0.0000
    80 H33      5.5055  19.0710  17.0623   H         1 RES1   0.0000
    81 C33      4.8394  12.1498  15.2149   C.ar      1 RES1   0.0000
    82 H34      4.6897  11.7872  14.3486   H         1 RES1   0.0000
    83 C34      5.7522  13.1927  15.3687   C.ar      1 RES1   0.0000
    84 H35      6.2106  13.5357  14.6085   H         1 RES1   0.0000
    85 C35      5.9898  13.7225  16.5902   C.ar      1 RES1   0.0000
    86 H36      6.6150  14.4308  16.6942   H         1 RES1   0.0000
    87 C36      5.2994  13.2122  17.7121   C.ar      1 RES1   0.0000
    88 H37      5.4530  13.5636  18.5806   H         1 RES1   0.0000
    89 C37      4.3783  12.1693  17.5042   C.ar      1 RES1   0.0000
    90 C38      3.5325  11.6004  18.5264   C.2       1 RES1   0.0000
    91 H38      3.5567  11.8653  19.4383   H         1 RES1   0.0000
    92 C39      1.1418   9.2162  18.0586   C.2       1 RES1   0.0000
    93 C40     -0.0210   8.4689  18.6174   C.ar      1 RES1   0.0000
    94 C41     -0.4992   8.7393  19.8952   C.ar      1 RES1   0.0000
    95 H39     -0.0804   9.4086  20.4215   H         1 RES1   0.0000
    96 C42     -1.5838   8.0366  20.4107   C.ar      1 RES1   0.0000
    97 H40     -1.8953   8.2235  21.2879   H         1 RES1   0.0000
    98 C43     -2.2034   7.0774  19.6527   C.ar      1 RES1   0.0000
    99 H41     -2.9308   6.5838  20.0144   H         1 RES1   0.0000
   100 C44     -1.7651   6.8236  18.3510   C.ar      1 RES1   0.0000
   101 H42     -2.2174   6.1739  17.8247   H         1 RES1   0.0000
   102 C45     -0.6672   7.5096  17.8074   C.ar      1 RES1   0.0000
   103 C46     -0.2310   7.1443  16.4213   C.2       1 RES1   0.0000
   104 C47     -0.9335   7.6044  15.3102   C.ar      1 RES1   0.0000
   105 C48     -2.0016   8.5553  15.3643   C.ar      1 RES1   0.0000
   106 H43     -2.2209   8.9513  16.2004   H         1 RES1   0.0000
   107 C49     -2.7178   8.9178  14.2598   C.ar      1 RES1   0.0000
   108 C50     -2.4306   8.2932  13.0036   C.ar      1 RES1   0.0000
   109 C51     -1.3323   7.4176  12.8975   C.ar      1 RES1   0.0000
   110 H44     -1.0892   7.0523  12.0550   H         1 RES1   0.0000
   111 C52     -0.6247   7.0997  14.0150   C.ar      1 RES1   0.0000
   112 C53      1.1363   5.7918  14.9485   C.2       1 RES1   0.0000
   113 C54      2.1815   4.9330  14.6540   C.2       1 RES1   0.0000
   114 H45      2.3824   4.6987  13.7551   H         1 RES1   0.0000
   115 C55      2.9320   4.4227  15.7130   C.2       1 RES1   0.0000
   116 C56      2.5930   4.7796  17.0602   C.2       1 RES1   0.0000
   117 C57      1.5597   5.6468  17.3049   C.2       1 RES1   0.0000
   118 H46      1.3526   5.8839  18.2016   H         1 RES1   0.0000
   119 C58      0.7919   6.1990  16.2437   C.2       1 RES1   0.0000
   120 C59     -3.8126   9.9440  14.3464   C.3       1 RES1   0.0000
   121 H47     -3.9832  10.1615  15.2864   H         1 RES1   0.0000
   122 H48     -4.6293   9.5871  13.9392   H         1 RES1   0.0000
   123 H49     -3.5376  10.7555  13.8699   H         1 RES1   0.0000
   124 C60      3.3756   4.2135  18.2276   C.3       1 RES1   0.0000
   125 H50      4.2675   4.6206  18.2492   H         1 RES1   0.0000
   126 H51      3.4632   3.2431  18.1214   H         1 RES1   0.0000
   127 H52      2.9047   4.4115  19.0636   H         1 RES1   0.0000
   128 C61     -3.3049   7.8219  10.6104   C.3       1 RES1   0.0000
   129 H53     -2.6798   7.0523  10.6169   H         1 RES1   0.0000
   130 H54     -3.0415   8.4270   9.8740   H         1 RES1   0.0000
   131 C62     -4.8300   7.2865  10.3635   C.3       1 RES1   0.0000
   132 H55     -4.8551   6.7344   9.5534   H         1 RES1   0.0000
   133 H56     -5.4320   8.0534  10.2552   H         1 RES1   0.0000
   134 H57     -5.1179   6.7511  11.1323   H         1 RES1   0.0000
   135 C63      4.4080   3.1539  14.1342   C.3       1 RES1   0.0000
   136 H58      4.6820   3.9430  13.6014   H         1 RES1   0.0000
   137 H59      3.6503   2.7188  13.6707   H         1 RES1   0.0000
   138 C64      5.5542   2.1946  14.2381   C.3       1 RES1   0.0000
   139 H60      5.7720   1.8460  13.3480   H         1 RES1   0.0000
   140 H61      5.3058   1.4528  14.8272   H         1 RES1   0.0000
   141 H62      6.3353   2.6575  14.6085   H         1 RES1   0.0000
   142 Cl1      8.1551   3.7660  10.9848   Cl        2 RES2   0.0000
   143 O5       9.4279   4.0601  11.3749   O.2       2 RES2   0.0000
   144 O6       7.8756   4.4227   9.7527   O.3       2 RES2  -1.0000
   145 O7       7.2215   4.2721  11.8990   O.2       2 RES2   0.0000
   146 O8       8.1038   2.4818  10.7100   O.2       2 RES2   0.0000
   147 Cl2     -3.6997  16.9394  13.8730   Cl        3 RES3   0.0000
   148 O9      -4.6987  17.8496  14.1601   O.2       3 RES3   0.0000
   149 O10     -2.8462  17.2138  12.8325   O.2       3 RES3   0.0000
   150 O11     -4.3384  15.7331  13.4238   O.2       3 RES3   0.0000
   151 O12     -2.9254  16.6087  15.0979   O.3       3 RES3  -1.0000
   152 O13      5.6135  10.5352  11.5005   O.3       4 RES4   0.0000
   153 H63      4.8977  10.1922  11.1973   H         4 RES4   0.0000
   154 C65      5.9056  11.7705  10.9006   C.3       4 RES4   0.0000
   155 H64      5.6352  12.4955  11.5027   H         4 RES4   0.0000
   156 H65      5.4158  11.8486  10.0559   H         4 RES4   0.0000
   157 H66      6.8675  11.8319  10.7273   H         4 RES4   0.0000
   158 O14      2.9354  10.1113  11.1128   O.3       5 RES5   0.0000
   159 H67      2.6335  10.1894  11.9034   H         5 RES5   0.0000
   160 C66      2.2191   9.0545  10.4804   C.3       5 RES5   0.0000
   161 H68      1.5980   9.4309   9.8220   H         5 RES5   0.0000
   162 H69      1.7168   8.5525  11.1540   H         5 RES5   0.0000
   163 H70      2.8496   8.4577  10.0299   H         5 RES5   0.0000
   164 O15      4.2086   2.8276  11.0435   O.3       6 RES6   0.0000
   165 O16      3.9136   5.6691  11.7301   O.3       7 RES7   0.0000
   166 O17      3.2008  13.3544  11.9748   O.3       8 RES8   0.0000
@<TRIPOS>BOND
     1     1     2    1
     2     2    31    1
     3     3     1    1
     4     4    50    1
     5     5   111    1
     6     6     1    1
     7     7     1    1
     8     8     7    1
     9     9     1    1
    10    10     1    1
    11    11    10    1
    12    12    13    1
    13    14    15    1
    14    16    17    1
    15    18    19    1
    16    20     6   ar
    17    21    20    1
    18    22    20   ar
    19    23    22    1
    20    24    22   ar
    21    25    24    1
    22    26    24   ar
    23    27    26    1
    24    28     6   ar
    25    29     7    2
    26    30    29    1
    27    31     8    2
    28    32    31    1
    29    33    32   ar
    30    34    33    1
    31    35    33   ar
    32    36    35    1
    33    37    35   ar
    34    38    37    1
    35    39    37   ar
    36    40    39    1
    37    41    32   ar
    38    42    41    1
    39    43    42    2
    40    44    43    1
    41    45    44    1
    42    46    44    2
    43    47    14    2
    44    48    47    1
    45    49    48    1
    46    50    43    1
    47    51     4    1
    48    52    51   ar
    49    53    52    1
    50    54    12    1
    51    55    54   ar
    52    56    55   ar
    53    57    56    1
    54    58    42    1
    55    59    46    1
    56    60    59    1
    57    61    59    1
    58    62    59    1
    59    63    55    1
    60    64    63    1
    61    65    63    1
    62    66    63    1
    63    67    14    1
    64    68    67    1
    65    69    67    1
    66    70    67    1
    67    71    70    1
    68    72    70    1
    69    73    70    1
    70    74    12    1
    71    75    74    1
    72    76    74    1
    73    77    74    1
    74    78    77    1
    75    79    77    1
    76    80    77    1
    77    81     9   ar
    78    82    81    1
    79    83    81   ar
    80    84    83    1
    81    85    83   ar
    82    86    85    1
    83    87    85   ar
    84    88    87    1
    85    89     9   ar
    86    90    10    2
    87    91    90    1
    88    92     3    1
    89    93    92    1
    90    94    93   ar
    91    95    94    1
    92    96    94   ar
    93    97    96    1
    94    98    96   ar
    95    99    98    1
    96   100    98   ar
    97   101   100    1
    98   102    93   ar
    99   103   102    1
   100   104   103    1
   101   105   104   ar
   102   106   105    1
   103   107   105   ar
   104   108    16    1
   105   109   108   ar
   106   110   109    1
   107   111   104   ar
   108   112     5    1
   109   113   112    2
   110   114   113    1
   111   115    18    2
   112   116   115    1
   113   117   116    2
   114   118   117    1
   115   119   103    2
   116   120   107    1
   117   121   120    1
   118   122   120    1
   119   123   120    1
   120   124   116    1
   121   125   124    1
   122   126   124    1
   123   127   124    1
   124   128    16    1
   125   129   128    1
   126   130   128    1
   127   131   128    1
   128   132   131    1
   129   133   131    1
   130   134   131    1
   131   135    18    1
   132   136   135    1
   133   137   135    1
   134   138   135    1
   135   139   138    1
   136   140   138    1
   137   141   138    1
   138    11    92    2
   139    26    28   ar
   140    28    29    1
   141    39    41   ar
   142    46    47    1
   143    48    50    2
   144    51    58   ar
   145    52    54   ar
   146    56    58   ar
   147    87    89   ar
   148    89    90    1
   149   100   102   ar
   150   107   108   ar
   151   109   111   ar
   152   112   119    1
   153   113   115    1
   154   117   119    1
   155   142   143    2
   156   144   142    1
   157   145   142    2
   158   146   142    2
   159   147   148    2
   160   149   147    2
   161   150   147    2
   162   151   147    1
   163   152   153    1
   164   154   152    1
   165   155   154    1
   166   156   154    1
   167   157   154    1
   168   158   159    1
   169   160   158    1
   170   161   160    1
   171   162   160    1
   172   163   160    1
@<TRIPOS>SUBSTRUCTURE
     1 RES1        1 GROUP             0 ****  ****    0  
     2 RES2      142 GROUP             0 ****  ****    0  
     3 RES3      147 GROUP             0 ****  ****    0  
     4 RES4      152 GROUP             0 ****  ****    0  
     5 RES5      158 GROUP             0 ****  ****    0  
     6 RES6      164 GROUP             0 ****  ****    0  
     7 RES7      165 GROUP             0 ****  ****    0  
     8 RES8      166 GROUP             0 ****  ****    0  
@<TRIPOS>CRYSIN
   11.1308   27.8856   22.2650   90.0000  103.4070   90.0000    14     1
