@<TRIPOS>MOLECULE
HOJSAC
   153   164     1     0     0
SMALL
NO_CHARGES
****
Generated from the CSD

@<TRIPOS>ATOM
     1 Fe1      6.4292   6.4292   0.0000   Fe        1 RES1   0.0000
     2 S1       8.9200   8.0826  -4.8697   S.o2      1 RES1   0.0000
     3 S2       4.0322   8.6994   1.1201   S.o2      1 RES1   0.0000
     4 O1       4.9853   4.9853   0.0000   O.3       1 RES1   0.0000
     5 N1       7.9261   7.9261   0.0000   N.ar      1 RES1   0.0000
     6 O2       4.8791   7.9117   0.2293   O.3       1 RES1   0.0000
     7 O3       8.9827   9.3013  -5.6147   O.2       1 RES1   0.0000
     8 O4       2.6417   8.6905   0.7733   O.2       1 RES1   0.0000
     9 F1       3.9476  11.2948   1.4769   F         1 RES1   0.0000
    10 F2       4.3486  10.6933  -0.5519   F         1 RES1   0.0000
    11 C1       4.3705   6.3696  -4.0754   C.ar      1 RES1   0.0000
    12 H1       5.1526   6.0862  -4.4909   H         1 RES1   0.0000
    13 O5      10.1141   7.4999  -4.3178   O.2       1 RES1   0.0000
    14 C2       1.9947   6.2071  -3.8042   C.ar      1 RES1   0.0000
    15 H2       1.1830   5.8061  -4.0187   H         1 RES1   0.0000
    16 C3       4.5825  10.4018   0.7167   C.3       1 RES1   0.0000
    17 N2       6.6893   6.9606  -2.1731   N.3       1 RES1   0.0000
    18 H3       6.6080   6.2038  -2.6704   H         1 RES1   0.0000
    19 F3       5.8896  10.5394   0.9454   F         1 RES1   0.0000
    20 C4       2.0331   7.2231  -2.8855   C.ar      1 RES1   0.0000
    21 H4       1.2445   7.5229  -2.4973   H         1 RES1   0.0000
    22 C5       3.2414   7.8085  -2.5314   C.ar      1 RES1   0.0000
    23 H5       3.2590   8.4895  -1.8992   H         1 RES1   0.0000
    24 C6       6.5168   8.6982  -3.8750   C.3       1 RES1   0.0000
    25 H6       6.2686   8.2742  -4.7218   H         1 RES1   0.0000
    26 O6       4.3617   8.5214   2.5067   O.2       1 RES1   0.0000
    27 N3       7.9403   8.3808  -3.5749   N.3       1 RES1   0.0000
    28 C7       8.4873   8.2995  -1.1547   C.ar      1 RES1   0.0000
    29 C8       8.0798   6.8859  -5.8749   C.ar      1 RES1   0.0000
    30 C9       7.2582   4.6704  -6.2270   C.ar      1 RES1   0.0000
    31 H7       7.1868   3.7873  -5.9442   H         1 RES1   0.0000
    32 C10      5.7501   7.9942  -2.7129   C.3       1 RES1   0.0000
    33 H8       5.5788   8.6554  -2.0094   H         1 RES1   0.0000
    34 C11      4.4287   7.3780  -3.1232   C.ar      1 RES1   0.0000
    35 C12      6.2071  10.1778  -3.9553   C.ar      1 RES1   0.0000
    36 C13      8.0293   7.5196  -2.3798   C.3       1 RES1   0.0000
    37 H9       8.6609   6.7903  -2.5550   H         1 RES1   0.0000
    38 C14      6.6168   5.0581  -7.4200   C.ar      1 RES1   0.0000
    39 C15      3.1601   5.7765  -4.4143   C.ar      1 RES1   0.0000
    40 H10      3.1337   5.0955  -5.0470   H         1 RES1   0.0000
    41 C16      7.9887   5.5579  -5.4662   C.ar      1 RES1   0.0000
    42 H11      8.4148   5.2734  -4.6903   H         1 RES1   0.0000
    43 C17      3.2161   3.6082   0.7119   C.3       1 RES1   0.0000
    44 H12      2.2539   3.6028   0.8289   H         1 RES1   0.0000
    45 H13      3.6236   3.0184   1.3693   H         1 RES1   0.0000
    46 C18      7.4559   7.3164  -7.0317   C.ar      1 RES1   0.0000
    47 H14      7.5087   8.2072  -7.2925   H         1 RES1   0.0000
    48 C19      6.7453   6.3927  -7.7982   C.ar      1 RES1   0.0000
    49 H15      6.3455   6.6761  -8.5884   H         1 RES1   0.0000
    50 C20      5.4843  12.8634  -4.0754   C.ar      1 RES1   0.0000
    51 H16      5.2405  13.7597  -4.1184   H         1 RES1   0.0000
    52 C21      6.5135  12.4592  -3.2858   C.ar      1 RES1   0.0000
    53 H17      6.9847  13.0874  -2.7858   H         1 RES1   0.0000
    54 C22      5.7809   4.0322  -8.2285   C.3       1 RES1   0.0000
    55 C23      4.4848   3.7488  -7.4698   C.3       1 RES1   0.0000
    56 H18      4.6935   3.4534  -6.5790   H         1 RES1   0.0000
    57 H19      3.9894   3.0656  -7.9273   H         1 RES1   0.0000
    58 H20      3.9586   4.5507  -7.4237   H         1 RES1   0.0000
    59 C24      9.4836   9.2606  -1.1999   C.ar      1 RES1   0.0000
    60 H21      9.8878   9.4968  -2.0041   H         1 RES1   0.0000
    61 C25      5.4041   4.5946  -9.6014   C.3       1 RES1   0.0000
    62 H22      4.8824   5.3931  -9.4907   H         1 RES1   0.0000
    63 H23      4.8901   3.9433 -10.0836   H         1 RES1   0.0000
    64 H24      6.2016   4.8011 -10.0941   H         1 RES1   0.0000
    65 C26      5.1910  10.5930  -4.7727   C.ar      1 RES1   0.0000
    66 H25      4.7473   9.9779  -5.3094   H         1 RES1   0.0000
    67 C27      3.7818   5.0142   0.8027   C.3       1 RES1   0.0000
    68 H26      3.1502   5.6623   0.4512   H         1 RES1   0.0000
    69 H27      3.9872   5.2438   1.7208   H         1 RES1   0.0000
    70 C28      4.8231  11.9286  -4.7978   C.ar      1 RES1   0.0000
    71 H28      4.1025  12.1900  -5.3251   H         1 RES1   0.0000
    72 C29      6.8672  11.1257  -3.2160   C.ar      1 RES1   0.0000
    73 H29      7.5647  10.8665  -2.6599   H         1 RES1   0.0000
    74 C30      9.8592   9.8592   0.0000   C.ar      1 RES1   0.0000
    75 H30     10.5161  10.5161   0.0000   H         1 RES1   0.0000
    76 C31      6.5882   2.7449  -8.4257   C.3       1 RES1   0.0000
    77 H31      7.4384   2.9569  -8.8192   H         1 RES1   0.0000
    78 H32      6.1071   2.1507  -9.0081   H         1 RES1   0.0000
    79 H33      6.7255   2.3198  -7.5758   H         1 RES1   0.0000
    80 S1F      8.0826   8.9200   4.8697   S.o2      1 RES1   0.0000
    81 O3F      9.3013   8.9827   5.6147   O.2       1 RES1   0.0000
    82 C1F      6.3696   4.3705   4.0754   C.ar      1 RES1   0.0000
    83 H1F      6.0862   5.1526   4.4909   H         1 RES1   0.0000
    84 O5F      7.4999  10.1141   4.3178   O.2       1 RES1   0.0000
    85 C2F      6.2071   1.9947   3.8042   C.ar      1 RES1   0.0000
    86 H2F      5.8061   1.1830   4.0187   H         1 RES1   0.0000
    87 N2F      6.9606   6.6893   2.1731   N.3       1 RES1   0.0000
    88 H3F      6.2038   6.6080   2.6704   H         1 RES1   0.0000
    89 C4F      7.2231   2.0331   2.8855   C.ar      1 RES1   0.0000
    90 H4F      7.5229   1.2445   2.4973   H         1 RES1   0.0000
    91 C5F      7.8085   3.2414   2.5314   C.ar      1 RES1   0.0000
    92 H5F      8.4895   3.2590   1.8992   H         1 RES1   0.0000
    93 C6F      8.6982   6.5168   3.8750   C.3       1 RES1   0.0000
    94 H6F      8.2742   6.2686   4.7218   H         1 RES1   0.0000
    95 N3F      8.3808   7.9403   3.5749   N.3       1 RES1   0.0000
    96 C7F      8.2995   8.4873   1.1547   C.ar      1 RES1   0.0000
    97 C8F      6.8859   8.0798   5.8749   C.ar      1 RES1   0.0000
    98 C9F      4.6704   7.2582   6.2270   C.ar      1 RES1   0.0000
    99 H7F      3.7873   7.1868   5.9442   H         1 RES1   0.0000
   100 C10F     7.9942   5.7501   2.7129   C.3       1 RES1   0.0000
   101 H8F      8.6554   5.5788   2.0094   H         1 RES1   0.0000
   102 C11F     7.3780   4.4287   3.1232   C.ar      1 RES1   0.0000
   103 C12F    10.1778   6.2071   3.9553   C.ar      1 RES1   0.0000
   104 C13F     7.5196   8.0293   2.3798   C.3       1 RES1   0.0000
   105 H9F      6.7903   8.6609   2.5550   H         1 RES1   0.0000
   106 C14F     5.0581   6.6168   7.4200   C.ar      1 RES1   0.0000
   107 C15F     5.7765   3.1601   4.4143   C.ar      1 RES1   0.0000
   108 H10F     5.0955   3.1337   5.0470   H         1 RES1   0.0000
   109 C16F     5.5579   7.9887   5.4662   C.ar      1 RES1   0.0000
   110 H11F     5.2734   8.4148   4.6903   H         1 RES1   0.0000
   111 C18F     7.3164   7.4559   7.0317   C.ar      1 RES1   0.0000
   112 H14F     8.2072   7.5087   7.2925   H         1 RES1   0.0000
   113 C19F     6.3927   6.7453   7.7982   C.ar      1 RES1   0.0000
   114 H15F     6.6761   6.3455   8.5884   H         1 RES1   0.0000
   115 C20F    12.8634   5.4843   4.0754   C.ar      1 RES1   0.0000
   116 H16F    13.7597   5.2405   4.1184   H         1 RES1   0.0000
   117 C21F    12.4592   6.5135   3.2858   C.ar      1 RES1   0.0000
   118 H17F    13.0874   6.9847   2.7858   H         1 RES1   0.0000
   119 C22F     4.0322   5.7809   8.2285   C.3       1 RES1   0.0000
   120 C23F     3.7488   4.4848   7.4698   C.3       1 RES1   0.0000
   121 H18F     3.4534   4.6935   6.5790   H         1 RES1   0.0000
   122 H19F     3.0656   3.9894   7.9273   H         1 RES1   0.0000
   123 H20F     4.5507   3.9586   7.4237   H         1 RES1   0.0000
   124 C24F     9.2606   9.4836   1.1999   C.ar      1 RES1   0.0000
   125 H21F     9.4968   9.8878   2.0041   H         1 RES1   0.0000
   126 C25F     4.5946   5.4041   9.6014   C.3       1 RES1   0.0000
   127 H22F     5.3931   4.8824   9.4907   H         1 RES1   0.0000
   128 H23F     3.9433   4.8901  10.0836   H         1 RES1   0.0000
   129 H24F     4.8011   6.2016  10.0941   H         1 RES1   0.0000
   130 C26F    10.5930   5.1910   4.7727   C.ar      1 RES1   0.0000
   131 H25F     9.9779   4.7473   5.3094   H         1 RES1   0.0000
   132 C28F    11.9286   4.8231   4.7978   C.ar      1 RES1   0.0000
   133 H28F    12.1900   4.1025   5.3251   H         1 RES1   0.0000
   134 C29F    11.1257   6.8672   3.2160   C.ar      1 RES1   0.0000
   135 H29F    10.8665   7.5647   2.6599   H         1 RES1   0.0000
   136 C31F     2.7449   6.5882   8.4257   C.3       1 RES1   0.0000
   137 H31F     2.9569   7.4384   8.8192   H         1 RES1   0.0000
   138 H32F     2.1507   6.1071   9.0081   H         1 RES1   0.0000
   139 H33F     2.3198   6.7255   7.5758   H         1 RES1   0.0000
   140 C17F     3.6082   3.2161  -0.7119   C.3       1 RES1   0.0000
   141 H12F     3.6028   2.2539  -0.8289   H         1 RES1   0.0000
   142 H13F     3.0184   3.6236  -1.3693   H         1 RES1   0.0000
   143 C27F     5.0142   3.7818  -0.8027   C.3       1 RES1   0.0000
   144 H26F     5.6623   3.1502  -0.4512   H         1 RES1   0.0000
   145 H27F     5.2438   3.9872  -1.7208   H         1 RES1   0.0000
   146 S2F      8.6994   4.0322  -1.1201   S.o2      1 RES1   0.0000
   147 O2F      7.9117   4.8791  -0.2293   O.3       1 RES1   0.0000
   148 O4F      8.6905   2.6417  -0.7733   O.2       1 RES1   0.0000
   149 F1F     11.2948   3.9476  -1.4769   F         1 RES1   0.0000
   150 F2F     10.6933   4.3486   0.5519   F         1 RES1   0.0000
   151 C3F     10.4018   4.5825  -0.7167   C.3       1 RES1   0.0000
   152 F3F     10.5394   5.8896  -0.9454   F         1 RES1   0.0000
   153 O6F      8.5214   4.3617  -2.5067   O.2       1 RES1   0.0000
@<TRIPOS>BOND
     1     1     4    1
     2     2     7    2
     3     3     6    1
     4     4    67    1
     5     5     1    1
     6     6     1    1
     7     8     3    2
     8     9    16    1
     9    10    16    1
    10    11    12    1
    11    13     2    2
    12    14    15    1
    13    16     3    1
    14    17     1    1
    15    18    17    1
    16    19    16    1
    17    20    14   ar
    18    21    20    1
    19    22    20   ar
    20    23    22    1
    21    24    25    1
    22    26     3    2
    23    27     2    1
    24    28     5   ar
    25    29     2    1
    26    30    31    1
    27    32    17    1
    28    33    32    1
    29    34    11   ar
    30    35    24    1
    31    36    17    1
    32    37    36    1
    33    38    30   ar
    34    39    11   ar
    35    40    39    1
    36    41    29   ar
    37    42    41    1
    38    43    44    1
    39    45    43    1
    40    46    29   ar
    41    47    46    1
    42    48    38   ar
    43    49    48    1
    44    50    51    1
    45    52    50   ar
    46    53    52    1
    47    54    38    1
    48    55    54    1
    49    56    55    1
    50    57    55    1
    51    58    55    1
    52    59    28   ar
    53    60    59    1
    54    61    54    1
    55    62    61    1
    56    63    61    1
    57    64    61    1
    58    65    35   ar
    59    66    65    1
    60    67    43    1
    61    68    67    1
    62    69    67    1
    63    70    50   ar
    64    71    70    1
    65    72    35   ar
    66    73    72    1
    67    74    59   ar
    68    75    74    1
    69    76    54    1
    70    77    76    1
    71    78    76    1
    72    79    76    1
    73    80    81    2
    74    82    83    1
    75    84    80    2
    76    85    86    1
    77    87     1    1
    78    88    87    1
    79    89    85   ar
    80    90    89    1
    81    91    89   ar
    82    92    91    1
    83    93    94    1
    84    95    80    1
    85    96     5   ar
    86    97    80    1
    87    98    99    1
    88   100    87    1
    89   101   100    1
    90   102    82   ar
    91   103    93    1
    92   104    87    1
    93   105   104    1
    94   106    98   ar
    95   107    82   ar
    96   108   107    1
    97   109    97   ar
    98   110   109    1
    99   111    97   ar
   100   112   111    1
   101   113   106   ar
   102   114   113    1
   103   115   116    1
   104   117   115   ar
   105   118   117    1
   106   119   106    1
   107   120   119    1
   108   121   120    1
   109   122   120    1
   110   123   120    1
   111   124    74   ar
   112   125   124    1
   113   126   119    1
   114   127   126    1
   115   128   126    1
   116   129   126    1
   117   130   103   ar
   118   131   130    1
   119   132   115   ar
   120   133   132    1
   121   134   103   ar
   122   135   134    1
   123   136   119    1
   124   137   136    1
   125   138   136    1
   126   139   136    1
   127   140    43    1
   128   141   140    1
   129   142   140    1
   130   143     4    1
   131   144   143    1
   132   145   143    1
   133   146   147    1
   134   147     1    1
   135   148   146    2
   136   149   151    1
   137   150   151    1
   138   151   146    1
   139   152   151    1
   140   153   146    2
   141    14    39   ar
   142    22    34   ar
   143    24    27    1
   144    24    32    1
   145    27    36    1
   146    28    36    1
   147    30    41   ar
   148    32    34    1
   149    46    48   ar
   150    52    72   ar
   151    65    70   ar
   152    85   107   ar
   153    91   102   ar
   154    93    95    1
   155    93   100    1
   156    95   104    1
   157    96   104    1
   158    96   124   ar
   159    98   109   ar
   160   100   102    1
   161   111   113   ar
   162   117   134   ar
   163   130   132   ar
   164   140   143    1
@<TRIPOS>SUBSTRUCTURE
     1 RES1        1 GROUP             0 ****  ****    0  
@<TRIPOS>CRYSIN
   10.9840   10.9840   52.4640   90.0000   90.0000   90.0000    92     1
