@<TRIPOS>MOLECULE
HOLBUH
   152   165     3     0     0
SMALL
USER_CHARGES
****
Generated from the CSD

@<TRIPOS>ATOM
     1 C1      14.2676   0.4248   2.2042   C.3       1 RES1   0.0000
     2 H1      14.0535  -0.4312   1.9349   H         1 RES1   0.0000
     3 H2      14.7908   0.9022   1.5516   H         1 RES1   0.0000
     4 H3      14.8346   0.4435   2.9815   H         1 RES1   0.0000
     5 C2      13.0522   1.1600   2.5014   C.1       1 RES1   0.0000
     6 N1      12.1090   1.7353   2.7495   N.1       1 RES1   0.0000
     7 C3       7.9247  -2.7535   1.0654   C.3       2 RES2   0.0000
     8 H4       8.6022  -3.4742   1.0024   H         2 RES2   0.0000
     9 H5       7.5276  -2.7815   1.9714   H         2 RES2   0.0000
    10 C4       6.8584  -2.9799   0.0453   C.2       2 RES2   0.0000
    11 C5       6.3085  -4.1045  -0.5142   C.2       2 RES2   0.0000
    12 H6       6.5783  -5.0064  -0.3909   H         2 RES2   0.0000
    13 C6       4.3446  -4.3806  -2.1222   C.3       2 RES2   0.0000
    14 H7       4.2134  -5.2878  -1.7493   H         2 RES2   0.0000
    15 H8       3.4698  -3.9162  -2.1144   H         2 RES2   0.0000
    16 C7       4.8377  -4.4910  -3.5425   C.ar      2 RES2   0.0000
    17 C8       5.4091  -5.6658  -4.0022   C.ar      2 RES2   0.0000
    18 H9       5.5003  -6.4102  -3.4181   H         2 RES2   0.0000
    19 C9       5.8472  -5.7550  -5.3137   C.ar      2 RES2   0.0000
    20 H10      6.2398  -6.5601  -5.6283   H         2 RES2   0.0000
    21 C10      5.7139  -4.6757  -6.1632   C.ar      2 RES2   0.0000
    22 H11      5.9975  -4.7480  -7.0673   H         2 RES2   0.0000
    23 C11      5.1706  -3.4927  -5.7056   C.ar      2 RES2   0.0000
    24 H12      5.0994  -2.7448  -6.2870   H         2 RES2   0.0000
    25 C12      4.7288  -3.3998  -4.3959   C.ar      2 RES2   0.0000
    26 H13      4.3497  -2.5873  -4.0798   H         2 RES2   0.0000
    27 C13      9.0062  -0.8666   2.1563   C.3       2 RES2   0.0000
    28 H14      9.6720  -0.1483   2.0155   H         2 RES2   0.0000
    29 H15      9.4209  -1.5720   2.7138   H         2 RES2   0.0000
    30 C14      7.7894  -0.3149   2.8412   C.2       2 RES2   0.0000
    31 C15      7.5342   0.1486   4.1056   C.2       2 RES2   0.0000
    32 H16      8.1180   0.1453   4.8556   H         2 RES2   0.0000
    33 C16      5.4768   1.3290   5.0705   C.3       2 RES2   0.0000
    34 H17      6.0819   1.7356   5.7409   H         2 RES2   0.0000
    35 H18      4.8730   0.6973   5.5370   H         2 RES2   0.0000
    36 C17      4.6716   2.4017   4.3860   C.ar      2 RES2   0.0000
    37 C18      3.2925   2.2887   4.2827   C.ar      2 RES2   0.0000
    38 H19      2.8431   1.5597   4.6943   H         2 RES2   0.0000
    39 C19      2.5674   3.2426   3.5755   C.ar      2 RES2   0.0000
    40 H20      1.6221   3.1715   3.5169   H         2 RES2   0.0000
    41 C20      3.2183   4.2909   2.9594   C.ar      2 RES2   0.0000
    42 H21      2.7214   4.9330   2.4673   H         2 RES2   0.0000
    43 C21      4.5958   4.4099   3.0569   C.ar      2 RES2   0.0000
    44 H22      5.0418   5.1318   2.6316   H         2 RES2   0.0000
    45 C22      5.3211   3.4741   3.7769   C.ar      2 RES2   0.0000
    46 H23      6.2635   3.5629   3.8562   H         2 RES2   0.0000
    47 C23      9.7271  -1.5533  -0.0940   C.3       2 RES2   0.0000
    48 H24     10.0540  -0.6438  -0.3042   H         2 RES2   0.0000
    49 H25      9.3981  -1.9527  -0.9386   H         2 RES2   0.0000
    50 C24     10.8787  -2.3664   0.3915   C.2       2 RES2   0.0000
    51 C25     11.0891  -3.7220   0.3582   C.2       2 RES2   0.0000
    52 H26     10.5042  -4.3917   0.0259   H         2 RES2   0.0000
    53 C26     13.0967  -5.1240   0.9405   C.3       2 RES2   0.0000
    54 H27     12.5526  -5.8536   1.3310   H         2 RES2   0.0000
    55 H28     13.8910  -4.9896   1.5166   H         2 RES2   0.0000
    56 C27     13.5392  -5.5101  -0.4533   C.ar      2 RES2   0.0000
    57 C28     14.3262  -4.6440  -1.2098   C.ar      2 RES2   0.0000
    58 H29     14.6048  -3.8152  -0.8397   H         2 RES2   0.0000
    59 C29     14.7073  -4.9840  -2.5006   C.ar      2 RES2   0.0000
    60 H30     15.2306  -4.3825  -3.0165   H         2 RES2   0.0000
    61 C30     14.3225  -6.2054  -3.0359   C.ar      2 RES2   0.0000
    62 H31     14.5932  -6.4469  -3.9140   H         2 RES2   0.0000
    63 C31     13.5461  -7.0700  -2.2897   C.ar      2 RES2   0.0000
    64 H32     13.2855  -7.9072  -2.6560   H         2 RES2   0.0000
    65 C32     13.1419  -6.7214  -1.0029   C.ar      2 RES2   0.0000
    66 H33     12.5941  -7.3124  -0.5005   H         2 RES2   0.0000
    67 N2       8.5796  -1.4333   0.8484   N.3       2 RES2   0.0000
    68 N3       6.1597  -1.9140  -0.4151   N.2       2 RES2   0.0000
    69 N4       5.2081  -2.3113  -1.2361   N.2       2 RES2   0.0000
    70 N5       5.2968  -3.6408  -1.2788   N.pl3     2 RES2   0.0000
    71 N6       6.6648  -0.1174   2.1050   N.2       2 RES2   0.0000
    72 N7       5.7322   0.4490   2.8402   N.2       2 RES2   0.0000
    73 N8       6.2651   0.6123   4.0468   N.pl3     2 RES2   0.0000
    74 N9      11.9758  -1.7805   0.9474   N.2       2 RES2   0.0000
    75 N10     12.8498  -2.7133   1.2477   N.2       2 RES2   0.0000
    76 N11     12.3060  -3.8908   0.9001   N.pl3     2 RES2   0.0000
    77 Fe1      7.0022   0.0000   0.0000   Fe        2 RES2   2.0000
    78 C3B      6.0796   2.7535  -1.0654   C.3       2 RES2   0.0000
    79 H4B      5.4021   3.4742  -1.0024   H         2 RES2   0.0000
    80 H5B      6.4767   2.7815  -1.9714   H         2 RES2   0.0000
    81 C4B      7.1459   2.9799  -0.0453   C.2       2 RES2   0.0000
    82 C5B      7.6958   4.1045   0.5142   C.2       2 RES2   0.0000
    83 H6B      7.4260   5.0064   0.3909   H         2 RES2   0.0000
    84 C6B      9.6597   4.3806   2.1222   C.3       2 RES2   0.0000
    85 H7B      9.7909   5.2878   1.7493   H         2 RES2   0.0000
    86 H8B     10.5345   3.9162   2.1144   H         2 RES2   0.0000
    87 C7B      9.1666   4.4910   3.5425   C.ar      2 RES2   0.0000
    88 C8B      8.5952   5.6658   4.0022   C.ar      2 RES2   0.0000
    89 H9B      8.5040   6.4102   3.4181   H         2 RES2   0.0000
    90 C9B      8.1571   5.7550   5.3137   C.ar      2 RES2   0.0000
    91 H10B     7.7645   6.5601   5.6283   H         2 RES2   0.0000
    92 C10B     8.2904   4.6757   6.1632   C.ar      2 RES2   0.0000
    93 H11B     8.0068   4.7480   7.0673   H         2 RES2   0.0000
    94 C11B     8.8337   3.4927   5.7056   C.ar      2 RES2   0.0000
    95 H12B     8.9049   2.7448   6.2870   H         2 RES2   0.0000
    96 C12B     9.2755   3.3998   4.3959   C.ar      2 RES2   0.0000
    97 H13B     9.6546   2.5873   4.0798   H         2 RES2   0.0000
    98 C13B     4.9981   0.8666  -2.1563   C.3       2 RES2   0.0000
    99 H14B     4.3323   0.1483  -2.0155   H         2 RES2   0.0000
   100 H15B     4.5834   1.5720  -2.7138   H         2 RES2   0.0000
   101 C14B     6.2149   0.3149  -2.8412   C.2       2 RES2   0.0000
   102 C15B     6.4701  -0.1486  -4.1056   C.2       2 RES2   0.0000
   103 H16B     5.8863  -0.1453  -4.8556   H         2 RES2   0.0000
   104 C16B     8.5275  -1.3290  -5.0705   C.3       2 RES2   0.0000
   105 H17B     7.9224  -1.7356  -5.7409   H         2 RES2   0.0000
   106 H18B     9.1313  -0.6973  -5.5370   H         2 RES2   0.0000
   107 C17B     9.3327  -2.4017  -4.3860   C.ar      2 RES2   0.0000
   108 C18B    10.7118  -2.2887  -4.2827   C.ar      2 RES2   0.0000
   109 H19B    11.1612  -1.5597  -4.6943   H         2 RES2   0.0000
   110 C19B    11.4369  -3.2426  -3.5755   C.ar      2 RES2   0.0000
   111 H20B    12.3822  -3.1715  -3.5169   H         2 RES2   0.0000
   112 C20B    10.7860  -4.2909  -2.9594   C.ar      2 RES2   0.0000
   113 H21B    11.2829  -4.9330  -2.4673   H         2 RES2   0.0000
   114 C21B     9.4085  -4.4099  -3.0569   C.ar      2 RES2   0.0000
   115 H22B     8.9625  -5.1318  -2.6316   H         2 RES2   0.0000
   116 C22B     8.6832  -3.4741  -3.7769   C.ar      2 RES2   0.0000
   117 H23B     7.7408  -3.5629  -3.8562   H         2 RES2   0.0000
   118 C23B     4.2772   1.5533   0.0940   C.3       2 RES2   0.0000
   119 H24B     3.9503   0.6438   0.3042   H         2 RES2   0.0000
   120 H25B     4.6062   1.9527   0.9386   H         2 RES2   0.0000
   121 C24B     3.1256   2.3664  -0.3915   C.2       2 RES2   0.0000
   122 C25B     2.9152   3.7220  -0.3582   C.2       2 RES2   0.0000
   123 H26B     3.5001   4.3917  -0.0259   H         2 RES2   0.0000
   124 C26B     0.9076   5.1240  -0.9405   C.3       2 RES2   0.0000
   125 H27B     1.4517   5.8536  -1.3310   H         2 RES2   0.0000
   126 H28B     0.1133   4.9896  -1.5166   H         2 RES2   0.0000
   127 C27B     0.4651   5.5101   0.4533   C.ar      2 RES2   0.0000
   128 C28B    -0.3219   4.6440   1.2098   C.ar      2 RES2   0.0000
   129 H29B    -0.6005   3.8152   0.8397   H         2 RES2   0.0000
   130 C29B    -0.7030   4.9840   2.5006   C.ar      2 RES2   0.0000
   131 H30B    -1.2263   4.3825   3.0165   H         2 RES2   0.0000
   132 C30B    -0.3182   6.2054   3.0359   C.ar      2 RES2   0.0000
   133 H31B    -0.5889   6.4469   3.9140   H         2 RES2   0.0000
   134 C31B     0.4582   7.0700   2.2897   C.ar      2 RES2   0.0000
   135 H32B     0.7188   7.9072   2.6560   H         2 RES2   0.0000
   136 C32B     0.8624   6.7214   1.0029   C.ar      2 RES2   0.0000
   137 H33B     1.4102   7.3124   0.5005   H         2 RES2   0.0000
   138 N2B      5.4247   1.4333  -0.8484   N.3       2 RES2   0.0000
   139 N3B      7.8446   1.9140   0.4151   N.2       2 RES2   0.0000
   140 N4B      8.7962   2.3113   1.2361   N.2       2 RES2   0.0000
   141 N5B      8.7075   3.6408   1.2788   N.pl3     2 RES2   0.0000
   142 N6B      7.3395   0.1174  -2.1050   N.2       2 RES2   0.0000
   143 N7B      8.2721  -0.4490  -2.8402   N.2       2 RES2   0.0000
   144 N8B      7.7392  -0.6123  -4.0468   N.pl3     2 RES2   0.0000
   145 N9B      2.0285   1.7805  -0.9474   N.2       2 RES2   0.0000
   146 N10B     1.1545   2.7133  -1.2477   N.2       2 RES2   0.0000
   147 N11B     1.6983   3.8908  -0.9001   N.pl3     2 RES2   0.0000
   148 B1       9.5742  -7.4298   0.4145   B         3 RES3  -1.0000
   149 F1       8.4186  -8.0176   0.9171   F         3 RES3   0.0000
   150 F2      10.2901  -8.3912  -0.3042   F         3 RES3   0.0000
   151 F3      10.3564  -6.9659   1.4637   F         3 RES3   0.0000
   152 F4       9.2426  -6.3833  -0.4265   F         3 RES3   0.0000
@<TRIPOS>BOND
     1     1     2    1
     2     3     1    1
     3     4     1    1
     4     5     1    1
     5     6     5    3
     6     7     8    1
     7     9     7    1
     8    10     7    1
     9    11    10    2
    10    12    11    1
    11    13    14    1
    12    15    13    1
    13    16    13    1
    14    17    16   ar
    15    18    17    1
    16    19    17   ar
    17    20    19    1
    18    21    19   ar
    19    22    21    1
    20    23    21   ar
    21    24    23    1
    22    25    16   ar
    23    26    25    1
    24    27    28    1
    25    29    27    1
    26    30    27    1
    27    31    30    2
    28    32    31    1
    29    33    34    1
    30    35    33    1
    31    36    33    1
    32    37    36   ar
    33    38    37    1
    34    39    37   ar
    35    40    39    1
    36    41    39   ar
    37    42    41    1
    38    43    41   ar
    39    44    43    1
    40    45    36   ar
    41    46    45    1
    42    47    48    1
    43    49    47    1
    44    50    47    1
    45    51    50    2
    46    52    51    1
    47    53    54    1
    48    55    53    1
    49    56    53    1
    50    57    56   ar
    51    58    57    1
    52    59    57   ar
    53    60    59    1
    54    61    59   ar
    55    62    61    1
    56    63    61   ar
    57    64    63    1
    58    65    56   ar
    59    66    65    1
    60    67     7    1
    61    68    10    1
    62    69    68    2
    63    70    11    1
    64    71    30    1
    65    72    71    2
    66    73    31    1
    67    74    50    1
    68    75    74    2
    69    76    51    1
    70    77    67    1
    71    78    79    1
    72    80    78    1
    73    81    78    1
    74    82    81    2
    75    83    82    1
    76    84    85    1
    77    86    84    1
    78    87    84    1
    79    88    87   ar
    80    89    88    1
    81    90    88   ar
    82    91    90    1
    83    92    90   ar
    84    93    92    1
    85    94    92   ar
    86    95    94    1
    87    96    87   ar
    88    97    96    1
    89    98    99    1
    90   100    98    1
    91   101    98    1
    92   102   101    2
    93   103   102    1
    94   104   105    1
    95   106   104    1
    96   107   104    1
    97   108   107   ar
    98   109   108    1
    99   110   108   ar
   100   111   110    1
   101   112   110   ar
   102   113   112    1
   103   114   112   ar
   104   115   114    1
   105   116   107   ar
   106   117   116    1
   107   118   119    1
   108   120   118    1
   109   121   118    1
   110   122   121    2
   111   123   122    1
   112   124   125    1
   113   126   124    1
   114   127   124    1
   115   128   127   ar
   116   129   128    1
   117   130   128   ar
   118   131   130    1
   119   132   130   ar
   120   133   132    1
   121   134   132   ar
   122   135   134    1
   123   136   127   ar
   124   137   136    1
   125   138    77    1
   126   139    77    1
   127   140   139    2
   128   141    82    1
   129   142    77    1
   130   143   142    2
   131   144   102    1
   132   145   121    1
   133   146   145    2
   134   147   122    1
   135    13    70    1
   136    23    25   ar
   137    27    67    1
   138    33    73    1
   139    43    45   ar
   140    47    67    1
   141    53    76    1
   142    63    65   ar
   143    68    77    1
   144    69    70    1
   145    71    77    1
   146    72    73    1
   147    75    76    1
   148    78   138    1
   149    81   139    1
   150    84   141    1
   151    94    96   ar
   152    98   138    1
   153   101   142    1
   154   104   144    1
   155   114   116   ar
   156   118   138    1
   157   124   147    1
   158   134   136   ar
   159   140   141    1
   160   143   144    1
   161   146   147    1
   162   148   149    1
   163   150   148    1
   164   151   148    1
   165   152   148    1
@<TRIPOS>SUBSTRUCTURE
     1 RES1        1 GROUP             0 ****  ****    0  
     2 RES2        7 GROUP             0 ****  ****    0  
     3 RES3      148 GROUP             0 ****  ****    0  
@<TRIPOS>CRYSIN
   14.0043   15.2915   16.0744   90.0000  108.8570   90.0000    14     1
