@<TRIPOS>MOLECULE
HOLCES
   146   160     2     0     0
SMALL
USER_CHARGES
****
Generated from the CSD

@<TRIPOS>ATOM
     1 Fe1      2.8251   4.8807   6.6911   Fe        1 RES1   2.0000
     2 N1       2.1523   3.8297   4.9407   N.3       1 RES1   0.0000
     3 N2       4.3085   3.6274   6.5433   N.2       1 RES1   0.0000
     4 N3       5.2964   3.3060   7.3514   N.2       1 RES1   0.0000
     5 N4       5.9314   2.2849   6.7683   N.pl3     1 RES1   0.0000
     6 N5       1.8302   3.4610   7.6061   N.2       1 RES1   0.0000
     7 N6       1.7708   3.0695   8.8656   N.2       1 RES1   0.0000
     8 N7       1.0994   1.9130   8.8569   N.pl3     1 RES1   0.0000
     9 N8       2.0083   3.5715   1.6037   N.2       1 RES1   0.0000
    10 N9       1.3582   2.9048   0.6773   N.2       1 RES1   0.0000
    11 N10      0.0801   2.7874   1.0980   N.pl3     1 RES1   0.0000
    12 C1       3.3401   3.1132   4.3801   C.3       1 RES1   0.0000
    13 H1       3.0536   2.2903   3.9531   H         1 RES1   0.0000
    14 H2       3.7696   3.6677   3.7109   H         1 RES1   0.0000
    15 C2       4.3041   2.8033   5.4683   C.2       1 RES1   0.0000
    16 C3       5.3520   1.9329   5.6098   C.2       1 RES1   0.0000
    17 H3       5.6054   1.2497   5.0317   H         1 RES1   0.0000
    18 C4       7.1097   1.6682   7.4183   C.3       1 RES1   0.0000
    19 H4       7.7977   1.5075   6.7527   H         1 RES1   0.0000
    20 H5       6.8565   0.8123   7.7992   H         1 RES1   0.0000
    21 C5       7.6592   2.5530   8.5007   C.ar      1 RES1   0.0000
    22 C6       7.5337   2.1725   9.8117   C.ar      1 RES1   0.0000
    23 H6       7.1111   1.3716  10.0233   H         1 RES1   0.0000
    24 C7       8.0334   2.9773  10.8236   C.ar      1 RES1   0.0000
    25 H7       7.9573   2.7112  11.7122   H         1 RES1   0.0000
    26 C8       8.6410   4.1650  10.5118   C.ar      1 RES1   0.0000
    27 H8       8.9619   4.7156  11.1889   H         1 RES1   0.0000
    28 C9       8.7733   4.5426   9.2003   C.ar      1 RES1   0.0000
    29 H9       9.1851   5.3484   8.9862   H         1 RES1   0.0000
    30 C10      8.2980   3.7319   8.2045   C.ar      1 RES1   0.0000
    31 H10      8.4108   3.9824   7.3161   H         1 RES1   0.0000
    32 C11      1.0822   2.8694   5.3675   C.3       1 RES1   0.0000
    33 H11      0.2105   3.2592   5.1977   H         1 RES1   0.0000
    34 H12      1.1532   2.0536   4.8484   H         1 RES1   0.0000
    35 C12      1.2097   2.5509   6.8092   C.2       1 RES1   0.0000
    36 C13      0.7416   1.5496   7.6129   C.2       1 RES1   0.0000
    37 H13      0.2778   0.7858   7.3562   H         1 RES1   0.0000
    38 C14      0.9899   1.1442  10.0958   C.3       1 RES1   0.0000
    39 H14      0.1893   0.5980  10.0608   H         1 RES1   0.0000
    40 H15      0.9005   1.7568  10.8423   H         1 RES1   0.0000
    41 C15      2.1880   0.2520  10.3268   C.ar      1 RES1   0.0000
    42 C16      2.1662  -0.6193  11.4060   C.ar      1 RES1   0.0000
    43 H16      1.4057  -0.6741  11.9383   H         1 RES1   0.0000
    44 C17      3.2682  -1.4092  11.6974   C.ar      1 RES1   0.0000
    45 H17      3.2473  -1.9800  12.4308   H         1 RES1   0.0000
    46 C18      4.3932  -1.3530  10.9083   C.ar      1 RES1   0.0000
    47 H18      5.1318  -1.8813  11.1086   H         1 RES1   0.0000
    48 C19      4.4194  -0.5110   9.8203   C.ar      1 RES1   0.0000
    49 H19      5.1737  -0.4794   9.2766   H         1 RES1   0.0000
    50 C20      3.3228   0.2939   9.5304   C.ar      1 RES1   0.0000
    51 H20      3.3501   0.8641   8.7962   H         1 RES1   0.0000
    52 C21      1.5757   4.6591   3.8162   C.3       1 RES1   0.0000
    53 H21      0.8095   5.1493   4.1552   H         1 RES1   0.0000
    54 H22      2.2399   5.3090   3.5396   H         1 RES1   0.0000
    55 C22      1.1483   3.8768   2.6186   C.2       1 RES1   0.0000
    56 C23     -0.0873   3.3711   2.2943   C.2       1 RES1   0.0000
    57 H23     -0.8693   3.4221   2.7956   H         1 RES1   0.0000
    58 C24     -0.8859   2.0111   0.2998   C.3       1 RES1   0.0000
    59 H24     -0.9673   1.1206   0.6758   H         1 RES1   0.0000
    60 H25     -0.5521   1.9228  -0.6062   H         1 RES1   0.0000
    61 C25     -2.2456   2.6599   0.2663   C.ar      1 RES1   0.0000
    62 C26     -3.2629   2.1962   1.0951   C.ar      1 RES1   0.0000
    63 H26     -3.0926   1.5007   1.6888   H         1 RES1   0.0000
    64 C27     -4.5265   2.7619   1.0423   C.ar      1 RES1   0.0000
    65 H27     -5.2006   2.4439   1.5992   H         1 RES1   0.0000
    66 C28     -4.7910   3.8002   0.1631   C.ar      1 RES1   0.0000
    67 H28     -5.6409   4.1744   0.1231   H         1 RES1   0.0000
    68 C29     -3.7817   4.2745  -0.6528   C.ar      1 RES1   0.0000
    69 H29     -3.9516   4.9758  -1.2392   H         1 RES1   0.0000
    70 C30     -2.5142   3.7102  -0.6038   C.ar      1 RES1   0.0000
    71 H30     -1.8410   4.0365  -1.1562   H         1 RES1   0.0000
    72 N1A      3.4979   5.9316   8.4415   N.3       1 RES1   0.0000
    73 N2A      1.3416   6.1339   6.8390   N.2       1 RES1   0.0000
    74 N3A      0.3537   6.4553   6.0309   N.2       1 RES1   0.0000
    75 N4A     -0.2813   7.4765   6.6139   N.pl3     1 RES1   0.0000
    76 N5A      3.8200   6.3003   5.7762   N.2       1 RES1   0.0000
    77 N6A      3.8794   6.6918   4.5166   N.2       1 RES1   0.0000
    78 N7A      4.5508   7.8483   4.5253   N.pl3     1 RES1   0.0000
    79 N8A      3.6418   6.1898  11.7785   N.2       1 RES1   0.0000
    80 N9A      4.2920   6.8566  12.7050   N.2       1 RES1   0.0000
    81 N10A     5.5700   6.9739  12.2842   N.pl3     1 RES1   0.0000
    82 C1A      2.3101   6.6481   9.0021   C.3       1 RES1   0.0000
    83 H1A      2.5965   7.4710   9.4291   H         1 RES1   0.0000
    84 H2A      1.8805   6.0936   9.6714   H         1 RES1   0.0000
    85 C2A      1.3460   6.9580   7.9140   C.2       1 RES1   0.0000
    86 C3A      0.2982   7.8284   7.7724   C.2       1 RES1   0.0000
    87 H3A      0.0447   8.5116   8.3505   H         1 RES1   0.0000
    88 C4A     -1.4596   8.0931   5.9639   C.3       1 RES1   0.0000
    89 H4A     -2.1475   8.2538   6.6296   H         1 RES1   0.0000
    90 H5A     -1.2064   8.9490   5.5831   H         1 RES1   0.0000
    91 C5A     -2.0090   7.2083   4.8816   C.ar      1 RES1   0.0000
    92 C6A     -1.8835   7.5889   3.5705   C.ar      1 RES1   0.0000
    93 H6A     -1.4610   8.3898   3.3589   H         1 RES1   0.0000
    94 C7A     -2.3833   6.7841   2.5587   C.ar      1 RES1   0.0000
    95 H7A     -2.3072   7.0501   1.6701   H         1 RES1   0.0000
    96 C8A     -2.9909   5.5963   2.8705   C.ar      1 RES1   0.0000
    97 H8A     -3.3118   5.0457   2.1934   H         1 RES1   0.0000
    98 C9A     -3.1232   5.2188   4.1820   C.ar      1 RES1   0.0000
    99 H9A     -3.5350   4.4130   4.3961   H         1 RES1   0.0000
   100 C10A    -2.6479   6.0294   5.1777   C.ar      1 RES1   0.0000
   101 H10A    -2.7606   5.7789   6.0662   H         1 RES1   0.0000
   102 C11A     4.5679   6.8919   8.0148   C.3       1 RES1   0.0000
   103 H11A     5.4397   6.5021   8.1846   H         1 RES1   0.0000
   104 H12A     4.4970   7.7078   8.5339   H         1 RES1   0.0000
   105 C12A     4.4405   7.2104   6.5731   C.2       1 RES1   0.0000
   106 C13A     4.9085   8.2118   5.7694   C.2       1 RES1   0.0000
   107 H13A     5.3723   8.9755   6.0260   H         1 RES1   0.0000
   108 C14A     4.6602   8.6171   3.2864   C.3       1 RES1   0.0000
   109 H14A     5.4609   9.1633   3.3215   H         1 RES1   0.0000
   110 H15A     4.7497   8.0045   2.5400   H         1 RES1   0.0000
   111 C15A     3.4622   9.5094   3.0554   C.ar      1 RES1   0.0000
   112 C16A     3.4839  10.3806   1.9763   C.ar      1 RES1   0.0000
   113 H16A     4.2445  10.4354   1.4439   H         1 RES1   0.0000
   114 C17A     2.3819  11.1705   1.6848   C.ar      1 RES1   0.0000
   115 H17A     2.4029  11.7413   0.9515   H         1 RES1   0.0000
   116 C18A     1.2569  11.1143   2.4740   C.ar      1 RES1   0.0000
   117 H18A     0.5183  11.6427   2.2736   H         1 RES1   0.0000
   118 C19A     1.2307  10.2723   3.5620   C.ar      1 RES1   0.0000
   119 H19A     0.4764  10.2408   4.1057   H         1 RES1   0.0000
   120 C20A     2.3274   9.4674   3.8518   C.ar      1 RES1   0.0000
   121 H20A     2.3000   8.8972   4.5861   H         1 RES1   0.0000
   122 C21A     4.0744   5.1023   9.5660   C.3       1 RES1   0.0000
   123 H21A     4.8406   4.6121   9.2271   H         1 RES1   0.0000
   124 H22A     3.4103   4.4523   9.8427   H         1 RES1   0.0000
   125 C22A     4.5018   5.8845  10.7636   C.2       1 RES1   0.0000
   126 C23A     5.7375   6.3903  11.0880   C.2       1 RES1   0.0000
   127 H23A     6.5194   6.3392  10.5867   H         1 RES1   0.0000
   128 C24A     6.5361   7.7502  13.0825   C.3       1 RES1   0.0000
   129 H24A     6.6174   8.6408  12.7065   H         1 RES1   0.0000
   130 H25A     6.2022   7.8385  13.9885   H         1 RES1   0.0000
   131 C25A     7.8958   7.1015  13.1160   C.ar      1 RES1   0.0000
   132 C26A     8.9130   7.5651  12.2872   C.ar      1 RES1   0.0000
   133 H26A     8.7427   8.2606  11.6934   H         1 RES1   0.0000
   134 C27A    10.1766   6.9994  12.3399   C.ar      1 RES1   0.0000
   135 H27A    10.8508   7.3174  11.7831   H         1 RES1   0.0000
   136 C28A    10.4411   5.9611  13.2191   C.ar      1 RES1   0.0000
   137 H28A    11.2911   5.5870  13.2591   H         1 RES1   0.0000
   138 C29A     9.4319   5.4869  14.0351   C.ar      1 RES1   0.0000
   139 H29A     9.6017   4.7856  14.6215   H         1 RES1   0.0000
   140 C30A     8.1643   6.0511  13.9861   C.ar      1 RES1   0.0000
   141 H30A     7.4911   5.7248  14.5385   H         1 RES1   0.0000
   142 B1       8.5059   0.4096   4.2830   B         2 RES2  -1.0000
   143 F1       8.9235   0.0160   3.0255   F         2 RES2   0.0000
   144 F2       9.5269   0.1974   5.1951   F         2 RES2   0.0000
   145 F3       8.1779   1.7628   4.2748   F         2 RES2   0.0000
   146 F4       7.3892  -0.3192   4.6744   F         2 RES2   0.0000
@<TRIPOS>BOND
     1     1     2    1
     2     2    12    1
     3     3     1    1
     4     4     3    2
     5     5     4    1
     6     6     1    1
     7     7     6    2
     8     8     7    1
     9     9    10    2
    10    10    11    1
    11    11    56    1
    12    12    13    1
    13    14    12    1
    14    15     3    1
    15    16     5    1
    16    17    16    1
    17    18     5    1
    18    19    18    1
    19    20    18    1
    20    21    18    1
    21    22    21   ar
    22    23    22    1
    23    24    22   ar
    24    25    24    1
    25    26    24   ar
    26    27    26    1
    27    28    26   ar
    28    29    28    1
    29    30    21   ar
    30    31    30    1
    31    32     2    1
    32    33    32    1
    33    34    32    1
    34    35     6    1
    35    36     8    1
    36    37    36    1
    37    38     8    1
    38    39    38    1
    39    40    38    1
    40    41    38    1
    41    42    41   ar
    42    43    42    1
    43    44    42   ar
    44    45    44    1
    45    46    44   ar
    46    47    46    1
    47    48    46   ar
    48    49    48    1
    49    50    41   ar
    50    51    50    1
    51    52     2    1
    52    53    52    1
    53    54    52    1
    54    55     9    1
    55    56    55    2
    56    57    56    1
    57    58    11    1
    58    59    58    1
    59    60    58    1
    60    61    58    1
    61    62    61   ar
    62    63    62    1
    63    64    62   ar
    64    65    64    1
    65    66    64   ar
    66    67    66    1
    67    68    66   ar
    68    69    68    1
    69    70    61   ar
    70    71    70    1
    71    72     1    1
    72    73     1    1
    73    74    73    2
    74    75    74    1
    75    76     1    1
    76    77    76    2
    77    78    77    1
    78    79    80    2
    79    80    81    1
    80    81   126    1
    81    82    72    1
    82    83    82    1
    83    84    82    1
    84    85    73    1
    85    86    75    1
    86    87    86    1
    87    88    75    1
    88    89    88    1
    89    90    88    1
    90    91    88    1
    91    92    91   ar
    92    93    92    1
    93    94    92   ar
    94    95    94    1
    95    96    94   ar
    96    97    96    1
    97    98    96   ar
    98    99    98    1
    99   100    91   ar
   100   101   100    1
   101   102    72    1
   102   103   102    1
   103   104   102    1
   104   105    76    1
   105   106    78    1
   106   107   106    1
   107   108    78    1
   108   109   108    1
   109   110   108    1
   110   111   108    1
   111   112   111   ar
   112   113   112    1
   113   114   112   ar
   114   115   114    1
   115   116   114   ar
   116   117   116    1
   117   118   116   ar
   118   119   118    1
   119   120   111   ar
   120   121   120    1
   121   122    72    1
   122   123   122    1
   123   124   122    1
   124   125    79    1
   125   126   125    2
   126   127   126    1
   127   128    81    1
   128   129   128    1
   129   130   128    1
   130   131   128    1
   131   132   131   ar
   132   133   132    1
   133   134   132   ar
   134   135   134    1
   135   136   134   ar
   136   137   136    1
   137   138   136   ar
   138   139   138    1
   139   140   131   ar
   140   141   140    1
   141    12    15    1
   142    15    16    2
   143    28    30   ar
   144    32    35    1
   145    35    36    2
   146    48    50   ar
   147    52    55    1
   148    68    70   ar
   149    82    85    1
   150    85    86    2
   151    98   100   ar
   152   102   105    1
   153   105   106    2
   154   118   120   ar
   155   122   125    1
   156   138   140   ar
   157   142   143    1
   158   144   142    1
   159   145   142    1
   160   146   142    1
@<TRIPOS>SUBSTRUCTURE
     1 RES1        1 GROUP             0 ****  ****    0  
     2 RES2      142 GROUP             0 ****  ****    0  
@<TRIPOS>CRYSIN
   10.1286   11.1441   13.9200   94.3500  104.9330   94.5880     2     1
