@<TRIPOS>MOLECULE
HONWUD
   340   367     4     0     0
SMALL
NO_CHARGES
****
Generated from the CSD

@<TRIPOS>ATOM
     1 C23      9.7665   1.7247   9.2045   C.ar      1 RES1   0.0000
     2 H41      9.7978   0.7870   9.3415   H         1 RES1   0.0000
     3 N3       9.6074   4.3160   8.8560   N.ar      1 RES1   0.0000
     4 C24      9.5948   3.4369   7.8103   C.ar      1 RES1   0.0000
     5 H42      9.5781   3.7948   6.9294   H         1 RES1   0.0000
     6 C25      9.6074   2.1099   7.9456   C.ar      1 RES1   0.0000
     7 H43      9.5090   1.5049   7.2190   H         1 RES1   0.0000
     8 C26      9.8167   3.7676  10.1722   C.ar      1 RES1   0.0000
     9 H44      9.9067   4.2846  10.9647   H         1 RES1   0.0000
    10 C27      9.8711   2.3443  10.1271   C.ar      1 RES1   0.0000
    11 H45     10.0093   1.8838  10.9473   H         1 RES1   0.0000
    12 O13      1.5405  19.9138   0.7751   O.3       2 RES2   0.0000
    13 O14     10.4656   0.0000   4.3352   O.3       3 RES3   0.0000
    14 Fe1      3.1516  20.0066  11.5891   Fe        4 RES4   0.0000
    15 Fe2      3.0199  19.9517   7.7921   Fe        4 RES4   0.0000
    16 Fe3      0.0000  20.9311  13.4278   Fe        4 RES4   0.0000
    17 P1       2.4370  19.2734  14.7545   P.3       4 RES4   0.0000
    18 P2       2.3520  17.4714   9.8354   P.3       4 RES4   0.0000
    19 P3       2.3156  22.9920  12.4733   P.3       4 RES4   0.0000
    20 P4       0.0000  20.9311   8.6705   P.3       4 RES4   0.0000
    21 O1       3.2690  19.5304  13.5294   O.co2     4 RES4   0.0000
    22 O2       3.1962  19.8678  15.9710   O.3       4 RES4   0.0000
    23 H1       2.7922  19.6627  16.6785   H         4 RES4   0.0000
    24 O3       1.0514  19.8609  14.7536   O.co2     4 RES4   0.0000
    25 O4       0.8737  17.3937  10.1670   O.co2     4 RES4   0.0000
    26 O5       3.1219  18.1473  10.9681   O.co2     4 RES4   0.0000
    27 O6       2.5915  18.1343   8.4988   O.co2     4 RES4   0.0000
    28 O7       1.6209  23.8114  11.4207   O.co2     4 RES4   0.0000
    29 O8       1.3157  22.3680  13.4479   O.co2     4 RES4   0.0000
    30 O9       3.2627  21.9366  11.8785   O.co2     4 RES4   0.0000
    31 O10      1.0870  19.9986  11.8473   O.3       4 RES4   0.0000
    32 H2       0.5777  19.5329  11.1953   H         4 RES4   0.0000
    33 O11      3.2489  20.5443   9.6728   O.3       4 RES4   0.0000
    34 H3       3.5122  21.4565   9.6502   H         4 RES4   0.0000
    35 O12      1.1340  20.5196   7.7340   O.co2     4 RES4   0.0000
    36 N1       5.3332  19.9034  11.7571   N.2       4 RES4   0.0000
    37 N2       5.1491  19.4931   7.5658   N.2       4 RES4   0.0000
    38 C1       2.3108  17.4817  15.0120   C.3       4 RES4   0.0000
    39 C2       1.3940  16.9123  13.9109   C.3       4 RES4   0.0000
    40 H4       1.7498  17.1593  13.0317   H         4 RES4   0.0000
    41 H5       0.4919  17.2807  14.0132   H         4 RES4   0.0000
    42 H6       1.3584  15.9348  13.9872   H         4 RES4   0.0000
    43 C3       3.7383  16.8621  14.9062   C.3       4 RES4   0.0000
    44 H7       4.3034  17.2200  15.6224   H         4 RES4   0.0000
    45 H8       4.1297  17.0882  14.0375   H         4 RES4   0.0000
    46 H9       3.6797  15.8867  14.9947   H         4 RES4   0.0000
    47 C4       1.7624  17.1384  16.4184   C.3       4 RES4   0.0000
    48 H10      2.3506  17.5214  17.1016   H         4 RES4   0.0000
    49 H11      1.7268  16.1651  16.5259   H         4 RES4   0.0000
    50 H12      0.8624  17.5110  16.5172   H         4 RES4   0.0000
    51 C5       2.9911  15.7779   9.7092   C.3       4 RES4   0.0000
    52 C6       2.7713  15.0264  11.0219   C.3       4 RES4   0.0000
    53 H13      1.8147  15.0139  11.2369   H         4 RES4   0.0000
    54 H14      3.2632  15.4744  11.7415   H         4 RES4   0.0000
    55 H15      3.0957  14.1055  10.9282   H         4 RES4   0.0000
    56 C7       4.4562  15.7925   9.3658   C.3       4 RES4   0.0000
    57 H16      4.9565  16.2279  10.0872   H         4 RES4   0.0000
    58 H17      4.5902  16.2865   8.5317   H         4 RES4   0.0000
    59 H18      4.7744  14.8715   9.2566   H         4 RES4   0.0000
    60 C8       2.2271  15.0746   8.5439   C.3       4 RES4   0.0000
    61 H19      1.2684  15.0474   8.7502   H         4 RES4   0.0000
    62 H20      2.5641  14.1599   8.4381   H         4 RES4   0.0000
    63 H21      2.3673  15.5727   7.7132   H         4 RES4   0.0000
    64 C9       3.3741  24.0959  13.4479   C.3       4 RES4   0.0000
    65 C10      2.4971  25.0901  14.2369   C.3       4 RES4   0.0000
    66 H22      1.9068  24.5940  14.8438   H         4 RES4   0.0000
    67 H23      1.9550  25.6155  13.6126   H         4 RES4   0.0000
    68 H24      3.0706  25.6887  14.7588   H         4 RES4   0.0000
    69 C11      4.1841  23.2838  14.4467   C.3       4 RES4   0.0000
    70 H25      3.5771  22.8086  15.0502   H         4 RES4   0.0000
    71 H26      4.7597  23.8845  14.9669   H         4 RES4   0.0000
    72 H27      4.7409  22.6370  13.9664   H         4 RES4   0.0000
    73 C12      4.2951  24.8494  12.5149   C.3       4 RES4   0.0000
    74 H28      3.7613  25.3643  11.8733   H         4 RES4   0.0000
    75 H29      4.8623  24.2152  12.0311   H         4 RES4   0.0000
    76 H30      4.8581  25.4606  13.0352   H         4 RES4   0.0000
    77 C13      6.0951  20.9458  11.5126   C.2       4 RES4   0.0000
    78 H31      5.6660  21.7600  11.2785   H         4 RES4   0.0000
    79 C14      7.4766  20.9416  11.5716   C.2       4 RES4   0.0000
    80 H32      7.9831  21.7160  11.3583   H         4 RES4   0.0000
    81 C15      8.0752  19.7987  11.9427   C.2       4 RES4   0.0000
    82 H33      9.0213  19.7715  12.0207   H         4 RES4   0.0000
    83 C16      7.3280  18.6350  12.2201   C.2       4 RES4   0.0000
    84 H34      7.7340  17.8124  12.4612   H         4 RES4   0.0000
    85 C17      5.9319  18.7898  12.1109   C.2       4 RES4   0.0000
    86 H35      5.3877  18.0363  12.3051   H         4 RES4   0.0000
    87 C18      5.7540  19.8259   6.4057   C.2       4 RES4   0.0000
    88 H36      5.2432  20.2425   5.7225   H         4 RES4   0.0000
    89 C19      7.0894  19.5790   6.1820   C.2       4 RES4   0.0000
    90 H37      7.5101  19.8427   5.3722   H         4 RES4   0.0000
    91 C20      7.7947  18.9259   7.1878   C.2       4 RES4   0.0000
    92 H38      8.7178  18.7291   7.0716   H         4 RES4   0.0000
    93 C21      7.1710  18.5722   8.3306   C.2       4 RES4   0.0000
    94 H39      7.6503  18.1201   9.0138   H         4 RES4   0.0000
    95 C22      5.8461  18.8652   8.5040   C.2       4 RES4   0.0000
    96 H40      5.4149  18.6119   9.3121   H         4 RES4   0.0000
    97 Fe1A    -3.1516  21.8556  11.5891   Fe        4 RES4   0.0000
    98 Fe1B    -0.9245  17.7795   5.7518   Fe        4 RES4   0.0000
    99 Fe1C     0.9245  24.0827   5.7518   Fe        4 RES4   0.0000
   100 Fe2A    -3.0199  21.9105   7.7921   Fe        4 RES4   0.0000
   101 Fe2B    -0.9794  17.9112   9.5488   Fe        4 RES4   0.0000
   102 Fe2C     0.9794  23.9510   9.5488   Fe        4 RES4   0.0000
   103 Fe3B     0.0000  20.9311   3.9131   Fe        4 RES4   0.0000
   104 P1A     -2.4370  22.5888  14.7545   P.3       4 RES4   0.0000
   105 P1B     -1.6577  18.4941   2.5864   P.3       4 RES4   0.0000
   106 P1C      1.6577  23.3681   2.5864   P.3       4 RES4   0.0000
   107 P2A     -2.3520  24.3908   9.8354   P.3       4 RES4   0.0000
   108 P2B     -3.4597  18.5791   7.5055   P.3       4 RES4   0.0000
   109 P2C      3.4597  23.2831   7.5055   P.3       4 RES4   0.0000
   110 P3A     -2.3156  18.8702  12.4733   P.3       4 RES4   0.0000
   111 P3B      2.0609  18.6155   4.8676   P.3       4 RES4   0.0000
   112 P3C     -2.0609  23.2467   4.8676   P.3       4 RES4   0.0000
   113 O1A     -3.2690  22.3318  13.5294   O.co2     4 RES4   0.0000
   114 O1B     -1.4007  17.6621   3.8115   O.co2     4 RES4   0.0000
   115 O1C      1.4007  24.2001   3.8115   O.co2     4 RES4   0.0000
   116 O2A     -3.1962  21.9944  15.9710   O.3       4 RES4   0.0000
   117 O2B     -1.0633  17.7349   1.3699   O.3       4 RES4   0.0000
   118 O2C      1.0633  24.1273   1.3699   O.3       4 RES4   0.0000
   119 H1A     -2.7922  22.1995  16.6785   H         4 RES4   0.0000
   120 H1B     -1.2684  18.1389   0.6624   H         4 RES4   0.0000
   121 H1C      1.2684  23.7233   0.6624   H         4 RES4   0.0000
   122 O3A     -1.0514  22.0013  14.7536   O.co2     4 RES4   0.0000
   123 O3B     -1.0702  19.8797   2.5873   O.co2     4 RES4   0.0000
   124 O3C      1.0702  21.9825   2.5873   O.co2     4 RES4   0.0000
   125 O4A     -0.8737  24.4685  10.1670   O.co2     4 RES4   0.0000
   126 O4B     -3.5374  20.0574   7.1739   O.co2     4 RES4   0.0000
   127 O4C      3.5374  21.8048   7.1739   O.co2     4 RES4   0.0000
   128 O5A     -3.1219  23.7149  10.9681   O.co2     4 RES4   0.0000
   129 O5B     -2.7838  17.8092   6.3728   O.co2     4 RES4   0.0000
   130 O5C      2.7838  24.0530   6.3728   O.co2     4 RES4   0.0000
   131 O6A     -2.5915  23.7279   8.4988   O.co2     4 RES4   0.0000
   132 O6B     -2.7968  18.3396   8.8421   O.co2     4 RES4   0.0000
   133 O6C      2.7968  23.5226   8.8421   O.co2     4 RES4   0.0000
   134 O7A     -1.6209  18.0508  11.4207   O.co2     4 RES4   0.0000
   135 O7B      2.8803  19.3102   5.9202   O.co2     4 RES4   0.0000
   136 O7C     -2.8803  22.5520   5.9202   O.co2     4 RES4   0.0000
   137 O8A     -1.3157  19.4942  13.4479   O.co2     4 RES4   0.0000
   138 O8B      1.4369  19.6154   3.8930   O.co2     4 RES4   0.0000
   139 O8C     -1.4369  22.2468   3.8930   O.co2     4 RES4   0.0000
   140 O9A     -3.2627  19.9256  11.8785   O.co2     4 RES4   0.0000
   141 O9B      1.0055  17.6684   5.4624   O.co2     4 RES4   0.0000
   142 O9C     -1.0055  24.1938   5.4624   O.co2     4 RES4   0.0000
   143 O10A    -1.0870  21.8636  11.8473   O.3       4 RES4   0.0000
   144 O10B    -0.9325  19.8441   5.4936   O.3       4 RES4   0.0000
   145 O10C     0.9325  22.0181   5.4936   O.3       4 RES4   0.0000
   146 H2A     -0.5777  22.3293  11.1953   H         4 RES4   0.0000
   147 H2B     -1.3982  20.3534   6.1456   H         4 RES4   0.0000
   148 H2C      1.3982  21.5088   6.1456   H         4 RES4   0.0000
   149 O11A    -3.2489  21.3179   9.6728   O.3       4 RES4   0.0000
   150 O11B    -0.3868  17.6822   7.6681   O.3       4 RES4   0.0000
   151 O11C     0.3868  24.1800   7.6681   O.3       4 RES4   0.0000
   152 H3A     -3.5122  20.4057   9.6502   H         4 RES4   0.0000
   153 H3B      0.5254  17.4189   7.6907   H         4 RES4   0.0000
   154 H3C     -0.5254  24.4433   7.6907   H         4 RES4   0.0000
   155 O12A    -1.1340  21.3426   7.7340   O.co2     4 RES4   0.0000
   156 O12B    -0.4115  19.7971   9.6069   O.co2     4 RES4   0.0000
   157 O12C     0.4115  22.0651   9.6069   O.co2     4 RES4   0.0000
   158 N1A     -5.3332  21.9588  11.7571   N.2       4 RES4   0.0000
   159 N1B     -1.0277  15.5979   5.5838   N.2       4 RES4   0.0000
   160 N1C      1.0277  26.2643   5.5838   N.2       4 RES4   0.0000
   161 N2A     -5.1491  22.3691   7.5658   N.2       4 RES4   0.0000
   162 N2B     -1.4380  15.7820   9.7751   N.2       4 RES4   0.0000
   163 N2C      1.4380  26.0802   9.7751   N.2       4 RES4   0.0000
   164 C1A     -2.3108  24.3805  15.0120   C.3       4 RES4   0.0000
   165 C1B     -3.4494  18.6203   2.3289   C.3       4 RES4   0.0000
   166 C1C      3.4494  23.2419   2.3289   C.3       4 RES4   0.0000
   167 C2A     -1.3940  24.9499  13.9109   C.3       4 RES4   0.0000
   168 C2B     -4.0188  19.5371   3.4300   C.3       4 RES4   0.0000
   169 C2C      4.0188  22.3251   3.4300   C.3       4 RES4   0.0000
   170 H4A     -1.7498  24.7029  13.0317   H         4 RES4   0.0000
   171 H4B     -3.7718  19.1813   4.3092   H         4 RES4   0.0000
   172 H4C      3.7718  22.6809   4.3092   H         4 RES4   0.0000
   173 H5A     -0.4919  24.5815  14.0132   H         4 RES4   0.0000
   174 H5B     -3.6504  20.4392   3.3277   H         4 RES4   0.0000
   175 H5C      3.6504  21.4230   3.3277   H         4 RES4   0.0000
   176 H6A     -1.3584  25.9274  13.9872   H         4 RES4   0.0000
   177 H6B     -4.9963  19.5727   3.3537   H         4 RES4   0.0000
   178 H6C      4.9963  22.2895   3.3537   H         4 RES4   0.0000
   179 C3A     -3.7383  25.0001  14.9062   C.3       4 RES4   0.0000
   180 C3B     -4.0690  17.1928   2.4347   C.3       4 RES4   0.0000
   181 C3C      4.0690  24.6694   2.4347   C.3       4 RES4   0.0000
   182 H7A     -4.3034  24.6422  15.6224   H         4 RES4   0.0000
   183 H7B     -3.7111  16.6277   1.7185   H         4 RES4   0.0000
   184 H7C      3.7111  25.2345   1.7185   H         4 RES4   0.0000
   185 H8A     -4.1297  24.7740  14.0375   H         4 RES4   0.0000
   186 H8B     -3.8429  16.8014   3.3034   H         4 RES4   0.0000
   187 H8C      3.8429  25.0608   3.3034   H         4 RES4   0.0000
   188 H9A     -3.6797  25.9755  14.9947   H         4 RES4   0.0000
   189 H9B     -5.0444  17.2514   2.3462   H         4 RES4   0.0000
   190 H9C      5.0444  24.6108   2.3462   H         4 RES4   0.0000
   191 C4A     -1.7624  24.7238  16.4184   C.3       4 RES4   0.0000
   192 C4B     -3.7927  19.1687   0.9225   C.3       4 RES4   0.0000
   193 C4C      3.7927  22.6935   0.9225   C.3       4 RES4   0.0000
   194 H10A    -2.3506  24.3408  17.1016   H         4 RES4   0.0000
   195 H10B    -3.4097  18.5805   0.2393   H         4 RES4   0.0000
   196 H10C     3.4097  23.2817   0.2393   H         4 RES4   0.0000
   197 H11A    -1.7268  25.6971  16.5259   H         4 RES4   0.0000
   198 H11B    -4.7660  19.2043   0.8150   H         4 RES4   0.0000
   199 H11C     4.7660  22.6579   0.8150   H         4 RES4   0.0000
   200 H12A    -0.8624  24.3512  16.5172   H         4 RES4   0.0000
   201 H12B    -3.4201  20.0687   0.8237   H         4 RES4   0.0000
   202 H12C     3.4201  21.7935   0.8237   H         4 RES4   0.0000
   203 C5A     -2.9911  26.0843   9.7092   C.3       4 RES4   0.0000
   204 C5B     -5.1532  17.9400   7.6317   C.3       4 RES4   0.0000
   205 C5C      5.1532  23.9222   7.6317   C.3       4 RES4   0.0000
   206 C6A     -2.7713  26.8358  11.0219   C.3       4 RES4   0.0000
   207 C6B     -5.9047  18.1598   6.3190   C.3       4 RES4   0.0000
   208 C6C      5.9047  23.7024   6.3190   C.3       4 RES4   0.0000
   209 H13A    -1.8147  26.8483  11.2369   H         4 RES4   0.0000
   210 H13B    -5.9172  19.1164   6.1040   H         4 RES4   0.0000
   211 H13C     5.9172  22.7458   6.1040   H         4 RES4   0.0000
   212 H14A    -3.2632  26.3878  11.7415   H         4 RES4   0.0000
   213 H14B    -5.4567  17.6679   5.5994   H         4 RES4   0.0000
   214 H14C     5.4567  24.1943   5.5994   H         4 RES4   0.0000
   215 H15A    -3.0957  27.7567  10.9282   H         4 RES4   0.0000
   216 H15B    -6.8256  17.8354   6.4127   H         4 RES4   0.0000
   217 H15C     6.8256  24.0268   6.4127   H         4 RES4   0.0000
   218 C7A     -4.4562  26.0697   9.3658   C.3       4 RES4   0.0000
   219 C7B     -5.1386  16.4749   7.9751   C.3       4 RES4   0.0000
   220 C7C      5.1386  25.3873   7.9751   C.3       4 RES4   0.0000
   221 H16A    -4.9565  25.6343  10.0872   H         4 RES4   0.0000
   222 H16B    -4.7032  15.9746   7.2537   H         4 RES4   0.0000
   223 H16C     4.7032  25.8876   7.2537   H         4 RES4   0.0000
   224 H17A    -4.5902  25.5757   8.5317   H         4 RES4   0.0000
   225 H17B    -4.6446  16.3409   8.8092   H         4 RES4   0.0000
   226 H17C     4.6446  25.5213   8.8092   H         4 RES4   0.0000
   227 H18A    -4.7744  26.9907   9.2566   H         4 RES4   0.0000
   228 H18B    -6.0596  16.1567   8.0843   H         4 RES4   0.0000
   229 H18C     6.0596  25.7055   8.0843   H         4 RES4   0.0000
   230 C8A     -2.2271  26.7876   8.5439   C.3       4 RES4   0.0000
   231 C8B     -5.8565  18.7040   8.7970   C.3       4 RES4   0.0000
   232 C8C      5.8565  23.1582   8.7970   C.3       4 RES4   0.0000
   233 H19A    -1.2684  26.8148   8.7502   H         4 RES4   0.0000
   234 H19B    -5.8837  19.6627   8.5907   H         4 RES4   0.0000
   235 H19C     5.8837  22.1995   8.5907   H         4 RES4   0.0000
   236 H20A    -2.5641  27.7023   8.4381   H         4 RES4   0.0000
   237 H20B    -6.7712  18.3670   8.9028   H         4 RES4   0.0000
   238 H20C     6.7712  23.4952   8.9028   H         4 RES4   0.0000
   239 H21A    -2.3673  26.2895   7.7132   H         4 RES4   0.0000
   240 H21B    -5.3584  18.5638   9.6277   H         4 RES4   0.0000
   241 H21C     5.3584  23.2984   9.6277   H         4 RES4   0.0000
   242 C9A     -3.3741  17.7663  13.4479   C.3       4 RES4   0.0000
   243 C9B      3.1648  17.5570   3.8930   C.3       4 RES4   0.0000
   244 C9C     -3.1648  24.3052   3.8930   C.3       4 RES4   0.0000
   245 C10A    -2.4971  16.7721  14.2369   C.3       4 RES4   0.0000
   246 C10B     4.1590  18.4340   3.1040   C.3       4 RES4   0.0000
   247 C10C    -4.1590  23.4282   3.1040   C.3       4 RES4   0.0000
   248 H22A    -1.9068  17.2682  14.8438   H         4 RES4   0.0000
   249 H22B     3.6629  19.0243   2.4971   H         4 RES4   0.0000
   250 H22C    -3.6629  22.8379   2.4971   H         4 RES4   0.0000
   251 H23A    -1.9550  16.2467  13.6126   H         4 RES4   0.0000
   252 H23B     4.6844  18.9761   3.7283   H         4 RES4   0.0000
   253 H23C    -4.6844  22.8861   3.7283   H         4 RES4   0.0000
   254 H24A    -3.0706  16.1735  14.7588   H         4 RES4   0.0000
   255 H24B     4.7576  17.8605   2.5821   H         4 RES4   0.0000
   256 H24C    -4.7576  24.0017   2.5821   H         4 RES4   0.0000
   257 C11A    -4.1841  18.5784  14.4467   C.3       4 RES4   0.0000
   258 C11B     2.3527  16.7470   2.8942   C.3       4 RES4   0.0000
   259 C11C    -2.3527  25.1152   2.8942   C.3       4 RES4   0.0000
   260 H25A    -3.5771  19.0536  15.0502   H         4 RES4   0.0000
   261 H25B     1.8775  17.3540   2.2907   H         4 RES4   0.0000
   262 H25C    -1.8775  24.5082   2.2907   H         4 RES4   0.0000
   263 H26A    -4.7597  17.9777  14.9669   H         4 RES4   0.0000
   264 H26B     2.9534  16.1714   2.3740   H         4 RES4   0.0000
   265 H26C    -2.9534  25.6908   2.3740   H         4 RES4   0.0000
   266 H27A    -4.7409  19.2252  13.9664   H         4 RES4   0.0000
   267 H27B     1.7059  16.1902   3.3745   H         4 RES4   0.0000
   268 H27C    -1.7059  25.6720   3.3745   H         4 RES4   0.0000
   269 C12A    -4.2951  17.0128  12.5149   C.3       4 RES4   0.0000
   270 C12B     3.9183  16.6360   4.8260   C.3       4 RES4   0.0000
   271 C12C    -3.9183  25.2262   4.8260   C.3       4 RES4   0.0000
   272 H28A    -3.7613  16.4979  11.8733   H         4 RES4   0.0000
   273 H28B     4.4332  17.1698   5.4676   H         4 RES4   0.0000
   274 H28C    -4.4332  24.6924   5.4676   H         4 RES4   0.0000
   275 H29A    -4.8623  17.6470  12.0311   H         4 RES4   0.0000
   276 H29B     3.2841  16.0688   5.3098   H         4 RES4   0.0000
   277 H29C    -3.2841  25.7934   5.3098   H         4 RES4   0.0000
   278 H30A    -4.8581  16.4016  13.0352   H         4 RES4   0.0000
   279 H30B     4.5295  16.0730   4.3057   H         4 RES4   0.0000
   280 H30C    -4.5295  25.7892   4.3057   H         4 RES4   0.0000
   281 C13A    -6.0951  20.9164  11.5126   C.2       4 RES4   0.0000
   282 C13B     0.0147  14.8360   5.8283   C.2       4 RES4   0.0000
   283 C13C    -0.0147  27.0262   5.8283   C.2       4 RES4   0.0000
   284 H31A    -5.6660  20.1022  11.2785   H         4 RES4   0.0000
   285 H31B     0.8289  15.2651   6.0624   H         4 RES4   0.0000
   286 H31C    -0.8289  26.5971   6.0624   H         4 RES4   0.0000
   287 C14A    -7.4766  20.9206  11.5716   C.2       4 RES4   0.0000
   288 C14B     0.0105  13.4545   5.7693   C.2       4 RES4   0.0000
   289 C14C    -0.0105  28.4077   5.7693   C.2       4 RES4   0.0000
   290 H32A    -7.9831  20.1462  11.3583   H         4 RES4   0.0000
   291 H32B     0.7849  12.9480   5.9826   H         4 RES4   0.0000
   292 H32C    -0.7849  28.9142   5.9826   H         4 RES4   0.0000
   293 C15A    -8.0752  22.0635  11.9427   C.2       4 RES4   0.0000
   294 C15B    -1.1324  12.8559   5.3982   C.2       4 RES4   0.0000
   295 C15C     1.1324  29.0063   5.3982   C.2       4 RES4   0.0000
   296 H33A    -9.0213  22.0907  12.0207   H         4 RES4   0.0000
   297 H33B    -1.1596  11.9098   5.3202   H         4 RES4   0.0000
   298 H33C     1.1596  29.9524   5.3202   H         4 RES4   0.0000
   299 C16A    -7.3280  23.2272  12.2201   C.2       4 RES4   0.0000
   300 C16B    -2.2961  13.6031   5.1208   C.2       4 RES4   0.0000
   301 C16C     2.2961  28.2591   5.1208   C.2       4 RES4   0.0000
   302 H34A    -7.7340  24.0498  12.4612   H         4 RES4   0.0000
   303 H34B    -3.1187  13.1971   4.8797   H         4 RES4   0.0000
   304 H34C     3.1187  28.6651   4.8797   H         4 RES4   0.0000
   305 C17A    -5.9319  23.0724  12.1109   C.2       4 RES4   0.0000
   306 C17B    -2.1413  14.9992   5.2300   C.2       4 RES4   0.0000
   307 C17C     2.1413  26.8630   5.2300   C.2       4 RES4   0.0000
   308 H35A    -5.3877  23.8259  12.3051   H         4 RES4   0.0000
   309 H35B    -2.8948  15.5434   5.0358   H         4 RES4   0.0000
   310 H35C     2.8948  26.3188   5.0358   H         4 RES4   0.0000
   311 C18A    -5.7540  22.0363   6.4057   C.2       4 RES4   0.0000
   312 C18B    -1.1052  15.1771  10.9352   C.2       4 RES4   0.0000
   313 C18C     1.1052  26.6851  10.9352   C.2       4 RES4   0.0000
   314 H36A    -5.2432  21.6197   5.7225   H         4 RES4   0.0000
   315 H36B    -0.6886  15.6879  11.6184   H         4 RES4   0.0000
   316 H36C     0.6886  26.1743  11.6184   H         4 RES4   0.0000
   317 C19A    -7.0894  22.2832   6.1820   C.2       4 RES4   0.0000
   318 C19B    -1.3521  13.8417  11.1589   C.2       4 RES4   0.0000
   319 C19C     1.3521  28.0205  11.1589   C.2       4 RES4   0.0000
   320 H37A    -7.5101  22.0195   5.3722   H         4 RES4   0.0000
   321 H37B    -1.0884  13.4210  11.9687   H         4 RES4   0.0000
   322 H37C     1.0884  28.4412  11.9687   H         4 RES4   0.0000
   323 C20A    -7.7947  22.9363   7.1878   C.2       4 RES4   0.0000
   324 C20B    -2.0052  13.1364  10.1531   C.2       4 RES4   0.0000
   325 C20C     2.0052  28.7258  10.1531   C.2       4 RES4   0.0000
   326 H38A    -8.7178  23.1331   7.0716   H         4 RES4   0.0000
   327 H38B    -2.2020  12.2133  10.2693   H         4 RES4   0.0000
   328 H38C     2.2020  29.6489  10.2693   H         4 RES4   0.0000
   329 C21A    -7.1710  23.2900   8.3306   C.2       4 RES4   0.0000
   330 C21B    -2.3589  13.7601   9.0103   C.2       4 RES4   0.0000
   331 C21C     2.3589  28.1021   9.0103   C.2       4 RES4   0.0000
   332 H39A    -7.6503  23.7421   9.0138   H         4 RES4   0.0000
   333 H39B    -2.8110  13.2808   8.3271   H         4 RES4   0.0000
   334 H39C     2.8110  28.5814   8.3271   H         4 RES4   0.0000
   335 C22A    -5.8461  22.9970   8.5040   C.2       4 RES4   0.0000
   336 C22B    -2.0659  15.0850   8.8369   C.2       4 RES4   0.0000
   337 C22C     2.0659  26.7772   8.8369   C.2       4 RES4   0.0000
   338 H40A    -5.4149  23.2503   9.3121   H         4 RES4   0.0000
   339 H40B    -2.3192  15.5162   8.0288   H         4 RES4   0.0000
   340 H40C     2.3192  26.3460   8.0288   H         4 RES4   0.0000
@<TRIPOS>BOND
     1     1     2    1
     2     3     4   ar
     3     4     5    1
     4     6     1   ar
     5     7     6    1
     6     8     3   ar
     7     9     8    1
     8    10     1   ar
     9    11    10    1
    10     4     6   ar
    11     8    10   ar
    12    14    21   un
    13    15    27   un
    14    16    24   un
    15    17    21   un
    16    18    25   un
    17    19    28   un
    18    20    35   un
    19    22    17    1
    20    23    22    1
    21    24    17   un
    22    25   101   un
    23    26    14   un
    24    27    18   un
    25    28   102   un
    26    29    16   un
    27    30    14   un
    28    31    14    1
    29    32    31    1
    30    33    14    1
    31    34    33    1
    32    35    15   un
    33    36    14   un
    34    37    15   un
    35    38    17    1
    36    39    38    1
    37    40    39    1
    38    41    39    1
    39    42    39    1
    40    43    38    1
    41    44    43    1
    42    45    43    1
    43    46    43    1
    44    47    38    1
    45    48    47    1
    46    49    47    1
    47    50    47    1
    48    51    18    1
    49    52    51    1
    50    53    52    1
    51    54    52    1
    52    55    52    1
    53    56    51    1
    54    57    56    1
    55    58    56    1
    56    59    56    1
    57    60    51    1
    58    61    60    1
    59    62    60    1
    60    63    60    1
    61    64    19    1
    62    65    64    1
    63    66    65    1
    64    67    65    1
    65    68    65    1
    66    69    64    1
    67    70    69    1
    68    71    69    1
    69    72    69    1
    70    73    64    1
    71    74    73    1
    72    75    73    1
    73    76    73    1
    74    77    36   un
    75    78    77    1
    76    79    77   un
    77    80    79    1
    78    81    79   un
    79    82    81    1
    80    83    81   un
    81    84    83    1
    82    85    36   un
    83    86    85    1
    84    87    37   un
    85    88    87    1
    86    89    87   un
    87    90    89    1
    88    91    89   un
    89    92    91    1
    90    93    91   un
    91    94    93    1
    92    95    37   un
    93    96    95    1
    94    97   113   un
    95    98   114   un
    96    99   115   un
    97   100   126   un
    98   101   132   un
    99   102   125   un
   100   103   123   un
   101   104   113   un
   102   105   114   un
   103   106   115   un
   104   107   125   un
   105   108   126   un
   106   109   127   un
   107   110   134   un
   108   111   135   un
   109   112   136   un
   110   116   104    1
   111   117   105    1
   112   118   106    1
   113   119   116    1
   114   120   117    1
   115   121   118    1
   116   122    16   un
   117   123   105   un
   118   124   103   un
   119   127    15   un
   120   128    97   un
   121   129    98   un
   122   130    99   un
   123   131   100   un
   124   132   108   un
   125   133   102   un
   126   134   101   un
   127   135    15   un
   128   136   100   un
   129   137    16   un
   130   138   103   un
   131   139   103   un
   132   140    97   un
   133   141    98   un
   134   142    99   un
   135   143    16    1
   136   144    98    1
   137   145    99    1
   138   146   143    1
   139   147   144    1
   140   148   145    1
   141   149    97    1
   142   150    98    1
   143   151    99    1
   144   152   149    1
   145   153   150    1
   146   154   151    1
   147   155    20   un
   148   156    20   un
   149   157    20   un
   150   158    97   un
   151   159    98   un
   152   160    99   un
   153   161   100   un
   154   162   101   un
   155   163   102   un
   156   164   104    1
   157   165   105    1
   158   166   106    1
   159   167   164    1
   160   168   165    1
   161   169   166    1
   162   170   167    1
   163   171   168    1
   164   172   169    1
   165   173   167    1
   166   174   168    1
   167   175   169    1
   168   176   167    1
   169   177   168    1
   170   178   169    1
   171   179   164    1
   172   180   165    1
   173   181   166    1
   174   182   179    1
   175   183   180    1
   176   184   181    1
   177   185   179    1
   178   186   180    1
   179   187   181    1
   180   188   179    1
   181   189   180    1
   182   190   181    1
   183   191   164    1
   184   192   165    1
   185   193   166    1
   186   194   191    1
   187   195   192    1
   188   196   193    1
   189   197   191    1
   190   198   192    1
   191   199   193    1
   192   200   191    1
   193   201   192    1
   194   202   193    1
   195   203   107    1
   196   204   108    1
   197   205   109    1
   198   206   203    1
   199   207   204    1
   200   208   205    1
   201   209   206    1
   202   210   207    1
   203   211   208    1
   204   212   206    1
   205   213   207    1
   206   214   208    1
   207   215   206    1
   208   216   207    1
   209   217   208    1
   210   218   203    1
   211   219   204    1
   212   220   205    1
   213   221   218    1
   214   222   219    1
   215   223   220    1
   216   224   218    1
   217   225   219    1
   218   226   220    1
   219   227   218    1
   220   228   219    1
   221   229   220    1
   222   230   203    1
   223   231   204    1
   224   232   205    1
   225   233   230    1
   226   234   231    1
   227   235   232    1
   228   236   230    1
   229   237   231    1
   230   238   232    1
   231   239   230    1
   232   240   231    1
   233   241   232    1
   234   242   110    1
   235   243   111    1
   236   244   112    1
   237   245   242    1
   238   246   243    1
   239   247   244    1
   240   248   245    1
   241   249   246    1
   242   250   247    1
   243   251   245    1
   244   252   246    1
   245   253   247    1
   246   254   245    1
   247   255   246    1
   248   256   247    1
   249   257   242    1
   250   258   243    1
   251   259   244    1
   252   260   257    1
   253   261   258    1
   254   262   259    1
   255   263   257    1
   256   264   258    1
   257   265   259    1
   258   266   257    1
   259   267   258    1
   260   268   259    1
   261   269   242    1
   262   270   243    1
   263   271   244    1
   264   272   269    1
   265   273   270    1
   266   274   271    1
   267   275   269    1
   268   276   270    1
   269   277   271    1
   270   278   269    1
   271   279   270    1
   272   280   271    1
   273   281   158   un
   274   282   159   un
   275   283   160   un
   276   284   281    1
   277   285   282    1
   278   286   283    1
   279   287   281   un
   280   288   282   un
   281   289   283   un
   282   290   287    1
   283   291   288    1
   284   292   289    1
   285   293   287   un
   286   294   288   un
   287   295   289   un
   288   296   293    1
   289   297   294    1
   290   298   295    1
   291   299   293   un
   292   300   294   un
   293   301   295   un
   294   302   299    1
   295   303   300    1
   296   304   301    1
   297   305   158   un
   298   306   159   un
   299   307   160   un
   300   308   305    1
   301   309   306    1
   302   310   307    1
   303   311   161   un
   304   312   162   un
   305   313   163   un
   306   314   311    1
   307   315   312    1
   308   316   313    1
   309   317   311   un
   310   318   312   un
   311   319   313   un
   312   320   317    1
   313   321   318    1
   314   322   319    1
   315   323   317   un
   316   324   318   un
   317   325   319   un
   318   326   323    1
   319   327   324    1
   320   328   325    1
   321   329   323   un
   322   330   324   un
   323   331   325   un
   324   332   329    1
   325   333   330    1
   326   334   331    1
   327   335   161   un
   328   336   162   un
   329   337   163   un
   330   338   335    1
   331   339   336    1
   332   340   337    1
   333    15    33    1
   334    16    31    1
   335    18    26   un
   336    19    29   un
   337    19    30   un
   338    83    85   un
   339    93    95   un
   340    97   143    1
   341   100   149    1
   342   100   155   un
   343   101   150    1
   344   101   156   un
   345   102   151    1
   346   102   157   un
   347   103   144    1
   348   103   145    1
   349   104   122   un
   350   106   124   un
   351   107   128   un
   352   107   131   un
   353   108   129   un
   354   109   130   un
   355   109   133   un
   356   110   137   un
   357   110   140   un
   358   111   138   un
   359   111   141   un
   360   112   139   un
   361   112   142   un
   362   299   305   un
   363   300   306   un
   364   301   307   un
   365   329   335   un
   366   330   336   un
   367   331   337   un
@<TRIPOS>SUBSTRUCTURE
     1 RES1        1 GROUP             0 ****  ****    0  
     2 RES2       12 GROUP             0 ****  ****    0  
     3 RES3       13 GROUP             0 ****  ****    0  
     4 RES4       14 GROUP             0 ****  ****    0  
@<TRIPOS>CRYSIN
   20.9311   20.9311   17.3409   90.0000   90.0000   90.0000    82     1
