@<TRIPOS>MOLECULE
HONZEQ
   111   116     4     0     0
SMALL
USER_CHARGES
****
Generated from the CSD

@<TRIPOS>ATOM
     1 Fe1      3.8263   0.9962   3.6428   Fe        1 RES1   2.0000
     2 P1       2.1072   1.6516   2.2000   P.3       1 RES1   0.0000
     3 P2       4.6517  -0.9064   2.5980   P.3       1 RES1   0.0000
     4 N1       3.4060   2.6567   4.8017   N.3       1 RES1   0.0000
     5 H1       3.9053   3.3530   4.4411   H         1 RES1   0.0000
     6 N2       5.2620   0.6649   5.1206   N.3       1 RES1   0.0000
     7 H2       4.9183  -0.0027   5.6693   H         1 RES1   0.0000
     8 N3       2.5465   0.0027   4.6659   N.1       1 RES1   0.0000
     9 N4       5.0660   2.0396   2.6707   N.1       1 RES1   0.0000
    10 C1       3.9598   2.4192   6.1698   C.3       1 RES1   0.0000
    11 H3       3.4082   1.7557   6.6571   H         1 RES1   0.0000
    12 H4       3.9714   3.2629   6.6898   H         1 RES1   0.0000
    13 C2       5.3595   1.9004   5.9738   C.3       1 RES1   0.0000
    14 H5       5.9173   2.5830   5.5256   H         1 RES1   0.0000
    15 H6       5.7699   1.6820   6.8479   H         1 RES1   0.0000
    16 C3       2.0195   3.1591   4.9024   C.3       1 RES1   0.0000
    17 H7       1.9259   3.7148   5.7164   H         1 RES1   0.0000
    18 H8       1.3948   2.3946   4.9781   H         1 RES1   0.0000
    19 C4       6.6123   0.2307   4.7469   C.3       1 RES1   0.0000
    20 H9       7.2479   0.4765   5.4655   H         1 RES1   0.0000
    21 H10      6.8914   0.6990   3.9198   H         1 RES1   0.0000
    22 C5       1.6919  -0.5352   5.2146   C.1       1 RES1   0.0000
    23 C6       0.5983  -1.2055   5.8836   C.3       1 RES1   0.0000
    24 H11     -0.0555  -0.5406   6.1854   H         1 RES1   0.0000
    25 H12      0.9432  -1.6983   6.6571   H         1 RES1   0.0000
    26 H13      0.1676  -1.8294   5.2630   H         1 RES1   0.0000
    27 C7       5.8196   2.6499   2.0605   C.1       1 RES1   0.0000
    28 C8       6.7689   3.3871   1.2269   C.3       1 RES1   0.0000
    29 H14      7.3319   2.7536   0.7356   H         1 RES1   0.0000
    30 H15      7.3332   3.9509   1.7966   H         1 RES1   0.0000
    31 H16      6.2782   3.9496   0.5932   H         1 RES1   0.0000
    32 C9       1.6608   3.4185   2.4028   C.ar      1 RES1   0.0000
    33 C10      1.3261   4.2472   1.3262   C.ar      1 RES1   0.0000
    34 H17      1.2735   3.8759   0.4547   H         1 RES1   0.0000
    35 C11      1.0718   5.5865   1.5013   C.ar      1 RES1   0.0000
    36 H18      0.8792   6.1326   0.7474   H         1 RES1   0.0000
    37 C12      1.0953   6.1490   2.7817   C.ar      1 RES1   0.0000
    38 H19      0.9200   7.0732   2.9111   H         1 RES1   0.0000
    39 C13      1.3822   5.3175   3.8584   C.ar      1 RES1   0.0000
    40 H20      1.3765   5.6834   4.7351   H         1 RES1   0.0000
    41 C14      1.6779   3.9714   3.6951   C.ar      1 RES1   0.0000
    42 C15      5.7453  -1.9140   3.6781   C.ar      1 RES1   0.0000
    43 C16      5.8442  -3.2861   3.5513   C.ar      1 RES1   0.0000
    44 H21      5.2211  -3.7434   2.9999   H         1 RES1   0.0000
    45 C17      6.8277  -4.0151   4.2059   C.ar      1 RES1   0.0000
    46 H22      6.8577  -4.9612   4.1171   H         1 RES1   0.0000
    47 C18      7.7685  -3.3584   4.9925   C.ar      1 RES1   0.0000
    48 H23      8.4733  -3.8417   5.4080   H         1 RES1   0.0000
    49 C19      7.6594  -1.9973   5.1545   C.ar      1 RES1   0.0000
    50 H24      8.2791  -1.5468   5.7164   H         1 RES1   0.0000
    51 C20      6.6645  -1.2601   4.5195   C.ar      1 RES1   0.0000
    52 C21      0.4712   0.8273   2.4394   C.ar      1 RES1   0.0000
    53 C22     -0.6431   1.5564   2.8497   C.ar      1 RES1   0.0000
    54 H25     -0.5842   2.4997   2.9438   H         1 RES1   0.0000
    55 C23     -1.8392   0.9079   3.1202   C.ar      1 RES1   0.0000
    56 H26     -2.5949   1.4130   3.3985   H         1 RES1   0.0000
    57 C24     -1.9424  -0.4437   2.9921   C.ar      1 RES1   0.0000
    58 H27     -2.7592  -0.8806   3.1985   H         1 RES1   0.0000
    59 C25     -0.8537  -1.1768   2.5596   C.ar      1 RES1   0.0000
    60 H28     -0.9352  -2.1161   2.4459   H         1 RES1   0.0000
    61 C26      0.3416  -0.5597   2.2957   C.ar      1 RES1   0.0000
    62 H29      1.0873  -1.0772   2.0135   H         1 RES1   0.0000
    63 C27      2.4103   1.6055   0.4024   C.ar      1 RES1   0.0000
    64 C28      3.3001   2.5284  -0.1542   C.ar      1 RES1   0.0000
    65 H30      3.7487   3.1496   0.4077   H         1 RES1   0.0000
    66 C29      3.5353   2.5448  -1.5379   C.ar      1 RES1   0.0000
    67 H31      4.1332   3.1837  -1.9076   H         1 RES1   0.0000
    68 C30      2.9021   1.6355  -2.3649   C.ar      1 RES1   0.0000
    69 H32      3.0569   1.6506  -3.3018   H         1 RES1   0.0000
    70 C31      2.0446   0.7099  -1.8188   C.ar      1 RES1   0.0000
    71 H33      1.6136   0.0805  -2.3845   H         1 RES1   0.0000
    72 C32      1.8014   0.6812  -0.4573   C.ar      1 RES1   0.0000
    73 H34      1.2141   0.0259  -0.1006   H         1 RES1   0.0000
    74 C33      3.4490  -2.1775   2.0448   C.ar      1 RES1   0.0000
    75 C34      2.7530  -2.8738   3.0444   C.ar      1 RES1   0.0000
    76 H35      2.9750  -2.7250   3.9564   H         1 RES1   0.0000
    77 C35      1.7489  -3.7735   2.7256   C.ar      1 RES1   0.0000
    78 H36      1.2828  -4.2349   3.4115   H         1 RES1   0.0000
    79 C36      1.4320  -3.9905   1.3915   C.ar      1 RES1   0.0000
    80 H37      0.7410  -4.6022   1.1668   H         1 RES1   0.0000
    81 C37      2.1138  -3.3216   0.3815   C.ar      1 RES1   0.0000
    82 H38      1.8960  -3.4868  -0.5279   H         1 RES1   0.0000
    83 C38      3.1137  -2.4123   0.7016   C.ar      1 RES1   0.0000
    84 H39      3.5727  -1.9495   0.0105   H         1 RES1   0.0000
    85 C39      5.8127  -0.6198   1.1916   C.ar      1 RES1   0.0000
    86 C40      7.1743  -0.8710   1.3236   C.ar      1 RES1   0.0000
    87 H40      7.5047  -1.2519   2.1298   H         1 RES1   0.0000
    88 C41      8.0629  -0.5720   0.2888   C.ar      1 RES1   0.0000
    89 H41      8.9929  -0.7290   0.4090   H         1 RES1   0.0000
    90 C42      7.6114  -0.0491  -0.9094   C.ar      1 RES1   0.0000
    91 H42      8.2194   0.1433  -1.6136   H         1 RES1   0.0000
    92 C43      6.2445   0.1898  -1.0636   C.ar      1 RES1   0.0000
    93 H43      5.9166   0.5338  -1.8854   H         1 RES1   0.0000
    94 C44      5.3600  -0.0696  -0.0222   C.ar      1 RES1   0.0000
    95 H44      4.4367   0.1270  -0.1320   H         1 RES1   0.0000
    96 B1       3.5687  -0.6935   8.4432   B         2 RES2  -1.0000
    97 F1       2.2569  -0.3181   8.2080   F         2 RES2   0.0000
    98 F2       4.2519   0.3672   8.9332   F         2 RES2   0.0000
    99 F3       4.1335  -1.1577   7.2503   F         2 RES2   0.0000
   100 F4       3.5784  -1.7570   9.3578   F         2 RES2   0.0000
   101 B2       9.3762   1.8540   7.1941   B         3 RES3  -1.0000
   102 F5       8.5249   0.9447   7.7403   F         3 RES3   0.0000
   103 F6       9.5308   2.9543   8.0147   F         3 RES3   0.0000
   104 F7      10.6445   1.3133   7.0386   F         3 RES3   0.0000
   105 F8       8.8777   2.2936   5.9934   F         3 RES3   0.0000
   106 N5       9.4921   4.3018   2.8863   N.1       4 RES4   0.0000
   107 C45      9.9890   4.5134   3.9015   C.1       4 RES4   0.0000
   108 C46     10.6505   4.7660   5.1388   C.3       4 RES4   0.0000
   109 H45     11.5128   4.3018   5.1493   H         4 RES4   0.0000
   110 H46     10.0952   4.4411   5.8784   H         4 RES4   0.0000
   111 H47     10.7974   5.7298   5.2408   H         4 RES4   0.0000
@<TRIPOS>BOND
     1     1     2    1
     2     2    32    1
     3     3     1    1
     4     4     1    1
     5     5     4    1
     6     6     1    1
     7     7     6    1
     8     8     1    1
     9     9     1    1
    10    10     4    1
    11    11    10    1
    12    12    10    1
    13    13     6    1
    14    14    13    1
    15    15    13    1
    16    16     4    1
    17    17    16    1
    18    18    16    1
    19    19     6    1
    20    20    19    1
    21    21    19    1
    22    22     8    3
    23    23    22    1
    24    24    23    1
    25    25    23    1
    26    26    23    1
    27    27     9    3
    28    28    27    1
    29    29    28    1
    30    30    28    1
    31    31    28    1
    32    32    33   ar
    33    33    34    1
    34    35    33   ar
    35    36    35    1
    36    37    35   ar
    37    38    37    1
    38    39    37   ar
    39    40    39    1
    40    41    16    1
    41    42     3    1
    42    43    42   ar
    43    44    43    1
    44    45    43   ar
    45    46    45    1
    46    47    45   ar
    47    48    47    1
    48    49    47   ar
    49    50    49    1
    50    51    19    1
    51    52     2    1
    52    53    52   ar
    53    54    53    1
    54    55    53   ar
    55    56    55    1
    56    57    55   ar
    57    58    57    1
    58    59    57   ar
    59    60    59    1
    60    61    52   ar
    61    62    61    1
    62    63     2    1
    63    64    63   ar
    64    65    64    1
    65    66    64   ar
    66    67    66    1
    67    68    66   ar
    68    69    68    1
    69    70    68   ar
    70    71    70    1
    71    72    63   ar
    72    73    72    1
    73    74     3    1
    74    75    74   ar
    75    76    75    1
    76    77    75   ar
    77    78    77    1
    78    79    77   ar
    79    80    79    1
    80    81    79   ar
    81    82    81    1
    82    83    74   ar
    83    84    83    1
    84    85     3    1
    85    86    85   ar
    86    87    86    1
    87    88    86   ar
    88    89    88    1
    89    90    88   ar
    90    91    90    1
    91    92    90   ar
    92    93    92    1
    93    94    85   ar
    94    95    94    1
    95    10    13    1
    96    32    41   ar
    97    39    41   ar
    98    42    51   ar
    99    49    51   ar
   100    59    61   ar
   101    70    72   ar
   102    81    83   ar
   103    92    94   ar
   104    96    97    1
   105    98    96    1
   106    99    96    1
   107   100    96    1
   108   101   102    1
   109   103   101    1
   110   104   101    1
   111   105   101    1
   112   106   107    3
   113   107   108    1
   114   108   109    1
   115   110   108    1
   116   111   108    1
@<TRIPOS>SUBSTRUCTURE
     1 RES1        1 GROUP             0 ****  ****    0  
     2 RES2       96 GROUP             0 ****  ****    0  
     3 RES3      101 GROUP             0 ****  ****    0  
     4 RES4      106 GROUP             0 ****  ****    0  
@<TRIPOS>CRYSIN
   12.5831   13.6522   13.7334   90.0000  107.9360   90.0000     4     1
