@<TRIPOS>MOLECULE
HONZUG
   130   134     5     0     0
SMALL
USER_CHARGES
****
Generated from the CSD

@<TRIPOS>ATOM
     1 Fe1      4.3022   5.4355   5.4203   Fe        1 RES1   2.0000
     2 P1       2.9756   7.1115   4.6197   P.3       1 RES1   0.0000
     3 P2       2.7669   3.8145   5.8386   P.3       1 RES1   0.0000
     4 N1       5.9459   6.5844   5.1049   N.2       1 RES1   0.0000
     5 N2       5.7001   4.2220   6.2244   N.2       1 RES1   0.0000
     6 N3       4.5823   4.8044   3.6331   N.1       1 RES1   0.0000
     7 N4       4.0560   6.1230   7.1962   N.1       1 RES1   0.0000
     8 C1       7.1442   6.1126   5.8465   C.3       1 RES1   0.0000
     9 H1       7.9537   6.4081   5.3391   H         1 RES1   0.0000
    10 C2       7.1109   4.5797   5.8191   C.3       1 RES1   0.0000
    11 H2       7.7343   4.2393   6.5207   H         1 RES1   0.0000
    12 C3       7.2386   6.7071   7.2605   C.3       1 RES1   0.0000
    13 H3       6.5832   6.2301   7.8457   H         1 RES1   0.0000
    14 C4       6.9123   8.1778   7.2853   C.3       1 RES1   0.0000
    15 H4       5.9833   8.3126   7.0029   H         1 RES1   0.0000
    16 H5       7.5122   8.6565   6.6727   H         1 RES1   0.0000
    17 H6       7.0303   8.5234   8.1932   H         1 RES1   0.0000
    18 C5       8.6522   6.4617   7.8140   C.3       1 RES1   0.0000
    19 H7       8.6938   6.7572   8.7493   H         1 RES1   0.0000
    20 H8       9.3034   6.9663   7.2809   H         1 RES1   0.0000
    21 H9       8.8605   5.5060   7.7631   H         1 RES1   0.0000
    22 C6       7.5122   3.9489   4.4637   C.3       1 RES1   0.0000
    23 H10      7.0775   4.4622   3.7230   H         1 RES1   0.0000
    24 C7       7.0984   2.4972   4.3712   C.3       1 RES1   0.0000
    25 H11      7.4080   2.1239   3.5188   H         1 RES1   0.0000
    26 H12      6.1208   2.4333   4.4224   H         1 RES1   0.0000
    27 H13      7.4955   1.9961   5.1132   H         1 RES1   0.0000
    28 C8       9.0354   4.0716   4.3312   C.3       1 RES1   0.0000
    29 H14      9.3215   3.6845   3.4754   H         1 RES1   0.0000
    30 H15      9.4673   3.5912   5.0697   H         1 RES1   0.0000
    31 H16      9.2923   5.0169   4.3660   H         1 RES1   0.0000
    32 C9       6.1819   7.4658   4.1904   C.2       1 RES1   0.0000
    33 H17      7.0942   7.7095   4.0879   H         1 RES1   0.0000
    34 C10      5.6251   3.3976   7.2184   C.2       1 RES1   0.0000
    35 H18      6.4555   3.0952   7.5676   H         1 RES1   0.0000
    36 C11      5.2488   8.1432   3.2895   C.ar      1 RES1   0.0000
    37 C12      5.8834   8.9607   2.3415   C.ar      1 RES1   0.0000
    38 H19      6.8318   8.9762   2.2938   H         1 RES1   0.0000
    39 C13      5.1363   9.7487   1.4679   C.ar      1 RES1   0.0000
    40 H20      5.5709  10.3087   0.8341   H         1 RES1   0.0000
    41 C14      3.7422   9.7038   1.5353   C.ar      1 RES1   0.0000
    42 H21      3.2243  10.2413   0.9470   H         1 RES1   0.0000
    43 C15      3.1104   8.8829   2.4501   C.ar      1 RES1   0.0000
    44 H22      2.1620   8.8501   2.4762   H         1 RES1   0.0000
    45 C16      3.8533   8.0948   3.3390   C.ar      1 RES1   0.0000
    46 C17      4.4365   2.8740   7.8752   C.ar      1 RES1   0.0000
    47 C18      4.6864   2.0911   9.0108   C.ar      1 RES1   0.0000
    48 H23      5.5834   1.9684   9.3010   H         1 RES1   0.0000
    49 C19      3.6742   1.4966   9.7128   C.ar      1 RES1   0.0000
    50 H24      3.8713   0.9661  10.4739   H         1 RES1   0.0000
    51 C20      2.3633   1.6712   9.3101   C.ar      1 RES1   0.0000
    52 H25      1.6566   1.2685   9.8006   H         1 RES1   0.0000
    53 C21      2.0856   2.4333   8.1893   C.ar      1 RES1   0.0000
    54 H26      1.1831   2.5404   7.9108   H         1 RES1   0.0000
    55 C22      3.1021   3.0451   7.4586   C.ar      1 RES1   0.0000
    56 C23      1.4274   6.7365   3.7404   C.ar      1 RES1   0.0000
    57 C24      0.1847   7.2480   4.0406   C.ar      1 RES1   0.0000
    58 H27      0.0930   7.8494   4.7700   H         1 RES1   0.0000
    59 C25     -0.9262   6.9041   3.3077   C.ar      1 RES1   0.0000
    60 H28     -1.7718   7.2722   3.5319   H         1 RES1   0.0000
    61 C26     -0.8206   6.0106   2.2308   C.ar      1 RES1   0.0000
    62 H29     -1.5927   5.7497   1.7420   H         1 RES1   0.0000
    63 C27      0.4180   5.5164   1.8910   C.ar      1 RES1   0.0000
    64 H30      0.5165   4.9288   1.1512   H         1 RES1   0.0000
    65 C28      1.5219   5.8862   2.6430   C.ar      1 RES1   0.0000
    66 H31      2.3745   5.5458   2.3980   H         1 RES1   0.0000
    67 C29      2.6216   8.4094   5.8604   C.ar      1 RES1   0.0000
    68 C30      3.4742   9.4895   5.9837   C.ar      1 RES1   0.0000
    69 H32      4.1921   9.6053   5.3738   H         1 RES1   0.0000
    70 C31      3.2687  10.4175   7.0294   C.ar      1 RES1   0.0000
    71 H33      3.8547  11.1607   7.1158   H         1 RES1   0.0000
    72 C32      2.2273  10.2637   7.9256   C.ar      1 RES1   0.0000
    73 H34      2.0884  10.9083   8.6059   H         1 RES1   0.0000
    74 C33      1.3941   9.1715   7.8287   C.ar      1 RES1   0.0000
    75 H35      0.6943   9.0471   8.4582   H         1 RES1   0.0000
    76 C34      1.5816   8.2573   6.8100   C.ar      1 RES1   0.0000
    77 H36      0.9998   7.5107   6.7466   H         1 RES1   0.0000
    78 C35      2.8299   2.3296   4.7817   C.ar      1 RES1   0.0000
    79 C36      3.1201   1.0628   5.3000   C.ar      1 RES1   0.0000
    80 H37      3.3131   0.9764   6.2253   H         1 RES1   0.0000
    81 C37      3.1312  -0.0691   4.4985   C.ar      1 RES1   0.0000
    82 H38      3.3409  -0.9159   4.8786   H         1 RES1   0.0000
    83 C38      2.8368   0.0328   3.1305   C.ar      1 RES1   0.0000
    84 H39      2.8313  -0.7414   2.5805   H         1 RES1   0.0000
    85 C39      2.5536   1.2685   2.6018   C.ar      1 RES1   0.0000
    86 H40      2.3647   1.3463   1.6725   H         1 RES1   0.0000
    87 C40      2.5383   2.4143   3.4002   C.ar      1 RES1   0.0000
    88 H41      2.3314   3.2559   3.0106   H         1 RES1   0.0000
    89 C41      0.9845   4.2030   5.9668   C.ar      1 RES1   0.0000
    90 C42      0.0222   3.7415   5.0745   C.ar      1 RES1   0.0000
    91 H42      0.2819   3.1730   4.3616   H         1 RES1   0.0000
    92 C43     -1.2955   4.0958   5.2074   C.ar      1 RES1   0.0000
    93 H43     -1.9384   3.7588   4.5919   H         1 RES1   0.0000
    94 C44     -1.6954   4.9340   6.2248   C.ar      1 RES1   0.0000
    95 H44     -2.6036   5.2019   6.2991   H         1 RES1   0.0000
    96 C45     -0.7512   5.3799   7.1406   C.ar      1 RES1   0.0000
    97 H45     -1.0192   5.9467   7.8544   H         1 RES1   0.0000
    98 C46      0.5763   5.0083   7.0207   C.ar      1 RES1   0.0000
    99 H46      1.2108   5.3038   7.6632   H         1 RES1   0.0000
   100 C47      4.8142   4.5054   2.5670   C.1       1 RES1   0.0000
   101 C48      5.1183   4.0993   1.1786   C.3       1 RES1   0.0000
   102 H47      5.7653   4.7249   0.7906   H         1 RES1   0.0000
   103 H48      4.2948   4.1096   0.6473   H         1 RES1   0.0000
   104 H49      5.4960   3.1954   1.1773   H         1 RES1   0.0000
   105 C49      3.9630   6.6034   8.2184   C.1       1 RES1   0.0000
   106 C50      3.8824   7.2912   9.5160   C.3       1 RES1   0.0000
   107 H50      4.4531   6.8315  10.1655   H         1 RES1   0.0000
   108 H51      2.9549   7.2826   9.8310   H         1 RES1   0.0000
   109 H52      4.1851   8.2175   9.4139   H         1 RES1   0.0000
   110 F1       8.6550   4.2652   1.0061   F         2 RES2   0.0000
   111 F2       9.7866   6.1938   0.7772   F         2 RES2   0.0000
   112 F3       7.7829   5.9346  -0.1994   F         2 RES2   0.0000
   113 F4       7.9426   6.1230   2.0261   F         2 RES2   0.0000
   114 B1       8.5633   5.6460   0.9127   B         2 RES2  -1.0000
   115 F5       6.0583   5.2554  10.2302   F         3 RES3   0.0000
   116 F6       7.6052   3.7726   9.9287   F         3 RES3   0.0000
   117 B2       6.9429   4.5572  10.8606   B         3 RES3  -1.0000
   118 F5C      7.8274   5.2554  11.4909   F         3 RES3   0.0000
   119 F6C      6.2805   3.7726  11.7924   F         3 RES3   0.0000
   120 F7       0.9415   8.0102  11.4079   F         4 RES4   0.0000
   121 F8      -0.5818   6.5326  11.8389   F         4 RES4   0.0000
   122 B3       0.0000   7.2826  10.8606   B         4 RES4  -1.0000
   123 F7C     -0.9415   8.0102  10.3132   F         4 RES4   0.0000
   124 F8C      0.5818   6.5326   9.8823   F         4 RES4   0.0000
   125 N5       1.1414   2.3884  12.3928   N.1       5 RES5   0.0000
   126 C51      1.7579   3.2905  11.9922   C.1       5 RES5   0.0000
   127 C52      2.5675   4.3775  11.4874   C.3       5 RES5   0.0000
   128 H53      3.2312   4.6315  12.1638   H         5 RES5   0.0000
   129 H54      1.9940   5.1448  11.2863   H         5 RES5   0.0000
   130 H55      3.0271   4.0889  10.6694   H         5 RES5   0.0000
@<TRIPOS>BOND
     1     1     2    1
     2     2    45    1
     3     3     1    1
     4     4     1    1
     5     5     1    1
     6     6     1    1
     7     7     1    1
     8     8     4    1
     9     9     8    1
    10    10     5    1
    11    11    10    1
    12    12     8    1
    13    13    12    1
    14    14    12    1
    15    15    14    1
    16    16    14    1
    17    17    14    1
    18    18    12    1
    19    19    18    1
    20    20    18    1
    21    21    18    1
    22    22    10    1
    23    23    22    1
    24    24    22    1
    25    25    24    1
    26    26    24    1
    27    27    24    1
    28    28    22    1
    29    29    28    1
    30    30    28    1
    31    31    28    1
    32    32     4    2
    33    33    32    1
    34    34     5    2
    35    35    34    1
    36    36    32    1
    37    37    36   ar
    38    38    37    1
    39    39    37   ar
    40    40    39    1
    41    41    39   ar
    42    42    41    1
    43    43    41   ar
    44    44    43    1
    45    45    36   ar
    46    46    34    1
    47    47    46   ar
    48    48    47    1
    49    49    47   ar
    50    50    49    1
    51    51    49   ar
    52    52    51    1
    53    53    51   ar
    54    54    53    1
    55    55     3    1
    56    56     2    1
    57    57    56   ar
    58    58    57    1
    59    59    57   ar
    60    60    59    1
    61    61    59   ar
    62    62    61    1
    63    63    61   ar
    64    64    63    1
    65    65    56   ar
    66    66    65    1
    67    67     2    1
    68    68    67   ar
    69    69    68    1
    70    70    68   ar
    71    71    70    1
    72    72    70   ar
    73    73    72    1
    74    74    72   ar
    75    75    74    1
    76    76    67   ar
    77    77    76    1
    78    78     3    1
    79    79    78   ar
    80    80    79    1
    81    81    79   ar
    82    82    81    1
    83    83    81   ar
    84    84    83    1
    85    85    83   ar
    86    86    85    1
    87    87    78   ar
    88    88    87    1
    89    89     3    1
    90    90    89   ar
    91    91    90    1
    92    92    90   ar
    93    93    92    1
    94    94    92   ar
    95    95    94    1
    96    96    94   ar
    97    97    96    1
    98    98    89   ar
    99    99    98    1
   100   100     6    3
   101   101   100    1
   102   102   101    1
   103   103   101    1
   104   104   101    1
   105   105     7    3
   106   106   105    1
   107   107   106    1
   108   108   106    1
   109   109   106    1
   110     8    10    1
   111    43    45   ar
   112    46    55   ar
   113    53    55   ar
   114    63    65   ar
   115    74    76   ar
   116    85    87   ar
   117    96    98   ar
   118   110   114    1
   119   111   114    1
   120   112   114    1
   121   113   114    1
   122   115   117    1
   123   116   117    1
   124   117   118    1
   125   119   117    1
   126   120   122    1
   127   121   122    1
   128   122   123    1
   129   124   122    1
   130   125   126    3
   131   126   127    1
   132   127   128    1
   133   129   127    1
   134   130   127    1
@<TRIPOS>SUBSTRUCTURE
     1 RES1        1 GROUP             0 ****  ****    0  
     2 RES2      110 GROUP             0 ****  ****    0  
     3 RES3      115 GROUP             0 ****  ****    0  
     4 RES4      120 GROUP             0 ****  ****    0  
     5 RES5      125 GROUP             0 ****  ****    0  
@<TRIPOS>CRYSIN
   13.8857   17.2819   43.4423   90.0000   90.0000   90.0000    20     1
