@<TRIPOS>MOLECULE
HOVVIY
   102   109     2     0     0
SMALL
USER_CHARGES
****
Generated from the CSD

@<TRIPOS>ATOM
     1 Fe1      7.0924   7.0924   0.0000   Fe        1 RES1   2.0000
     2 P1       5.8325   6.4913   1.7768   P.3       1 RES1   0.0000
     3 N1       7.9819   8.2966   1.2880   N.2       1 RES1   0.0000
     4 N2       8.4509   5.7923   0.3400   N.1       1 RES1   0.0000
     5 C1       6.3801   7.7610   2.9871   C.3       1 RES1   0.0000
     6 H1       5.6522   8.4153   3.1345   H         1 RES1   0.0000
     7 H2       6.5855   7.3276   3.8517   H         1 RES1   0.0000
     8 C2       7.5996   8.4735   2.4787   C.2       1 RES1   0.0000
     9 H3       8.0840   9.0553   3.0515   H         1 RES1   0.0000
    10 C3       9.2038   8.9342   0.7438   C.3       1 RES1   0.0000
    11 H4       9.9459   8.2669   0.8002   H         1 RES1   0.0000
    12 C4       9.2845   5.0573   0.4908   C.1       1 RES1   0.0000
    13 C5      10.3995   4.0586   0.6242   C.3       1 RES1   0.0000
    14 H5      10.0504   3.1574   0.4615   H         1 RES1   0.0000
    15 H6      10.7747   4.1061   1.5274   H         1 RES1   0.0000
    16 H7      11.0989   4.2605  -0.0332   H         1 RES1   0.0000
    17 C6       4.0301   6.6354   1.7605   C.ar      1 RES1   0.0000
    18 C7       3.3177   6.5142   0.5831   C.ar      1 RES1   0.0000
    19 H8       3.7927   6.4109  -0.2324   H         1 RES1   0.0000
    20 C8       1.9438   6.5392   0.5512   C.ar      1 RES1   0.0000
    21 H9       1.4890   6.4442  -0.2756   H         1 RES1   0.0000
    22 C9       1.2207   6.6995   1.7167   C.ar      1 RES1   0.0000
    23 H10      0.2707   6.7209   1.6934   H         1 RES1   0.0000
    24 C10      1.8999   6.8289   2.9150   C.ar      1 RES1   0.0000
    25 H11      1.4178   6.9405   3.7256   H         1 RES1   0.0000
    26 C11      3.2868   6.7945   2.9303   C.ar      1 RES1   0.0000
    27 H12      3.7416   6.8823   3.7588   H         1 RES1   0.0000
    28 C12      6.1188   4.9124   2.6517   C.ar      1 RES1   0.0000
    29 C13      5.1772   3.9019   2.5860   C.ar      1 RES1   0.0000
    30 H13      4.3531   4.0337   2.1317   H         1 RES1   0.0000
    31 C14      5.4693   2.6753   3.2072   C.ar      1 RES1   0.0000
    32 H14      4.8352   1.9699   3.1644   H         1 RES1   0.0000
    33 C15      6.6734   2.4746   3.8883   C.ar      1 RES1   0.0000
    34 H15      6.8633   1.6470   4.3133   H         1 RES1   0.0000
    35 C16      7.5485   3.4863   3.9205   C.ar      1 RES1   0.0000
    36 H16      8.3631   3.3676   4.3930   H         1 RES1   0.0000
    37 C17      7.3169   4.6939   3.2956   C.ar      1 RES1   0.0000
    38 H17      7.9807   5.3719   3.3105   H         1 RES1   0.0000
    39 C18      9.6776  10.2012   1.4158   C.ar      1 RES1   0.0000
    40 C19     11.0217  10.3473   1.6954   C.ar      1 RES1   0.0000
    41 H18     11.6059   9.6063   1.5905   H         1 RES1   0.0000
    42 C20     11.5276  11.5549   2.1251   C.ar      1 RES1   0.0000
    43 H19     12.4585  11.6451   2.2911   H         1 RES1   0.0000
    44 C21     10.6750  12.6544   2.3164   C.ar      1 RES1   0.0000
    45 H20     11.0217  13.4868   2.6132   H         1 RES1   0.0000
    46 C22      9.2940  12.5048   2.0593   C.ar      1 RES1   0.0000
    47 H21      8.6967  13.2303   2.2015   H         1 RES1   0.0000
    48 C23      8.8226  11.2901   1.6005   C.ar      1 RES1   0.0000
    49 H22      7.8976  11.1927   1.4079   H         1 RES1   0.0000
    50 P1F      6.4913   5.8325  -1.7768   P.3       1 RES1   0.0000
    51 N1F      8.2966   7.9819  -1.2880   N.2       1 RES1   0.0000
    52 N2F      5.7923   8.4509  -0.3400   N.1       1 RES1   0.0000
    53 C1F      7.7610   6.3801  -2.9871   C.3       1 RES1   0.0000
    54 H1F      8.4153   5.6522  -3.1345   H         1 RES1   0.0000
    55 H2F      7.3276   6.5855  -3.8517   H         1 RES1   0.0000
    56 C2F      8.4735   7.5996  -2.4787   C.2       1 RES1   0.0000
    57 H3F      9.0553   8.0840  -3.0515   H         1 RES1   0.0000
    58 C3F      8.9342   9.2038  -0.7438   C.3       1 RES1   0.0000
    59 H4F      8.2669   9.9459  -0.8002   H         1 RES1   0.0000
    60 C4F      5.0573   9.2845  -0.4908   C.1       1 RES1   0.0000
    61 C5F      4.0586  10.3995  -0.6242   C.3       1 RES1   0.0000
    62 H5F      3.1574  10.0504  -0.4615   H         1 RES1   0.0000
    63 H6F      4.1061  10.7747  -1.5274   H         1 RES1   0.0000
    64 H7F      4.2605  11.0989   0.0332   H         1 RES1   0.0000
    65 C6F      6.6354   4.0301  -1.7605   C.ar      1 RES1   0.0000
    66 C7F      6.5142   3.3177  -0.5831   C.ar      1 RES1   0.0000
    67 H8F      6.4109   3.7927   0.2324   H         1 RES1   0.0000
    68 C8F      6.5392   1.9438  -0.5512   C.ar      1 RES1   0.0000
    69 H9F      6.4442   1.4890   0.2756   H         1 RES1   0.0000
    70 C9F      6.6995   1.2207  -1.7167   C.ar      1 RES1   0.0000
    71 H10F     6.7209   0.2707  -1.6934   H         1 RES1   0.0000
    72 C10F     6.8289   1.8999  -2.9150   C.ar      1 RES1   0.0000
    73 H11F     6.9405   1.4178  -3.7256   H         1 RES1   0.0000
    74 C11F     6.7945   3.2868  -2.9303   C.ar      1 RES1   0.0000
    75 H12F     6.8823   3.7416  -3.7588   H         1 RES1   0.0000
    76 C12F     4.9124   6.1188  -2.6517   C.ar      1 RES1   0.0000
    77 C13F     3.9019   5.1772  -2.5860   C.ar      1 RES1   0.0000
    78 H13F     4.0337   4.3531  -2.1317   H         1 RES1   0.0000
    79 C14F     2.6753   5.4693  -3.2072   C.ar      1 RES1   0.0000
    80 H14F     1.9699   4.8352  -3.1644   H         1 RES1   0.0000
    81 C15F     2.4746   6.6734  -3.8883   C.ar      1 RES1   0.0000
    82 H15F     1.6470   6.8633  -4.3133   H         1 RES1   0.0000
    83 C16F     3.4863   7.5485  -3.9205   C.ar      1 RES1   0.0000
    84 H16F     3.3676   8.3631  -4.3930   H         1 RES1   0.0000
    85 C17F     4.6939   7.3169  -3.2956   C.ar      1 RES1   0.0000
    86 H17F     5.3719   7.9807  -3.3105   H         1 RES1   0.0000
    87 C18F    10.2012   9.6776  -1.4158   C.ar      1 RES1   0.0000
    88 C19F    10.3473  11.0217  -1.6954   C.ar      1 RES1   0.0000
    89 H18F     9.6063  11.6059  -1.5905   H         1 RES1   0.0000
    90 C20F    11.5549  11.5276  -2.1251   C.ar      1 RES1   0.0000
    91 H19F    11.6451  12.4585  -2.2911   H         1 RES1   0.0000
    92 C21F    12.6544  10.6750  -2.3164   C.ar      1 RES1   0.0000
    93 H20F    13.4868  11.0217  -2.6132   H         1 RES1   0.0000
    94 C22F    12.5048   9.2940  -2.0593   C.ar      1 RES1   0.0000
    95 H21F    13.2303   8.6967  -2.2015   H         1 RES1   0.0000
    96 C23F    11.2901   8.8226  -1.6005   C.ar      1 RES1   0.0000
    97 H22F    11.1927   7.8976  -1.4079   H         1 RES1   0.0000
    98 F1       3.2488  11.4255   2.8659   F         2 RES2   0.0000
    99 F2       4.0990   9.7678   4.0476   F         2 RES2   0.0000
   100 F3       4.4422  11.7461   4.6141   F         2 RES2   0.0000
   101 F4       5.4064  10.9457   2.7437   F         2 RES2   0.0000
   102 B1       4.2878  10.9647   3.5695   B         2 RES2  -1.0000
@<TRIPOS>BOND
     1     1     2    1
     2     2     5    1
     3     3     1    1
     4     4     1    1
     5     5     6    1
     6     7     5    1
     7     8     3    2
     8     9     8    1
     9    10     3    1
    10    11    10    1
    11    12     4    3
    12    13    12    1
    13    14    13    1
    14    15    13    1
    15    16    13    1
    16    17     2    1
    17    18    17   ar
    18    19    18    1
    19    20    18   ar
    20    21    20    1
    21    22    20   ar
    22    23    22    1
    23    24    22   ar
    24    25    24    1
    25    26    17   ar
    26    27    26    1
    27    28     2    1
    28    29    28   ar
    29    30    29    1
    30    31    29   ar
    31    32    31    1
    32    33    31   ar
    33    34    33    1
    34    35    33   ar
    35    36    35    1
    36    37    28   ar
    37    38    37    1
    38    39    10    1
    39    40    39   ar
    40    41    40    1
    41    42    40   ar
    42    43    42    1
    43    44    42   ar
    44    45    44    1
    45    46    44   ar
    46    47    46    1
    47    48    39   ar
    48    49    48    1
    49    50     1    1
    50    51     1    1
    51    52     1    1
    52    53    50    1
    53    54    53    1
    54    55    53    1
    55    56    51    2
    56    57    56    1
    57    58    10    1
    58    59    58    1
    59    60    52    3
    60    61    60    1
    61    62    61    1
    62    63    61    1
    63    64    61    1
    64    65    50    1
    65    66    65   ar
    66    67    66    1
    67    68    66   ar
    68    69    68    1
    69    70    68   ar
    70    71    70    1
    71    72    70   ar
    72    73    72    1
    73    74    65   ar
    74    75    74    1
    75    76    50    1
    76    77    76   ar
    77    78    77    1
    78    79    77   ar
    79    80    79    1
    80    81    79   ar
    81    82    81    1
    82    83    81   ar
    83    84    83    1
    84    85    76   ar
    85    86    85    1
    86    87    58    1
    87    88    87   ar
    88    89    88    1
    89    90    88   ar
    90    91    90    1
    91    92    90   ar
    92    93    92    1
    93    94    92   ar
    94    95    94    1
    95    96    87   ar
    96    97    96    1
    97     5     8    1
    98    24    26   ar
    99    35    37   ar
   100    46    48   ar
   101    51    58    1
   102    53    56    1
   103    72    74   ar
   104    83    85   ar
   105    94    96   ar
   106    98   102    1
   107    99   102    1
   108   100   102    1
   109   101   102    1
@<TRIPOS>SUBSTRUCTURE
     1 RES1        1 GROUP             0 ****  ****    0  
     2 RES2       98 GROUP             0 ****  ****    0  
@<TRIPOS>CRYSIN
   11.8743   11.8743   33.2046   90.0000   90.0000   90.0000    96     1
