@<TRIPOS>MOLECULE
HOXXEZ
   127   134     1     0     0
SMALL
NO_CHARGES
****
Generated from the CSD

@<TRIPOS>ATOM
     1 Fe1      7.4513   7.1954   6.2678   Fe        1 RES1   0.0000
     2 S1      11.5038   5.1505   4.4644   S.2       1 RES1   0.0000
     3 C1      10.2157   5.9264   5.1017   C.1       1 RES1   0.0000
     4 N1       9.3104   6.4425   5.5472   N.2       1 RES1   0.0000
     5 N2       8.1997   9.3002   5.8090   N.ar      1 RES1   0.0000
     6 C2       9.4210   9.5836   5.3171   C.ar      1 RES1   0.0000
     7 H1      10.0799   8.9000   5.3289   H         1 RES1   0.0000
     8 C3       9.7676  10.8166   4.7950   C.ar      1 RES1   0.0000
     9 H2      10.6442  10.9582   4.4576   H         1 RES1   0.0000
    10 C4       8.8371  11.8480   4.7614   C.ar      1 RES1   0.0000
    11 C5       7.5922  11.5700   5.3054   C.ar      1 RES1   0.0000
    12 H3       6.9268  12.2477   5.3339   H         1 RES1   0.0000
    13 C6       7.3137  10.3127   5.8062   C.ar      1 RES1   0.0000
    14 H4       6.4502  10.1552   6.1688   H         1 RES1   0.0000
    15 C7       9.1350  13.1778   4.1143   C.3       1 RES1   0.0000
    16 H5      10.0938  13.3904   4.2358   H         1 RES1   0.0000
    17 H6       8.6072  13.8834   4.5642   H         1 RES1   0.0000
    18 C8       8.8037  13.1788   2.6124   C.3       1 RES1   0.0000
    19 H7       9.0443  14.0607   2.2313   H         1 RES1   0.0000
    20 H8       9.3587  12.4939   2.1611   H         1 RES1   0.0000
    21 C9       7.3292  12.8962   2.3147   C.3       1 RES1   0.0000
    22 H9       7.1101  11.9782   2.6137   H         1 RES1   0.0000
    23 H10      6.7689  13.5255   2.8343   H         1 RES1   0.0000
    24 C10      6.9918  13.0312   0.8503   C.ar      1 RES1   0.0000
    25 C11      6.9668  11.9343   0.0119   C.ar      1 RES1   0.0000
    26 H11      7.1686  11.0742   0.3623   H         1 RES1   0.0000
    27 C12      6.6503  12.0652  -1.3339   C.ar      1 RES1   0.0000
    28 H12      6.6402  11.2985  -1.8941   H         1 RES1   0.0000
    29 C13      6.3515  13.3028  -1.8594   C.ar      1 RES1   0.0000
    30 H13      6.1241  13.3907  -2.7779   H         1 RES1   0.0000
    31 C14      6.3852  14.3973  -1.0514   C.ar      1 RES1   0.0000
    32 H14      6.1945  15.2553  -1.4128   H         1 RES1   0.0000
    33 C15      6.6976  14.2732   0.3029   C.ar      1 RES1   0.0000
    34 H15      6.7076  15.0454   0.8562   H         1 RES1   0.0000
    35 N3       8.2494   7.2954   8.3524   N.ar      1 RES1   0.0000
    36 C16      9.4758   7.7537   8.6342   C.ar      1 RES1   0.0000
    37 H16     10.0481   7.9849   7.9125   H         1 RES1   0.0000
    38 C17      9.9491   7.9078   9.9275   C.ar      1 RES1   0.0000
    39 H17     10.8275   8.2401  10.0748   H         1 RES1   0.0000
    40 C18      9.1430   7.5774  11.0089   C.ar      1 RES1   0.0000
    41 C19      7.8812   7.0908  10.7155   C.ar      1 RES1   0.0000
    42 H18      7.2933   6.8414  11.4186   H         1 RES1   0.0000
    43 C20      7.4744   6.9667   9.4009   C.ar      1 RES1   0.0000
    44 H19      6.6019   6.6319   9.2287   H         1 RES1   0.0000
    45 C21      9.6148   7.7397  12.4370   C.3       1 RES1   0.0000
    46 H20      8.8592   8.0568  12.9919   H         1 RES1   0.0000
    47 H21     10.3227   8.4311  12.4666   H         1 RES1   0.0000
    48 C22     10.1617   6.4400  13.0361   C.3       1 RES1   0.0000
    49 H22      9.4602   5.7424  13.0094   H         1 RES1   0.0000
    50 H23     10.9295   6.1242  12.4955   H         1 RES1   0.0000
    51 C23     10.6098   6.6569  14.4781   C.3       1 RES1   0.0000
    52 H24     11.4059   7.2460  14.4736   H         1 RES1   0.0000
    53 H25      9.8891   7.1346  14.9612   H         1 RES1   0.0000
    54 C24     10.9511   5.3958  15.2508   C.ar      1 RES1   0.0000
    55 C25     10.9920   5.4362  16.6437   C.ar      1 RES1   0.0000
    56 H26     10.8306   6.2581  17.0910   H         1 RES1   0.0000
    57 C26     11.2639   4.2957  17.3881   C.ar      1 RES1   0.0000
    58 H27     11.2841   4.3445  18.3370   H         1 RES1   0.0000
    59 C27     11.5036   3.1029  16.7624   C.ar      1 RES1   0.0000
    60 H28     11.6695   2.3194  17.2728   H         1 RES1   0.0000
    61 C28     11.5004   3.0481  15.3838   C.ar      1 RES1   0.0000
    62 H29     11.6883   2.2287  14.9411   H         1 RES1   0.0000
    63 C29     11.2228   4.1938  14.6385   C.ar      1 RES1   0.0000
    64 H30     11.2217   4.1430  13.6901   H         1 RES1   0.0000
    65 S1A      3.3987   9.2403   8.0712   S.2       1 RES1   0.0000
    66 C1A      4.6869   8.4645   7.4338   C.1       1 RES1   0.0000
    67 N1A      5.5921   7.9483   6.9883   N.2       1 RES1   0.0000
    68 N2A      6.7028   5.0907   6.7266   N.ar      1 RES1   0.0000
    69 C2A      5.4815   4.8072   7.2185   C.ar      1 RES1   0.0000
    70 H1A      4.8226   5.4909   7.2067   H         1 RES1   0.0000
    71 C3A      5.1349   3.5742   7.7406   C.ar      1 RES1   0.0000
    72 H2A      4.2584   3.4326   8.0779   H         1 RES1   0.0000
    73 C4A      6.0654   2.5429   7.7742   C.ar      1 RES1   0.0000
    74 C5A      7.3103   2.8208   7.2301   C.ar      1 RES1   0.0000
    75 H3A      7.9758   2.1432   7.2017   H         1 RES1   0.0000
    76 C6A      7.5889   4.0782   6.7293   C.ar      1 RES1   0.0000
    77 H4A      8.4523   4.2356   6.3668   H         1 RES1   0.0000
    78 C7A      5.7675   1.2130   8.4213   C.3       1 RES1   0.0000
    79 H5A      4.8087   1.0005   8.2998   H         1 RES1   0.0000
    80 H6A      6.2953   0.5074   7.9714   H         1 RES1   0.0000
    81 C8A      6.0988   1.2120   9.9232   C.3       1 RES1   0.0000
    82 H7A      5.8582   0.3301  10.3042   H         1 RES1   0.0000
    83 H8A      5.5439   1.8970  10.3744   H         1 RES1   0.0000
    84 C9A      7.5733   1.4946  10.2209   C.3       1 RES1   0.0000
    85 H9A      7.7924   2.4127   9.9219   H         1 RES1   0.0000
    86 H10A     8.1336   0.8654   9.7013   H         1 RES1   0.0000
    87 C10A     7.9107   1.3596  11.6853   C.ar      1 RES1   0.0000
    88 C11A     7.9358   2.4565  12.5237   C.ar      1 RES1   0.0000
    89 H11A     7.7339   3.3166  12.1733   H         1 RES1   0.0000
    90 C12A     8.2522   2.3256  13.8695   C.ar      1 RES1   0.0000
    91 H12A     8.2623   3.0923  14.4297   H         1 RES1   0.0000
    92 C13A     8.5510   1.0880  14.3950   C.ar      1 RES1   0.0000
    93 H13A     8.7784   1.0001  15.3134   H         1 RES1   0.0000
    94 C14A     8.5174  -0.0065  13.5869   C.ar      1 RES1   0.0000
    95 H14A     8.7081  -0.8645  13.9483   H         1 RES1   0.0000
    96 C15A     8.2049   0.1177  12.2327   C.ar      1 RES1   0.0000
    97 H15A     8.1949  -0.6546  11.6794   H         1 RES1   0.0000
    98 N3A      6.6531   7.0954   4.1831   N.ar      1 RES1   0.0000
    99 C16A     5.4268   6.6371   3.9013   C.ar      1 RES1   0.0000
   100 H16A     4.8544   6.4059   4.6231   H         1 RES1   0.0000
   101 C17A     4.9534   6.4831   2.6080   C.ar      1 RES1   0.0000
   102 H17A     4.0750   6.1507   2.4607   H         1 RES1   0.0000
   103 C18A     5.7595   6.8134   1.5267   C.ar      1 RES1   0.0000
   104 C19A     7.0213   7.3000   1.8200   C.ar      1 RES1   0.0000
   105 H18A     7.6092   7.5494   1.1169   H         1 RES1   0.0000
   106 C20A     7.4281   7.4242   3.1346   C.ar      1 RES1   0.0000
   107 H19A     8.3006   7.7589   3.3069   H         1 RES1   0.0000
   108 C21A     5.2877   6.6511   0.0985   C.3       1 RES1   0.0000
   109 H20A     6.0434   6.3340  -0.4563   H         1 RES1   0.0000
   110 H21A     4.5799   5.9597   0.0689   H         1 RES1   0.0000
   111 C22A     4.7409   7.9508  -0.5005   C.3       1 RES1   0.0000
   112 H22A     5.4423   8.6485  -0.4738   H         1 RES1   0.0000
   113 H23A     3.9730   8.2666   0.0401   H         1 RES1   0.0000
   114 C23A     4.2927   7.7339  -1.9425   C.3       1 RES1   0.0000
   115 H24A     3.4967   7.1448  -1.9380   H         1 RES1   0.0000
   116 H25A     5.0134   7.2562  -2.4256   H         1 RES1   0.0000
   117 C24A     3.9514   8.9951  -2.7152   C.ar      1 RES1   0.0000
   118 C25A     3.9105   8.9546  -4.1082   C.ar      1 RES1   0.0000
   119 H26A     4.0719   8.1327  -4.5554   H         1 RES1   0.0000
   120 C26A     3.6386  10.0951  -4.8525   C.ar      1 RES1   0.0000
   121 H27A     3.6184  10.0463  -5.8015   H         1 RES1   0.0000
   122 C27A     3.3989  11.2879  -4.2269   C.ar      1 RES1   0.0000
   123 H28A     3.2330  12.0714  -4.7372   H         1 RES1   0.0000
   124 C28A     3.4021  11.3427  -2.8482   C.ar      1 RES1   0.0000
   125 H29A     3.2143  12.1622  -2.4056   H         1 RES1   0.0000
   126 C29A     3.6797  10.1971  -2.1030   C.ar      1 RES1   0.0000
   127 H30A     3.6808  10.2479  -1.1545   H         1 RES1   0.0000
@<TRIPOS>BOND
     1     1     4    1
     2     2     3    2
     3     3     4    2
     4     5     1    1
     5     6     5   ar
     6     7     6    1
     7     8     6   ar
     8     9     8    1
     9    10     8   ar
    10    11    10   ar
    11    12    11    1
    12    13     5   ar
    13    14    13    1
    14    15    10    1
    15    16    15    1
    16    17    15    1
    17    18    15    1
    18    19    18    1
    19    20    18    1
    20    21    18    1
    21    22    21    1
    22    23    21    1
    23    24    21    1
    24    25    24   ar
    25    26    25    1
    26    27    25   ar
    27    28    27    1
    28    29    27   ar
    29    30    29    1
    30    31    29   ar
    31    32    31    1
    32    33    24   ar
    33    34    33    1
    34    35     1    1
    35    36    35   ar
    36    37    36    1
    37    38    36   ar
    38    39    38    1
    39    40    38   ar
    40    41    40   ar
    41    42    41    1
    42    43    35   ar
    43    44    43    1
    44    45    40    1
    45    46    45    1
    46    47    45    1
    47    48    45    1
    48    49    48    1
    49    50    48    1
    50    51    48    1
    51    52    51    1
    52    53    51    1
    53    54    51    1
    54    55    54   ar
    55    56    55    1
    56    57    55   ar
    57    58    57    1
    58    59    57   ar
    59    60    59    1
    60    61    59   ar
    61    62    61    1
    62    63    54   ar
    63    64    63    1
    64    65    66    2
    65    66    67    2
    66    67     1    1
    67    68     1    1
    68    69    68   ar
    69    70    69    1
    70    71    69   ar
    71    72    71    1
    72    73    71   ar
    73    74    73   ar
    74    75    74    1
    75    76    68   ar
    76    77    76    1
    77    78    73    1
    78    79    78    1
    79    80    78    1
    80    81    78    1
    81    82    81    1
    82    83    81    1
    83    84    81    1
    84    85    84    1
    85    86    84    1
    86    87    84    1
    87    88    87   ar
    88    89    88    1
    89    90    88   ar
    90    91    90    1
    91    92    90   ar
    92    93    92    1
    93    94    92   ar
    94    95    94    1
    95    96    87   ar
    96    97    96    1
    97    98     1    1
    98    99    98   ar
    99   100    99    1
   100   101    99   ar
   101   102   101    1
   102   103   101   ar
   103   104   103   ar
   104   105   104    1
   105   106    98   ar
   106   107   106    1
   107   108   103    1
   108   109   108    1
   109   110   108    1
   110   111   108    1
   111   112   111    1
   112   113   111    1
   113   114   111    1
   114   115   114    1
   115   116   114    1
   116   117   114    1
   117   118   117   ar
   118   119   118    1
   119   120   118   ar
   120   121   120    1
   121   122   120   ar
   122   123   122    1
   123   124   122   ar
   124   125   124    1
   125   126   117   ar
   126   127   126    1
   127    11    13   ar
   128    31    33   ar
   129    41    43   ar
   130    61    63   ar
   131    74    76   ar
   132    94    96   ar
   133   104   106   ar
   134   124   126   ar
@<TRIPOS>SUBSTRUCTURE
     1 RES1        1 GROUP             0 ****  ****    0  
@<TRIPOS>CRYSIN
    9.4304   11.3925   13.1629   72.3110   82.7170   70.4970     2     1
