@<TRIPOS>MOLECULE
HOYFEJ
   210   229     2     0     0
SMALL
USER_CHARGES
****
Generated from the CSD

@<TRIPOS>ATOM
     1 Fe1      4.9722  11.9217   8.6309   Fe        1 RES1  -1.0000
     2 O1       5.8750   9.2516   8.4292   O.2       1 RES1   0.0000
     3 O2       3.8080   9.3867   8.9823   O.2       1 RES1   0.0000
     4 O3       4.5588  14.5167   7.5986   O.2       1 RES1   0.0000
     5 O4       5.5702  14.5391   9.4833   O.2       1 RES1   0.0000
     6 O5       8.4496  15.6149  14.4764   O.2       1 RES1   0.0000
     7 O6      -0.4434  16.2937  11.7778   O.2       1 RES1   0.0000
     8 O7       2.0650  15.4302   2.4211   O.2       1 RES1   0.0000
     9 O8      10.9079  15.5985   5.6393   O.2       1 RES1   0.0000
    10 N1       6.9061  11.8758   9.0885   N.2       1 RES1   0.0000
    11 N2       4.5510  11.9982  10.5747   N.2       1 RES1   0.0000
    12 N3       3.0405  12.0187   8.1796   N.2       1 RES1   0.0000
    13 N4       5.4110  11.8261   6.6934   N.2       1 RES1   0.0000
    14 N5       4.8819   9.9312   8.6936   N.1       1 RES1   0.0000
    15 N6       5.0414  13.8935   8.5670   N.1       1 RES1   0.0000
    16 N7       7.3864  14.1954  13.0926   N.am      1 RES1   0.0000
    17 H1       6.9038  14.1026  12.4194   H         1 RES1   0.0000
    18 N8       0.8351  14.6070  11.0235   N.am      1 RES1   0.0000
    19 H2       1.5041  14.4843  10.5426   H         1 RES1   0.0000
    20 N9       2.4809  14.0752   4.1550   N.am      1 RES1   0.0000
    21 H3       2.6558  13.9574   4.9530   H         1 RES1   0.0000
    22 N10      9.3590  14.0775   6.2483   N.am      1 RES1   0.0000
    23 H4       8.6696  13.8761   6.6596   H         1 RES1   0.0000
    24 C1       7.5704  11.8258  12.8207   C.ar      1 RES1   0.0000
    25 C2       7.9612  11.8631   8.1945   C.2       1 RES1   0.0000
    26 C3       9.2181  11.8855   8.8855   C.2       1 RES1   0.0000
    27 H5      10.0841  11.8924   8.4972   H         1 RES1   0.0000
    28 C4       6.8052  11.8899  11.5357   C.2       1 RES1   0.0000
    29 C5       8.0030  10.5812  13.2900   C.ar      1 RES1   0.0000
    30 H6       7.8967   9.8110  12.7436   H         1 RES1   0.0000
    31 C6       7.4950  11.8933  10.3232   C.2       1 RES1   0.0000
    32 C7       8.9156  11.9004  10.2059   C.2       1 RES1   0.0000
    33 H7       9.5382  11.9111  10.9241   H         1 RES1   0.0000
    34 C8       2.0872  12.1467  10.4611   C.2       1 RES1   0.0000
    35 C9       8.5899  10.4562  14.5471   C.ar      1 RES1   0.0000
    36 H8       8.8837   9.6092  14.8579   H         1 RES1   0.0000
    37 C10      5.4052  11.9743  11.6362   C.2       1 RES1   0.0000
    38 C11      4.6936  12.0086  12.8728   C.2       1 RES1   0.0000
    39 H9       5.0705  11.9764  13.7450   H         1 RES1   0.0000
    40 C12      3.1410  11.8407   5.7418   C.2       1 RES1   0.0000
    41 C13      8.7402  11.5720  15.3312   C.ar      1 RES1   0.0000
    42 H10      9.1143  11.4882  16.2001   H         1 RES1   0.0000
    43 C14      3.3046  12.0679  11.1352   C.2       1 RES1   0.0000
    44 C15      3.3936  12.0870  12.5711   C.2       1 RES1   0.0000
    45 H11      2.6707  12.1471  13.1842   H         1 RES1   0.0000
    46 C16      7.8610  11.7772   6.7977   C.2       1 RES1   0.0000
    47 C17      8.3580  12.8035  14.8768   C.ar      1 RES1   0.0000
    48 H12      8.4883  13.5693  15.4245   H         1 RES1   0.0000
    49 C18      1.9911  12.1392   9.0717   C.2       1 RES1   0.0000
    50 C19      0.7607  12.1989   8.3379   C.2       1 RES1   0.0000
    51 H13     -0.1049  12.3014   8.7162   H         1 RES1   0.0000
    52 C20      7.7741  12.9494  13.6104   C.ar      1 RES1   0.0000
    53 C21      2.4629  11.9649   6.9374   C.2       1 RES1   0.0000
    54 C22      1.0335  12.0944   7.0380   C.2       1 RES1   0.0000
    55 H14      0.4099  12.0987   6.3221   H         1 RES1   0.0000
    56 C23      7.7639  15.4455  13.4893   C.2       1 RES1   0.0000
    57 C24      4.5401  11.7746   5.6319   C.2       1 RES1   0.0000
    58 C25      5.2437  11.7049   4.4083   C.2       1 RES1   0.0000
    59 H15      4.8586  11.6676   3.5402   H         1 RES1   0.0000
    60 C26      7.3310  16.5837  12.5860   C.3       1 RES1   0.0000
    61 C27      6.6546  11.7593   6.1254   C.2       1 RES1   0.0000
    62 C28      6.5497  11.6989   4.6914   C.2       1 RES1   0.0000
    63 H16      7.2664  11.6657   4.0687   H         1 RES1   0.0000
    64 C29      7.5426  17.8748  13.3589   C.3       1 RES1   0.0000
    65 H17      7.2769  18.6355  12.8006   H         1 RES1   0.0000
    66 H18      8.4885  17.9600  13.5985   H         1 RES1   0.0000
    67 H19      6.9982  17.8610  14.1730   H         1 RES1   0.0000
    68 C30      8.2142  16.5501  11.3420   C.3       1 RES1   0.0000
    69 H20      7.9597  17.2823  10.7418   H         1 RES1   0.0000
    70 H21      8.0968  15.6939  10.8804   H         1 RES1   0.0000
    71 H22      9.1521  16.6544  11.6049   H         1 RES1   0.0000
    72 C31      5.8530  16.4717  12.1949   C.3       1 RES1   0.0000
    73 H23      5.5610  17.3083  11.7770   H         1 RES1   0.0000
    74 H24      5.3144  16.3017  12.9965   H         1 RES1   0.0000
    75 H25      5.7369  15.7323  11.5617   H         1 RES1   0.0000
    76 C32      0.8222  12.2325  11.2414   C.ar      1 RES1   0.0000
    77 C33      0.2470  11.0757  11.7312   C.ar      1 RES1   0.0000
    78 H26      0.6442  10.2351  11.5349   H         1 RES1   0.0000
    79 C34     -0.9148  11.1242  12.5134   C.ar      1 RES1   0.0000
    80 H27     -1.2981  10.3217  12.8444   H         1 RES1   0.0000
    81 C35     -1.5053  12.3445  12.8058   C.ar      1 RES1   0.0000
    82 H28     -2.2843  12.3858  13.3480   H         1 RES1   0.0000
    83 C36     -0.9423  13.4976  12.2936   C.ar      1 RES1   0.0000
    84 H29     -1.3500  14.3353  12.4717   H         1 RES1   0.0000
    85 C37      0.2133  13.4453  11.5189   C.ar      1 RES1   0.0000
    86 C38      0.5168  15.9157  11.1334   C.2       1 RES1   0.0000
    87 C39      1.4132  16.9270  10.4238   C.3       1 RES1   0.0000
    88 C40      2.6502  16.2963   9.7478   C.3       1 RES1   0.0000
    89 H30      3.1262  15.7370  10.3944   H         1 RES1   0.0000
    90 H31      3.2461  17.0076   9.4289   H         1 RES1   0.0000
    91 H32      2.3626  15.7482   8.9880   H         1 RES1   0.0000
    92 C41      1.9286  17.9346  11.4667   C.3       1 RES1   0.0000
    93 H33      2.5452  17.4834  12.0796   H         1 RES1   0.0000
    94 H34      1.1726  18.2991  11.9714   H         1 RES1   0.0000
    95 H35      2.3988  18.6653  11.0105   H         1 RES1   0.0000
    96 C42      0.5944  17.6397   9.3958   C.3       1 RES1   0.0000
    97 H36      0.2885  16.9985   8.7211   H         1 RES1   0.0000
    98 H37      1.1388  18.3319   8.9663   H         1 RES1   0.0000
    99 H38     -0.1816  18.0551   9.8272   H         1 RES1   0.0000
   100 C43      2.3809  11.6847   4.4530   C.ar      1 RES1   0.0000
   101 C44      2.0337  10.4290   3.9892   C.ar      1 RES1   0.0000
   102 H39      2.1774   9.6725   4.5455   H         1 RES1   0.0000
   103 C45      1.4788  10.2510   2.7321   C.ar      1 RES1   0.0000
   104 H40      1.2462   9.3806   2.4261   H         1 RES1   0.0000
   105 C46      1.2690  11.3556   1.9294   C.ar      1 RES1   0.0000
   106 H41      0.9216  11.2348   1.0533   H         1 RES1   0.0000
   107 C47      1.5575  12.6393   2.3801   C.ar      1 RES1   0.0000
   108 H42      1.3656  13.3909   1.8352   H         1 RES1   0.0000
   109 C48      2.1256  12.8091   3.6279   C.ar      1 RES1   0.0000
   110 C49      2.4210  15.2813   3.5497   C.2       1 RES1   0.0000
   111 C50      2.8511  16.4531   4.4418   C.3       1 RES1   0.0000
   112 C51      4.3586  16.3560   4.6876   C.3       1 RES1   0.0000
   113 H43      4.8294  16.3542   3.8281   H         1 RES1   0.0000
   114 H44      4.5583  15.5272   5.1711   H         1 RES1   0.0000
   115 H45      4.6524  17.1241   5.2199   H         1 RES1   0.0000
   116 C52      2.5359  17.7592   3.7043   C.3       1 RES1   0.0000
   117 H46      1.5738  17.8117   3.5278   H         1 RES1   0.0000
   118 H47      3.0253  17.7808   2.8547   H         1 RES1   0.0000
   119 H48      2.8092  18.5210   4.2571   H         1 RES1   0.0000
   120 C53      2.1099  16.4269   5.7753   C.3       1 RES1   0.0000
   121 H49      1.1456  16.3791   5.6110   H         1 RES1   0.0000
   122 H50      2.3153  17.2452   6.2764   H         1 RES1   0.0000
   123 H51      2.3948  15.6470   6.2927   H         1 RES1   0.0000
   124 C54      9.1272  11.7101   6.0099   C.ar      1 RES1   0.0000
   125 C55      9.5701  10.5047   5.4885   C.ar      1 RES1   0.0000
   126 H52      9.0845   9.7091   5.6647   H         1 RES1   0.0000
   127 C56     10.7313  10.4562   4.7044   C.ar      1 RES1   0.0000
   128 H53     11.0508   9.6267   4.3676   H         1 RES1   0.0000
   129 C57     11.3992  11.6242   4.4306   C.ar      1 RES1   0.0000
   130 H54     12.1641  11.5954   3.8701   H         1 RES1   0.0000
   131 C58     11.0056  12.8072   4.9297   C.ar      1 RES1   0.0000
   132 H55     11.5017  13.5939   4.7436   H         1 RES1   0.0000
   133 C59      9.8596  12.8669   5.7269   C.ar      1 RES1   0.0000
   134 C60      9.8781  15.3298   6.2204   C.2       1 RES1   0.0000
   135 C61      9.0396  16.4419   6.8648   C.3       1 RES1   0.0000
   136 C62      7.7709  15.9530   7.5278   C.3       1 RES1   0.0000
   137 H56      7.2200  15.4789   6.8700   H         1 RES1   0.0000
   138 H57      7.2719  16.7167   7.8829   H         1 RES1   0.0000
   139 H58      8.0000  15.3427   8.2608   H         1 RES1   0.0000
   140 C63      8.6328  17.4644   5.7548   C.3       1 RES1   0.0000
   141 H59      9.4247  17.7077   5.2302   H         1 RES1   0.0000
   142 H60      8.2567  18.2661   6.1710   H         1 RES1   0.0000
   143 H61      7.9644  17.0563   5.1649   H         1 RES1   0.0000
   144 C64      9.9205  17.1061   7.8872   C.3       1 RES1   0.0000
   145 H62     10.7264  17.4500   7.4506   H         1 RES1   0.0000
   146 H63     10.1736  16.4525   8.5734   H         1 RES1   0.0000
   147 H64      9.4333  17.8460   8.3062   H         1 RES1   0.0000
   148 K1      -1.0417   5.1792   8.5825   K         2 RES2   1.0000
   149 O9      -2.5138   4.8404  10.9844   O.3       2 RES2   0.0000
   150 O10      0.1523   3.8739  10.7926   O.3       2 RES2   0.0000
   151 O11      0.8666   7.2022   8.2187   O.3       2 RES2   0.0000
   152 O12     -1.8705   7.8257   7.9450   O.3       2 RES2   0.0000
   153 O13     -2.8246   3.8937   6.7903   O.3       2 RES2   0.0000
   154 O14     -0.0301   3.5022   6.5091   O.3       2 RES2   0.0000
   155 N11     -3.9796   5.8700   8.6583   N.3       2 RES2   0.0000
   156 N12      1.8963   4.4519   8.5279   N.3       2 RES2   0.0000
   157 C65     -4.4476   5.8588  10.0439   C.3       2 RES2   0.0000
   158 H65     -5.4369   5.8390  10.0482   H         2 RES2   0.0000
   159 H66     -4.1589   6.6940  10.4873   H         2 RES2   0.0000
   160 C66     -3.9275   4.6646  10.8503   C.3       2 RES2   0.0000
   161 H67     -4.3564   4.6392  11.7414   H         2 RES2   0.0000
   162 H68     -4.1260   3.8181  10.3785   H         2 RES2   0.0000
   163 C67     -1.9616   3.8623  11.8672   C.3       2 RES2   0.0000
   164 H69     -2.1038   2.9573  11.4966   H         2 RES2   0.0000
   165 H70     -2.4145   3.9136  12.7466   H         2 RES2   0.0000
   166 C68     -0.5214   4.1123  12.0348   C.3       2 RES2   0.0000
   167 H71     -0.3749   5.0494  12.3211   H         2 RES2   0.0000
   168 H72     -0.1574   3.5148  12.7346   H         2 RES2   0.0000
   169 C69      1.5572   4.0116  10.9341   C.3       2 RES2   0.0000
   170 H73      1.8749   3.4597  11.6919   H         2 RES2   0.0000
   171 H74      1.7843   4.9577  11.1230   H         2 RES2   0.0000
   172 C70      2.2193   3.5712   9.6677   C.3       2 RES2   0.0000
   173 H75      3.2004   3.5612   9.8021   H         2 RES2   0.0000
   174 H76      1.9322   2.6484   9.4560   H         2 RES2   0.0000
   175 C71      2.6712   5.7095   8.5987   C.3       2 RES2   0.0000
   176 H77      3.6087   5.5130   8.3458   H         2 RES2   0.0000
   177 H78      2.6762   6.0217   9.5378   H         2 RES2   0.0000
   178 C72      2.1714   6.8141   7.7364   C.3       2 RES2   0.0000
   179 H79      2.7926   7.5834   7.7758   H         2 RES2   0.0000
   180 H80      2.1101   6.5093   6.7958   H         2 RES2   0.0000
   181 C73      0.4234   8.3777   7.5371   C.3       2 RES2   0.0000
   182 H81      0.2732   8.1830   6.5780   H         2 RES2   0.0000
   183 H82      1.1014   9.0947   7.6114   H         2 RES2   0.0000
   184 C74     -0.8724   8.8068   8.1964   C.3       2 RES2   0.0000
   185 H83     -0.7366   8.9045   9.1729   H         2 RES2   0.0000
   186 H84     -1.1614   9.6809   7.8342   H         2 RES2   0.0000
   187 C75     -3.1257   8.2023   8.5372   C.3       2 RES2   0.0000
   188 H85     -3.3764   9.1145   8.2473   H         2 RES2   0.0000
   189 H86     -3.0493   8.1975   9.5238   H         2 RES2   0.0000
   190 C76     -4.1670   7.2283   8.1033   C.3       2 RES2   0.0000
   191 H87     -5.0550   7.5645   8.3793   H         2 RES2   0.0000
   192 H88     -4.1597   7.1715   7.1146   H         2 RES2   0.0000
   193 C77     -4.7184   4.8699   7.8742   C.3       2 RES2   0.0000
   194 H89     -5.6312   5.2114   7.7002   H         2 RES2   0.0000
   195 H90     -4.8023   4.0420   8.4087   H         2 RES2   0.0000
   196 C78     -4.0640   4.5340   6.5556   C.3       2 RES2   0.0000
   197 H91     -4.6554   3.9393   6.0308   H         2 RES2   0.0000
   198 H92     -3.9188   5.3642   6.0339   H         2 RES2   0.0000
   199 C79     -2.2255   3.4630   5.5890   C.3       2 RES2   0.0000
   200 H93     -1.9817   4.2490   5.0357   H         2 RES2   0.0000
   201 H94     -2.8640   2.9095   5.0745   H         2 RES2   0.0000
   202 C80     -0.9943   2.6644   5.9056   C.3       2 RES2   0.0000
   203 H95     -1.2252   1.9222   6.5207   H         2 RES2   0.0000
   204 H96     -0.6252   2.2713   5.0743   H         2 RES2   0.0000
   205 C81      1.1561   2.7876   6.8462   C.3       2 RES2   0.0000
   206 H97      1.4697   2.2669   6.0628   H         2 RES2   0.0000
   207 H98      0.9690   2.1530   7.5829   H         2 RES2   0.0000
   208 C82      2.2124   3.7541   7.2652   C.3       2 RES2   0.0000
   209 H99      3.0682   3.2674   7.3740   H         2 RES2   0.0000
   210 H100     2.3358   4.4251   6.5491   H         2 RES2   0.0000
@<TRIPOS>BOND
     1     1    10    1
     2     2    14    2
     3     3    14    2
     4     4    15    2
     5     5    15    2
     6     6    56    2
     7     7    86    2
     8     8   110    2
     9     9   134    2
    10    10    25    1
    11    11     1    1
    12    12     1    1
    13    13     1    1
    14    14     1    1
    15    15     1    1
    16    16    17    1
    17    18    19    1
    18    20    21    1
    19    22    23    1
    20    24    28    1
    21    25    26    2
    22    26    27    1
    23    28    31    1
    24    29    24   ar
    25    30    29    1
    26    31    10    1
    27    32    26    1
    28    33    32    1
    29    34    43    1
    30    35    29   ar
    31    36    35    1
    32    37    11    1
    33    38    37    1
    34    39    38    1
    35    40    53    2
    36    41    35   ar
    37    42    41    1
    38    43    11    2
    39    44    38    2
    40    45    44    1
    41    46    25    1
    42    47    41   ar
    43    48    47    1
    44    49    12    1
    45    50    49    1
    46    51    50    1
    47    52    16    1
    48    53    12    1
    49    54    50    2
    50    55    54    1
    51    56    16   am
    52    57    13    2
    53    58    57    1
    54    59    58    1
    55    60    56    1
    56    61    13    1
    57    62    58    2
    58    63    62    1
    59    64    60    1
    60    65    64    1
    61    66    64    1
    62    67    64    1
    63    68    60    1
    64    69    68    1
    65    70    68    1
    66    71    68    1
    67    72    60    1
    68    73    72    1
    69    74    72    1
    70    75    72    1
    71    76    34    1
    72    77    76   ar
    73    78    77    1
    74    79    77   ar
    75    80    79    1
    76    81    79   ar
    77    82    81    1
    78    83    81   ar
    79    84    83    1
    80    85    18    1
    81    86    18   am
    82    87    86    1
    83    88    87    1
    84    89    88    1
    85    90    88    1
    86    91    88    1
    87    92    87    1
    88    93    92    1
    89    94    92    1
    90    95    92    1
    91    96    87    1
    92    97    96    1
    93    98    96    1
    94    99    96    1
    95   100    40    1
    96   101   100   ar
    97   102   101    1
    98   103   101   ar
    99   104   103    1
   100   105   103   ar
   101   106   105    1
   102   107   105   ar
   103   108   107    1
   104   109    20    1
   105   110    20   am
   106   111   110    1
   107   112   111    1
   108   113   112    1
   109   114   112    1
   110   115   112    1
   111   116   111    1
   112   117   116    1
   113   118   116    1
   114   119   116    1
   115   120   111    1
   116   121   120    1
   117   122   120    1
   118   123   120    1
   119   124    46    1
   120   125   124   ar
   121   126   125    1
   122   127   125   ar
   123   128   127    1
   124   129   127   ar
   125   130   129    1
   126   131   129   ar
   127   132   131    1
   128   133    22    1
   129   134    22   am
   130   135   134    1
   131   136   135    1
   132   137   136    1
   133   138   136    1
   134   139   136    1
   135   140   135    1
   136   141   140    1
   137   142   140    1
   138   143   140    1
   139   144   135    1
   140   145   144    1
   141   146   144    1
   142   147   144    1
   143    24    52   ar
   144    28    37    2
   145    31    32    2
   146    34    49    2
   147    40    57    1
   148    43    44    1
   149    46    61    2
   150    47    52   ar
   151    53    54    1
   152    61    62    1
   153    76    85   ar
   154    83    85   ar
   155   100   109   ar
   156   107   109   ar
   157   124   133   ar
   158   131   133   ar
   159   148   149    1
   160   149   160    1
   161   150   148    1
   162   151   148    1
   163   152   148    1
   164   153   148    1
   165   154   148    1
   166   155   148    1
   167   156   148    1
   168   157   155    1
   169   158   157    1
   170   159   157    1
   171   160   157    1
   172   161   160    1
   173   162   160    1
   174   163   149    1
   175   164   163    1
   176   165   163    1
   177   166   150    1
   178   167   166    1
   179   168   166    1
   180   169   150    1
   181   170   169    1
   182   171   169    1
   183   172   156    1
   184   173   172    1
   185   174   172    1
   186   175   156    1
   187   176   175    1
   188   177   175    1
   189   178   151    1
   190   179   178    1
   191   180   178    1
   192   181   151    1
   193   182   181    1
   194   183   181    1
   195   184   152    1
   196   185   184    1
   197   186   184    1
   198   187   152    1
   199   188   187    1
   200   189   187    1
   201   190   155    1
   202   191   190    1
   203   192   190    1
   204   193   155    1
   205   194   193    1
   206   195   193    1
   207   196   153    1
   208   197   196    1
   209   198   196    1
   210   199   153    1
   211   200   199    1
   212   201   199    1
   213   202   154    1
   214   203   202    1
   215   204   202    1
   216   205   154    1
   217   206   205    1
   218   207   205    1
   219   208   156    1
   220   209   208    1
   221   210   208    1
   222   163   166    1
   223   169   172    1
   224   175   178    1
   225   181   184    1
   226   187   190    1
   227   193   196    1
   228   199   202    1
   229   205   208    1
@<TRIPOS>SUBSTRUCTURE
     1 RES1        1 GROUP             0 ****  ****    0  
     2 RES2      148 GROUP             0 ****  ****    0  
@<TRIPOS>CRYSIN
   12.8200   37.3170   19.5450   90.0000  107.6600   90.0000   231     1
