@<TRIPOS>MOLECULE
HUCDOB
   124   125     5     0     0
SMALL
USER_CHARGES
****
Generated from the CSD

@<TRIPOS>ATOM
     1 Fe1      3.6083   2.5971   5.7704   Fe        1 RES1   0.0000
     2 O1       0.2785   3.6713   7.7551   O.2       1 RES1   0.0000
     3 O2       2.4578  -1.2564   6.1969   O.2       1 RES1   0.0000
     4 O3       7.0042   1.7389   7.7216   O.2       1 RES1   0.0000
     5 Cl1     -1.1808   7.2350   4.6936   Cl        1 RES1   0.0000
     6 Cl2     -0.3973   3.0447   1.4265   Cl        1 RES1   0.0000
     7 Cl3     -0.3789  -1.2366   1.9920   Cl        1 RES1   0.0000
     8 Cl4      4.6510  -0.1971   0.5069   Cl        1 RES1   0.0000
     9 Cl5      8.4470   4.1562   2.5006   Cl        1 RES1   0.0000
    10 Cl6      8.3882  -1.1622   3.3268   Cl        1 RES1   0.0000
    11 N1       1.7611   3.2397   6.0394   N.am      1 RES1   0.0000
    12 N2       3.0124   0.7739   5.2545   N.am      1 RES1   0.0000
    13 N3       5.4545   2.0217   6.0431   N.am      1 RES1   0.0000
    14 N4       3.4388   1.9200   7.6596   N.3       1 RES1   0.0000
    15 N5       3.9660   3.6601   2.9177   N.1       1 RES1   0.0000
    16 N6       4.5675   5.4300   6.5935   N.1       1 RES1   0.0000
    17 C1       1.3604   3.2409   7.3115   C.2       1 RES1   0.0000
    18 C2       2.3352   2.6629   8.3042   C.3       1 RES1   0.0000
    19 H1       2.7147   3.3967   8.8487   H         1 RES1   0.0000
    20 H2       1.8489   2.0531   8.9145   H         1 RES1   0.0000
    21 C3       2.8202  -0.0769   6.2666   C.2       1 RES1   0.0000
    22 C4       3.1870   0.4589   7.6204   C.3       1 RES1   0.0000
    23 H3       2.4545   0.2471   8.2523   H         1 RES1   0.0000
    24 H4       3.9990  -0.0111   7.9366   H         1 RES1   0.0000
    25 C5       5.8563   1.9336   7.3065   C.2       1 RES1   0.0000
    26 C6       4.7456   2.1755   8.3115   C.3       1 RES1   0.0000
    27 H5       4.8584   1.5721   9.0885   H         1 RES1   0.0000
    28 H6       4.7832   3.1100   8.6359   H         1 RES1   0.0000
    29 C7       3.8115   3.2359   3.9700   C.1       1 RES1  -1.0000
    30 C8       4.1907   4.3894   6.3131   C.1       1 RES1  -1.0000
    31 C9       0.3596   5.1286   5.3278   C.ar      1 RES1   0.0000
    32 H7       0.5145   5.5666   6.1566   H         1 RES1   0.0000
    33 C10     -0.4458   5.7273   4.3660   C.ar      1 RES1   0.0000
    34 C11     -0.6737   5.0865   3.1532   C.ar      1 RES1   0.0000
    35 H8      -1.2238   5.4960   2.4960   H         1 RES1   0.0000
    36 C12     -0.0951   3.8487   2.9026   C.ar      1 RES1   0.0000
    37 C13      0.7103   3.2498   3.8645   C.ar      1 RES1   0.0000
    38 H9       1.1060   2.4031   3.6930   H         1 RES1   0.0000
    39 C14      0.9383   3.8896   5.0769   C.ar      1 RES1   0.0000
    40 C15      1.4582  -0.2084   3.6524   C.ar      1 RES1   0.0000
    41 H10      0.7847  -0.2254   4.3222   H         1 RES1   0.0000
    42 C16      1.1747  -0.6623   2.3696   C.ar      1 RES1   0.0000
    43 C17      2.1607  -0.6363   1.3897   C.ar      1 RES1   0.0000
    44 H11      1.9664  -0.9467   0.5130   H         1 RES1   0.0000
    45 C18      3.4292  -0.1575   1.6925   C.ar      1 RES1   0.0000
    46 C19      3.7129   0.2964   2.9753   C.ar      1 RES1   0.0000
    47 H12      4.5802   0.6245   3.1825   H         1 RES1   0.0000
    48 C20      2.7267   0.2716   3.9553   C.ar      1 RES1   0.0000
    49 C21      6.9241   2.9494   4.3486   C.ar      1 RES1   0.0000
    50 H13      6.6206   3.8227   4.5703   H         1 RES1   0.0000
    51 C22      7.8549   2.7746   3.3314   C.ar      1 RES1   0.0000
    52 C23      8.2979   1.4983   3.0071   C.ar      1 RES1   0.0000
    53 H14      8.9343   1.3787   2.3119   H         1 RES1   0.0000
    54 C24      7.8100   0.3969   3.6996   C.ar      1 RES1   0.0000
    55 C25      6.8792   0.5718   4.7168   C.ar      1 RES1   0.0000
    56 H15      6.5454  -0.1819   5.1902   H         1 RES1   0.0000
    57 C26      6.4350   1.8480   5.0414   C.ar      1 RES1   0.0000
    58 N7       4.1871   7.7680   2.7452   N.4       2 RES2   1.0000
    59 C27      5.6895   7.8164   0.6667   C.3       2 RES2   0.0000
    60 H16      6.1358   8.4202   0.0351   H         2 RES2   0.0000
    61 H17      5.0618   7.2425   0.1785   H         2 RES2   0.0000
    62 H18      6.3600   7.2597   1.1141   H         2 RES2   0.0000
    63 C28      4.9140   8.6536   1.7254   C.3       2 RES2   0.0000
    64 H19      5.5500   9.2427   2.2036   H         2 RES2   0.0000
    65 H20      4.2527   9.2286   1.2662   H         2 RES2   0.0000
    66 C29      2.0613   7.5931   1.3635   C.3       2 RES2   0.0000
    67 H21      2.4346   8.0688   0.5930   H         2 RES2   0.0000
    68 H22      1.6238   8.2342   1.9628   H         2 RES2   0.0000
    69 H23      1.4042   6.9347   1.0549   H         2 RES2   0.0000
    70 C30      3.1544   6.8973   2.0939   C.3       2 RES2   0.0000
    71 H24      3.6148   6.2946   1.4594   H         2 RES2   0.0000
    72 H25      2.7442   6.3303   2.7952   H         2 RES2   0.0000
    73 C31      2.6825   8.0756   4.7673   C.3       2 RES2   0.0000
    74 H26      1.8595   7.7396   4.3554   H         2 RES2   0.0000
    75 H27      2.4569   8.7352   5.4568   H         2 RES2   0.0000
    76 H28      3.1702   7.3302   5.1772   H         2 RES2   0.0000
    77 C32      3.5494   8.7255   3.7087   C.3       2 RES2   0.0000
    78 H29      2.9949   9.3669   3.1978   H         2 RES2   0.0000
    79 H30      4.2636   9.2426   4.1605   H         2 RES2   0.0000
    80 C33      6.3498   7.4567   4.1074   C.3       2 RES2   0.0000
    81 H31      6.8837   7.9679   3.4652   H         2 RES2   0.0000
    82 H32      6.9039   6.7530   4.5067   H         2 RES2   0.0000
    83 H33      6.0258   8.0553   4.8133   H         2 RES2   0.0000
    84 C34      5.1907   6.8390   3.4105   C.3       2 RES2   0.0000
    85 H34      4.7006   6.2840   4.0682   H         2 RES2   0.0000
    86 H35      5.5439   6.2270   2.7175   H         2 RES2   0.0000
    87 N8      -2.0961   0.0149   7.8120   N.4       3 RES3   1.0000
    88 C35     -2.6582   0.7281   6.6009   C.3       3 RES3   0.0000
    89 H36     -3.0579   0.0516   5.9994   H         3 RES3   0.0000
    90 H37     -3.3887   1.3240   6.9035   H         3 RES3   0.0000
    91 C36     -1.6820   1.5479   5.8049   C.3       3 RES3   0.0000
    92 H38     -2.1266   1.8982   5.0046   H         3 RES3   0.0000
    93 H39     -0.9249   0.9861   5.5385   H         3 RES3   0.0000
    94 H40     -1.3593   2.2939   6.3521   H         3 RES3   0.0000
    95 C37     -0.9562  -0.9129   7.4046   C.3       3 RES3   0.0000
    96 H41     -0.2023  -0.3581   7.0836   H         3 RES3   0.0000
    97 H42     -0.6463  -1.3981   8.2101   H         3 RES3   0.0000
    98 C38     -1.2883  -1.9249   6.3403   C.3       3 RES3   0.0000
    99 H43     -1.6258  -1.4626   5.5446   H         3 RES3   0.0000
   100 H44     -1.9731  -2.5396   6.6762   H         3 RES3   0.0000
   101 H45     -0.4815  -2.4296   6.1070   H         3 RES3   0.0000
   102 C39     -3.2551  -0.7305   8.4244   C.3       3 RES3   0.0000
   103 H46     -3.9862  -0.0847   8.5946   H         3 RES3   0.0000
   104 H47     -3.5880  -1.3881   7.7637   H         3 RES3   0.0000
   105 C40     -2.9553  -1.4574   9.7092   C.3       3 RES3   0.0000
   106 H48     -2.2322  -2.1015   9.5589   H         3 RES3   0.0000
   107 H49     -3.7582  -1.9324  10.0106   H         3 RES3   0.0000
   108 H50     -2.6815  -0.8122  10.3937   H         3 RES3   0.0000
   109 C41     -1.4966   0.9873   8.7970   C.3       3 RES3   0.0000
   110 H51     -1.0397   0.4732   9.5089   H         3 RES3   0.0000
   111 H52     -0.8081   1.5243   8.3292   H         3 RES3   0.0000
   112 C42     -2.4750   1.9237   9.4389   C.3       3 RES3   0.0000
   113 H53     -3.0522   2.3151   8.7508   H         3 RES3   0.0000
   114 H54     -1.9880   2.6378   9.9016   H         3 RES3   0.0000
   115 H55     -3.0230   1.4310  10.0844   H         3 RES3   0.0000
   116 O4       5.4908  10.2660   6.2297   O.3       4 RES4   0.0000
   117 H56      6.0163  10.7264   6.7143   H         4 RES4   0.0000
   118 H57      5.6560  10.4191   5.4100   H         4 RES4   0.0000
   119 N9       9.4364   7.1218   1.1960   N.1       5 RES5   0.0000
   120 C43      9.4846   8.1388   0.7504   C.1       5 RES5   0.0000
   121 C44      9.4919   9.4176   0.1508   C.3       5 RES5   0.0000
   122 H58      9.5727   9.3218  -0.8215   H         5 RES5   0.0000
   123 H59     10.2518   9.9342   0.4918   H         5 RES5   0.0000
   124 H60      8.6573   9.8843   0.3645   H         5 RES5   0.0000
@<TRIPOS>BOND
     1     1    11    1
     2     2    17    2
     3     3    21    2
     4     4    25    2
     5     5    33    1
     6     6    36    1
     7     7    42    1
     8     8    45    1
     9     9    51    1
    10    10    54    1
    11    11    17   am
    12    12     1    1
    13    13     1    1
    14    14     1    1
    15    15    29    3
    16    16    30    3
    17    17    18    1
    18    18    14    1
    19    19    18    1
    20    20    18    1
    21    21    12   am
    22    22    14    1
    23    23    22    1
    24    24    22    1
    25    25    13   am
    26    26    14    1
    27    27    26    1
    28    28    26    1
    29    29     1    1
    30    30     1    1
    31    31    32    1
    32    33    31   ar
    33    34    33   ar
    34    35    34    1
    35    36    34   ar
    36    37    36   ar
    37    38    37    1
    38    39    11    1
    39    40    41    1
    40    42    40   ar
    41    43    42   ar
    42    44    43    1
    43    45    43   ar
    44    46    45   ar
    45    47    46    1
    46    48    12    1
    47    49    50    1
    48    51    49   ar
    49    52    51   ar
    50    53    52    1
    51    54    52   ar
    52    55    54   ar
    53    56    55    1
    54    57    13    1
    55    21    22    1
    56    25    26    1
    57    31    39   ar
    58    37    39   ar
    59    40    48   ar
    60    46    48   ar
    61    49    57   ar
    62    55    57   ar
    63    58    63    1
    64    59    60    1
    65    61    59    1
    66    62    59    1
    67    63    59    1
    68    64    63    1
    69    65    63    1
    70    66    67    1
    71    68    66    1
    72    69    66    1
    73    70    58    1
    74    71    70    1
    75    72    70    1
    76    73    74    1
    77    75    73    1
    78    76    73    1
    79    77    58    1
    80    78    77    1
    81    79    77    1
    82    80    81    1
    83    82    80    1
    84    83    80    1
    85    84    58    1
    86    85    84    1
    87    86    84    1
    88    66    70    1
    89    73    77    1
    90    80    84    1
    91    87    88    1
    92    88    89    1
    93    90    88    1
    94    91    88    1
    95    92    91    1
    96    93    91    1
    97    94    91    1
    98    95    87    1
    99    96    95    1
   100    97    95    1
   101    98    95    1
   102    99    98    1
   103   100    98    1
   104   101    98    1
   105   102    87    1
   106   103   102    1
   107   104   102    1
   108   105   102    1
   109   106   105    1
   110   107   105    1
   111   108   105    1
   112   109    87    1
   113   110   109    1
   114   111   109    1
   115   112   109    1
   116   113   112    1
   117   114   112    1
   118   115   112    1
   119   116   117    1
   120   118   116    1
   121   119   120    3
   122   120   121    1
   123   121   122    1
   124   123   121    1
   125   124   121    1
@<TRIPOS>SUBSTRUCTURE
     1 RES1        1 GROUP             0 ****  ****    0  
     2 RES2       58 GROUP             0 ****  ****    0  
     3 RES3       87 GROUP             0 ****  ****    0  
     4 RES4      116 GROUP             0 ****  ****    0  
     5 RES5      119 GROUP             0 ****  ****    0  
@<TRIPOS>CRYSIN
   12.5160   12.4030   33.5140   90.0000   91.5300   90.0000   231     1
