@<TRIPOS>MOLECULE
HUKTIT
   101   108     5     0     0
SMALL
USER_CHARGES
****
Generated from the CSD

@<TRIPOS>ATOM
     1 Fe1      1.3309   8.2877   4.8603   Fe        1 RES1   2.0000
     2 C1       0.6998  10.3285   2.7554   C.ar      1 RES1   0.0000
     3 H1       1.5446  10.1500   2.4096   H         1 RES1   0.0000
     4 C2      -0.0831  11.2770   2.1331   C.ar      1 RES1   0.0000
     5 H2       0.2267  11.7231   1.3780   H         1 RES1   0.0000
     6 C3      -1.3382  11.5559   2.6499   C.ar      1 RES1   0.0000
     7 H3      -1.8883  12.1829   2.2386   H         1 RES1   0.0000
     8 C4      -1.7642  10.8871   3.7897   C.ar      1 RES1   0.0000
     9 H4      -2.5935  11.0762   4.1657   H         1 RES1   0.0000
    10 C5      -0.9347   9.9334   4.3586   C.ar      1 RES1   0.0000
    11 C6      -1.2436   9.1613   5.5702   C.ar      1 RES1   0.0000
    12 C7      -2.4175   9.1746   6.3096   C.ar      1 RES1   0.0000
    13 H5      -3.1265   9.7178   6.0505   H         1 RES1   0.0000
    14 C8      -2.5308   8.3650   7.4495   C.ar      1 RES1   0.0000
    15 C9      -3.7779   8.3318   8.2511   C.ar      1 RES1   0.0000
    16 C10     -4.6277   9.4394   8.3054   C.ar      1 RES1   0.0000
    17 H6      -4.4057  10.2151   7.8430   H         1 RES1   0.0000
    18 C11     -5.8019   9.3896   9.0443   C.ar      1 RES1   0.0000
    19 H7      -6.3732  10.1234   9.0522   H         1 RES1   0.0000
    20 C12     -6.1292   8.2582   9.7690   C.ar      1 RES1   0.0000
    21 H8      -6.9102   8.2343  10.2733   H         1 RES1   0.0000
    22 C13     -5.2823   7.1575   9.7377   C.ar      1 RES1   0.0000
    23 H9      -5.4937   6.3975  10.2305   H         1 RES1   0.0000
    24 C14     -4.1238   7.1853   8.9760   C.ar      1 RES1   0.0000
    25 H10     -3.5728   6.4367   8.9466   H         1 RES1   0.0000
    26 C15     -1.4258   7.5877   7.8204   C.ar      1 RES1   0.0000
    27 H11     -1.4633   7.0552   8.5818   H         1 RES1   0.0000
    28 C16     -0.2812   7.6163   7.0501   C.ar      1 RES1   0.0000
    29 C17      0.9652   6.8734   7.2952   C.ar      1 RES1   0.0000
    30 C18      1.1965   6.1032   8.4215   C.ar      1 RES1   0.0000
    31 H12      0.5452   6.0215   9.0808   H         1 RES1   0.0000
    32 C19      2.4176   5.4542   8.5495   C.ar      1 RES1   0.0000
    33 H13      2.5985   4.9345   9.2993   H         1 RES1   0.0000
    34 C20      3.3647   5.5904   7.5462   C.ar      1 RES1   0.0000
    35 H14      4.1833   5.1524   7.6073   H         1 RES1   0.0000
    36 C21      3.0749   6.3887   6.4507   C.ar      1 RES1   0.0000
    37 H15      3.7179   6.4882   5.7863   H         1 RES1   0.0000
    38 C22      2.2475  10.7128   6.6223   C.ar      1 RES1   0.0000
    39 H16      1.4321  10.6337   7.0628   H         1 RES1   0.0000
    40 C23      3.1099  11.7283   6.9983   C.ar      1 RES1   0.0000
    41 H17      2.8858  12.3070   7.6908   H         1 RES1   0.0000
    42 C24      4.3118  11.8684   6.3272   C.ar      1 RES1   0.0000
    43 H18      4.9032  12.5478   6.5590   H         1 RES1   0.0000
    44 C25      4.6258  10.9833   5.3032   C.ar      1 RES1   0.0000
    45 H19      5.4226  11.0663   4.8306   H         1 RES1   0.0000
    46 C26      3.7232   9.9723   5.0009   C.ar      1 RES1   0.0000
    47 C27      3.9513   8.9553   3.9505   C.ar      1 RES1   0.0000
    48 C28      5.1219   8.8154   3.2281   C.ar      1 RES1   0.0000
    49 H20      5.8355   9.3900   3.3879   H         1 RES1   0.0000
    50 C29      5.2389   7.8125   2.2566   C.ar      1 RES1   0.0000
    51 C30      6.4961   7.6298   1.4967   C.ar      1 RES1   0.0000
    52 C31      7.4277   8.6711   1.4128   C.ar      1 RES1   0.0000
    53 H21      7.2374   9.4944   1.8011   H         1 RES1   0.0000
    54 C32      8.6327   8.4817   0.7540   C.ar      1 RES1   0.0000
    55 H22      9.2494   9.1765   0.7127   H         1 RES1   0.0000
    56 C33      8.9268   7.2664   0.1566   C.ar      1 RES1   0.0000
    57 H23      9.7417   7.1417  -0.2738   H         1 RES1   0.0000
    58 C34      7.9977   6.2364   0.2047   C.ar      1 RES1   0.0000
    59 H24      8.1819   5.4240  -0.2087   H         1 RES1   0.0000
    60 C35      6.7930   6.4186   0.8691   C.ar      1 RES1   0.0000
    61 H25      6.1750   5.7243   0.8971   H         1 RES1   0.0000
    62 C36      4.1320   6.9808   2.0546   C.ar      1 RES1   0.0000
    63 H26      4.1650   6.3110   1.4103   H         1 RES1   0.0000
    64 C37      2.9830   7.1560   2.8170   C.ar      1 RES1   0.0000
    65 C38      1.7557   6.3404   2.6871   C.ar      1 RES1   0.0000
    66 C39      1.6336   5.2622   1.8160   C.ar      1 RES1   0.0000
    67 H27      2.3464   5.0049   1.2775   H         1 RES1   0.0000
    68 C40      0.4257   4.5769   1.7657   C.ar      1 RES1   0.0000
    69 H28      0.3225   3.8476   1.1977   H         1 RES1   0.0000
    70 C41     -0.6175   4.9886   2.5653   C.ar      1 RES1   0.0000
    71 H29     -1.4379   4.5517   2.5343   H         1 RES1   0.0000
    72 C42     -0.4237   6.0677   3.4194   C.ar      1 RES1   0.0000
    73 H30     -1.1316   6.3456   3.9547   H         1 RES1   0.0000
    74 N1       0.2916   9.6523   3.8400   N.ar      1 RES1   0.0000
    75 N2      -0.2047   8.3764   5.9371   N.ar      1 RES1   0.0000
    76 N3       1.9007   7.0233   6.3136   N.ar      1 RES1   0.0000
    77 N4       2.5393   9.8417   5.6521   N.ar      1 RES1   0.0000
    78 N5       2.8979   8.1295   3.7508   N.ar      1 RES1   0.0000
    79 N6       0.7412   6.7242   3.5027   N.ar      1 RES1   0.0000
    80 O1       7.9296  12.8546   8.2440   O.2       2 RES2   0.0000
    81 O2       8.7966  14.4731   6.9384   O.2       2 RES2   0.0000
    82 O3       7.4751  12.8128   6.0446   O.2       2 RES2   0.0000
    83 O4       9.6303  12.3125   6.8139   O.3       2 RES2  -1.0000
    84 Cl1      8.4684  13.1243   7.0045   Cl        2 RES2   0.0000
    85 O5       6.0421  13.9369   1.3038   O.2       3 RES3   0.0000
    86 O6       4.4418  12.2780   1.1828   O.2       3 RES3   0.0000
    87 O7       6.2398  12.0835   2.6701   O.2       3 RES3   0.0000
    88 O8       6.5832  11.8430   0.3694   O.3       3 RES3  -1.0000
    89 Cl2      5.8256  12.5255   1.3763   Cl        3 RES3   0.0000
    90 N7       1.4562  13.6110   0.1677   N.1       4 RES4   0.0000
    91 C43      2.2170  14.4398   0.0764   C.1       4 RES4   0.0000
    92 C44      3.1890  15.5264  -0.0170   C.3       4 RES4   0.0000
    93 H31      2.9197  16.2466   0.5577   H         4 RES4   0.0000
    94 H32      3.2313  15.8390  -0.9236   H         4 RES4   0.0000
    95 H33      4.0529  15.2071   0.2525   H         4 RES4   0.0000
    96 C45      0.2872  10.3049   9.8508   C.1       5 RES5   0.0000
    97 C46     -1.0492  10.8206   9.9670   C.3       5 RES5   0.0000
    98 H34     -1.6775  10.1499   9.6898   H         5 RES5   0.0000
    99 H35     -1.1425  11.5962   9.4087   H         5 RES5   0.0000
   100 H36     -1.2214  11.0623  10.8807   H         5 RES5   0.0000
   101 N8       1.3298   9.8952   9.7576   N.1       5 RES5   0.0000
@<TRIPOS>BOND
     1     1    74    1
     2     2     3    1
     3     4     2   ar
     4     5     4    1
     5     6     4   ar
     6     7     6    1
     7     8     6   ar
     8     9     8    1
     9    10     8   ar
    10    11    10    1
    11    12    11   ar
    12    13    12    1
    13    14    12   ar
    14    15    14    1
    15    16    15   ar
    16    17    16    1
    17    18    16   ar
    18    19    18    1
    19    20    18   ar
    20    21    20    1
    21    22    20   ar
    22    23    22    1
    23    24    15   ar
    24    25    24    1
    25    26    14   ar
    26    27    26    1
    27    28    26   ar
    28    29    28    1
    29    30    29   ar
    30    31    30    1
    31    32    30   ar
    32    33    32    1
    33    34    32   ar
    34    35    34    1
    35    36    34   ar
    36    37    36    1
    37    38    39    1
    38    40    38   ar
    39    41    40    1
    40    42    40   ar
    41    43    42    1
    42    44    42   ar
    43    45    44    1
    44    46    44   ar
    45    47    46    1
    46    48    47   ar
    47    49    48    1
    48    50    48   ar
    49    51    50    1
    50    52    51   ar
    51    53    52    1
    52    54    52   ar
    53    55    54    1
    54    56    54   ar
    55    57    56    1
    56    58    56   ar
    57    59    58    1
    58    60    51   ar
    59    61    60    1
    60    62    50   ar
    61    63    62    1
    62    64    62   ar
    63    65    64    1
    64    66    65   ar
    65    67    66    1
    66    68    66   ar
    67    69    68    1
    68    70    68   ar
    69    71    70    1
    70    72    70   ar
    71    73    72    1
    72    74     2   ar
    73    75     1    1
    74    76     1    1
    75    77     1    1
    76    78     1    1
    77    79     1    1
    78    10    74   ar
    79    11    75   ar
    80    22    24   ar
    81    28    75   ar
    82    29    76   ar
    83    36    76   ar
    84    38    77   ar
    85    46    77   ar
    86    47    78   ar
    87    58    60   ar
    88    64    78   ar
    89    65    79   ar
    90    72    79   ar
    91    80    84    2
    92    81    84    2
    93    82    84    2
    94    83    84    1
    95    85    89    2
    96    86    89    2
    97    87    89    2
    98    88    89    1
    99    90    91    3
   100    91    92    1
   101    92    93    1
   102    94    92    1
   103    95    92    1
   104    96    97    1
   105    97    98    1
   106    99    97    1
   107   100    97    1
   108   101    96    3
@<TRIPOS>SUBSTRUCTURE
     1 RES1        1 GROUP             0 ****  ****    0  
     2 RES2       80 GROUP             0 ****  ****    0  
     3 RES3       85 GROUP             0 ****  ****    0  
     4 RES4       90 GROUP             0 ****  ****    0  
     5 RES5       96 GROUP             0 ****  ****    0  
@<TRIPOS>CRYSIN
   10.7083   16.0662   24.7080   90.0000   93.6930   90.0000   231     1
