@<TRIPOS>MOLECULE
HUNBIB
   137   150     4     0     0
SMALL
USER_CHARGES
****
Generated from the CSD

@<TRIPOS>ATOM
     1 N1       2.3891   9.2643  10.7802   N.2       1 RES1   1.0000
     2 C5       3.6002   8.7112  11.4693   C.3       1 RES1   0.0000
     3 C6       4.4999   9.8332  11.9958   C.3       1 RES1   0.0000
     4 N2       3.7536  10.8293  12.8058   N.2       1 RES1   1.0000
     5 C7       2.6019  11.3746  12.0551   C.3       1 RES1   0.0000
     6 C8       1.6598  10.2752  11.6187   C.3       1 RES1   0.0000
     7 N3      -1.7990   3.7533   4.9395   N.2       2 RES2   1.0000
     8 C9      -2.1801   2.7852   5.9961   C.3       2 RES2   0.0000
     9 C10     -0.7560   4.6980   5.3818   C.3       2 RES2   0.0000
    10 C10A    -0.9862   2.0149   6.4776   C.3       2 RES2   0.0000
    11 N3A      0.0568   2.9597   6.9200   N.2       2 RES2   1.0000
    12 C9A      0.4379   3.9277   5.8633   C.3       2 RES2   0.0000
    13 N4      -1.7905  10.4624   4.7426   N.2       3 RES3   1.0000
    14 C11     -0.7183  11.0919   5.5526   C.3       3 RES3   0.0000
    15 C12     -2.6800   9.6202   5.5846   C.3       3 RES3   0.0000
    16 C12A     0.0594  10.0472   6.2748   C.3       3 RES3   0.0000
    17 N4A     -0.8301   9.2050   7.1169   N.2       3 RES3   1.0000
    18 C11A    -1.9023   8.5756   6.3069   C.3       3 RES3   0.0000
    19 As1     -0.5073   8.3282  -1.3781   As        4 RES4   0.0000
    20 As2      2.0093  12.1327  -2.7609   As        4 RES4   0.0000
    21 As3     -0.1223  11.2544   1.2488   As        4 RES4   0.0000
    22 As4      2.6862   5.8719  -2.9483   As        4 RES4   0.0000
    23 As5      5.6316  14.5697  -4.4722   As        4 RES4   0.0000
    24 As6      6.2736   8.1474  -4.3797   As        4 RES4   0.0000
    25 Fe1     -1.1522  11.4430  -2.1003   Fe        4 RES4   0.0000
    26 Fe2      5.6313   4.8087  -4.0713   Fe        4 RES4   0.0000
    27 Fe3     -0.4062   5.0280  -1.9675   Fe        4 RES4   0.0000
    28 Fe4      4.9140  11.2732  -4.1923   Fe        4 RES4   0.0000
    29 O1      -0.4214   6.9343  -2.2912   O.2       4 RES4   0.0000
    30 O2      -1.1200   8.0452   0.1565   O.2       4 RES4   0.0000
    31 O3      -1.4193   9.4225  -2.2758   O.3       4 RES4   0.0000
    32 O4       1.1067   8.9063  -1.3318   O.3       4 RES4   0.0000
    33 O5       2.2387  12.7445  -1.2452   O.2       4 RES4   0.0000
    34 O6       0.5505  11.3438  -3.0514   O.3       4 RES4   0.0000
    35 O7       3.2146  11.0712  -3.2768   O.3       4 RES4   0.0000
    36 O8       1.9889  13.4574  -3.8923   O.3       4 RES4   0.0000
    37 O9      -0.7939  11.1055  -0.2479   O.2       4 RES4   0.0000
    38 O10     -0.7436  12.5098   2.1371   O.3       4 RES4   0.0000
    39 O11     -0.3123   9.8899   2.2047   O.3       4 RES4   0.0000
    40 O12      1.5810  11.4457   1.0009   O.3       4 RES4   0.0000
    41 O13      2.8765   6.9312  -1.6995   O.2       4 RES4   0.0000
    42 O14      1.3039   4.9220  -2.9008   O.3       4 RES4   0.0000
    43 O15      3.9441   4.7490  -3.1012   O.3       4 RES4   0.0000
    44 O16      2.5738   6.7326  -4.4556   O.2       4 RES4   0.0000
    45 O17      6.1204  14.8716  -6.0329   O.2       4 RES4   0.0000
    46 O18      4.9121  15.8082  -3.6207   O.3       4 RES4   0.0000
    47 O19      4.6134  13.2409  -4.3916   O.3       4 RES4   0.0000
    48 O20      7.1289  14.2664  -3.6693   O.3       4 RES4   0.0000
    49 O21      5.3584   6.7714  -4.2979   O.3       4 RES4   0.0000
    50 O22      5.4677   9.4025  -3.6432   O.3       4 RES4   0.0000
    51 O23      6.7836   8.4879  -5.9250   O.3       4 RES4   0.0000
    52 O24      7.6668   7.8174  -3.4203   O.2       4 RES4   0.0000
    53 O25     -3.1556  11.6337  -1.5666   O.co2     4 RES4  -1.0000
    54 O26     -2.1144  11.5089  -4.0002   O.co2     4 RES4   0.0000
    55 O27     -4.4953   5.1890  -2.2758   O.co2     4 RES4   0.0000
    56 O28     -3.4922   4.8942  -4.7236   O.co2     4 RES4   0.0000
    57 O29     -2.4159   5.1764  -1.4101   O.co2     4 RES4  -1.0000
    58 O30     -1.4037   5.0001  -3.8935   O.co2     4 RES4   0.0000
    59 O31     -5.2114  11.7500  -2.4276   O.co2     4 RES4   0.0000
    60 O32     -4.1833  11.5065  -4.9015   O.co2     4 RES4   0.0000
    61 C1      -3.2182   5.1452  -2.3600   C.2       4 RES4   0.0000
    62 C2      -2.6465   5.0106  -3.7879   C.2       4 RES4   0.0000
    63 C3      -3.9484  11.6606  -2.5261   C.2       4 RES4   0.0000
    64 C4      -3.3716  11.5646  -3.9338   C.2       4 RES4   0.0000
    65 As3A    -1.6345  14.6545  -1.2488   As        4 RES4   0.0000
    66 O9A     -0.9629  14.8034   0.2479   O.2       4 RES4   0.0000
    67 O10A    -1.0131  13.3991  -2.1371   O.2       4 RES4   0.0000
    68 O11A    -1.4444  16.0191  -2.2047   O.2       4 RES4   0.0000
    69 O12A    -3.3377  14.4632  -1.0009   O.3       4 RES4   0.0000
    70 Fe1A    -0.6046  14.4659   2.1003   Fe        4 RES4   0.0000
    71 Fe3A    -0.4722   7.9264   1.9675   Fe        4 RES4   0.0000
    72 Fe4     -6.1926  11.2732  -4.1923   Fe        4 RES4   0.0000
    73 As1A    -0.3710   4.6262   1.3781   As        4 RES4   0.0000
    74 O1A     -0.4569   6.0201   2.2912   O.2       4 RES4   0.0000
    75 O2A      0.2417   4.9092  -0.1565   O.2       4 RES4   0.0000
    76 O3A      0.5409   3.5319   2.2758   O.2       4 RES4   0.0000
    77 O4A     -1.9851   4.0482   1.3318   O.3       4 RES4   0.0000
    78 As6A     4.8184  11.0485  -7.4797   As        4 RES4   0.0000
    79 O21A     5.7336  12.4246  -7.5616   O.2       4 RES4   0.0000
    80 O22A     5.6243   9.7935  -8.2162   O.3       4 RES4  -1.0000
    81 O23A     4.3084  10.7081  -5.9345   O.2       4 RES4   0.0000
    82 O24A     3.4252  11.3786  -8.4392   O.3       4 RES4   0.0000
    83 O25      7.9510  11.6337  -1.5666   O.co2     4 RES4  -1.0000
    84 O26      8.9922  11.5089  -4.0002   O.co2     4 RES4   0.0000
    85 O31      5.8952  11.7500  -2.4276   O.co2     4 RES4  -1.0000
    86 O32      6.9233  11.5065  -4.9015   O.co2     4 RES4   0.0000
    87 C3       7.1582  11.6606  -2.5261   C.2       4 RES4   0.0000
    88 C4       7.7350  11.5646  -3.9338   C.2       4 RES4   0.0000
    89 As2A    -3.7660  13.7762   2.7609   As        4 RES4   0.0000
    90 O5A     -3.9954  13.1645   1.2452   O.3       4 RES4   0.0000
    91 O6A     -2.3072  14.5651   3.0514   O.3       4 RES4  -1.0000
    92 O7A     -4.9713  14.8377   3.2768   O.2       4 RES4   0.0000
    93 O8A     -3.7457  12.4515   3.8923   O.2       4 RES4   0.0000
    94 As4A    -3.5646   7.0825   2.9483   As        4 RES4   0.0000
    95 O13A    -3.7549   6.0233   1.6995   O.3       4 RES4   0.0000
    96 O14A    -2.1822   8.0324   2.9008   O.3       4 RES4   0.0000
    97 O15A    -4.8224   8.2055   3.1012   O.3       4 RES4  -1.0000
    98 O16A    -3.4522   6.2219   4.4556   O.2       4 RES4   0.0000
    99 O27A     3.6169   7.7654   2.2758   O.co2     4 RES4  -1.0000
   100 O28A     2.6138   8.0602   4.7236   O.co2     4 RES4   0.0000
   101 O29A     1.5376   7.7780   1.4101   O.co2     4 RES4   0.0000
   102 O30A     0.5253   7.9543   3.8935   O.co2     4 RES4   0.0000
   103 C1A      2.3398   7.8092   2.3600   C.2       4 RES4   0.0000
   104 C2A      1.7681   7.9438   3.7879   C.2       4 RES4   0.0000
   105 As5     -5.4750  14.5697  -4.4722   As        4 RES4   0.0000
   106 O17     -4.9862  14.8716  -6.0329   O.2       4 RES4   0.0000
   107 O18     -6.1945  15.8082  -3.6207   O.2       4 RES4   0.0000
   108 O19     -6.4932  13.2409  -4.3916   O.3       4 RES4   0.0000
   109 O20     -3.9777  14.2664  -3.6693   O.3       4 RES4   0.0000
   110 Fe2A    -6.5097   8.1457   4.0713   Fe        4 RES4   0.0000
   111 O17A     4.9717   4.3243  -5.8265   O.2       4 RES4   0.0000
   112 O18      5.7905   2.8538  -3.6207   O.2       4 RES4   0.0000
   113 O27      6.6113   5.1890  -2.2758   O.2       4 RES4   0.0000
   114 O28      7.6144   4.8942  -4.7236   O.2       4 RES4   0.0000
   115 O11A    -0.5661   3.0646  -2.2047   O.2       4 RES4   0.0000
   116 Fe2A     5.4607  14.3872  -7.7881   Fe        4 RES4   0.0000
   117 Fe2      4.7529  17.7632  -4.0713   Fe        4 RES4   0.0000
   118 Fe4A     6.1780   7.9228  -7.6671   Fe        4 RES4   0.0000
   119 Fe2     -5.4753   4.8087  -4.0713   Fe        4 RES4   0.0000
   120 Fe3     -1.2846  17.9825  -1.9675   Fe        4 RES4   0.0000
   121 O3A     -0.3375  16.4864   2.2758   O.2       4 RES4   0.0000
   122 O25A     1.3988  14.2752   1.5666   O.2       4 RES4  -1.0000
   123 O26A     0.3577  14.4000   4.0002   O.2       4 RES4   0.0000
   124 O7      -7.8920  11.0712  -3.2768   O.2       4 RES4   0.0000
   125 O22     -5.6389   9.4025  -3.6432   O.2       4 RES4   0.0000
   126 O23A    -6.7982  10.7081  -5.9345   O.2       4 RES4   0.0000
   127 Fe1A     0.2738   1.5114   2.1003   Fe        4 RES4   0.0000
   128 Fe1      9.9544  11.4430  -2.1003   Fe        4 RES4   0.0000
   129 Fe4A    -6.6708  14.6357   4.1923   Fe        4 RES4   0.0000
   130 Fe2A     4.5969   8.1457   4.0713   Fe        4 RES4   0.0000
   131 Fe2A    -5.6459  14.3872  -7.7881   Fe        4 RES4   0.0000
   132 Fe2     -6.3537  17.7632  -4.0713   Fe        4 RES4   0.0000
   133 O17     -5.8500   8.6301   5.8265   O.2       4 RES4   0.0000
   134 O18A    -6.6689  10.1007   3.6207   O.2       4 RES4   0.0000
   135 O21A    -6.2368   6.1831   4.2979   O.2       4 RES4   0.0000
   136 O27A    -7.4897   7.7654   2.2758   O.2       4 RES4   0.0000
   137 O28A    -8.4928   8.0602   4.7236   O.2       4 RES4   0.0000
@<TRIPOS>BOND
     1     1     2    1
     2     2     3    1
     3     3     4    1
     4     4     5    1
     5     5     6    1
     6     6     1    1
     7     7     8    1
     8     8    10    1
     9     9     7    1
    10    10    11    1
    11    11    12    1
    12    12     9    1
    13    13    14    1
    14    14    16    1
    15    15    13    1
    16    16    17    1
    17    17    18    1
    18    18    15    1
    19    19    29   un
    20    20    33    2
    21    21    37   un
    22    22    41   un
    23    23    45   un
    24    24    49    1
    25    25    31    1
    26    26    43    1
    27    27    29    1
    28    28    35    1
    29    30    19   un
    30    31    19    1
    31    32    19    1
    32    34    20    1
    33    35    20    1
    34    36    20    1
    35    37    25    1
    36    38    21    1
    37    39    21   un
    38    40    21    1
    39    42    22    1
    40    43    22    1
    41    44    22   un
    42    45   116   un
    43    46    23    1
    44    47    23   un
    45    48    23    1
    46    49    26    1
    47    50    24    1
    48    51    24    1
    49    52    24   un
    50    53    25    1
    51    54    25   un
    52    55    61   un
    53    56    62   un
    54    57    27    1
    55    58    27   un
    56    59    63   un
    57    60    64   un
    58    61    57   un
    59    62    58   un
    60    63    53   un
    61    64    54   un
    62    65    66   un
    63    66    70    1
    64    67    25    1
    65    68    65    1
    66    69    65    1
    67    70    38   un
    68    71    30    1
    69    72    59    1
    70    73    74   un
    71    74    71    1
    72    75    27    1
    73    76    73    1
    74    77    73    1
    75    78    79   un
    76    79   116   un
    77    80    78    1
    78    81    28    1
    79    82    78    1
    80    83    87   un
    81    84    88   un
    82    85    28    1
    83    86    28   un
    84    87    85   un
    85    88    86   un
    86    89    90    1
    87    91    70    1
    88    92    89    1
    89    93    89    2
    90    94    95    1
    91    96    71    1
    92    97    94    1
    93    98    94    2
    94    99   103   un
    95   100   104   un
    96   101    71    1
    97   102    71   un
    98   103   101   un
    99   104   102   un
   100   105   106   un
   101   106   131   un
   102   107   105   un
   103   108    72    1
   104   109   105    1
   105   110    97    1
   106   111    26   un
   107   112    26   un
   108   113    26   un
   109   114    26   un
   110   115    27   un
   111   117    46   un
   112   118    51    1
   113   119    55   un
   114   120    68   un
   115   121    70   un
   116   122    70   un
   117   123    70   un
   118   124    72   un
   119   125    72   un
   120   126    72   un
   121   127    76   un
   122   128    83   un
   123   129    92   un
   124   130    99   un
   125   132   107   un
   126   133   110   un
   127   134   110   un
   128   135   110   un
   129   136   110   un
   130   137   110   un
   131    25    34    1
   132    27    42   un
   133    28    47   un
   134    28    50   un
   135    39    71   un
   136    56   119   un
   137    60    72   un
   138    61    62    1
   139    63    64    1
   140    65    67   un
   141    73    75   un
   142    78    81   un
   143    80   118   un
   144    84   128   un
   145    87    88   un
   146    89    91    1
   147    94    96    1
   148   100   130   un
   149   103   104    1
   150   105   108    1
@<TRIPOS>SUBSTRUCTURE
     1 RES1        1 GROUP             0 ****  ****    0  
     2 RES2        7 GROUP             0 ****  ****    0  
     3 RES3       13 GROUP             0 ****  ****    0  
     4 RES4       19 GROUP             0 ****  ****    0  
@<TRIPOS>CRYSIN
   11.1066   12.9842   13.4294  117.3450   93.6880   93.8790     2     1
