@<TRIPOS>MOLECULE
HUNNAH
   117   120     3     0     0
SMALL
USER_CHARGES
****
Generated from the CSD

@<TRIPOS>ATOM
     1 Fe1      5.0959   1.8166   3.7068   Fe        1 RES1   2.0000
     2 N1       6.9017   2.1609   4.0402   N.ar      1 RES1   0.0000
     3 C1       7.2423   3.1095   4.9443   C.ar      1 RES1   0.0000
     4 C2       8.5792   3.3161   5.2718   C.ar      1 RES1   0.0000
     5 H1       8.8243   4.0006   5.8837   H         1 RES1   0.0000
     6 C3       9.5402   2.5160   4.6971   C.ar      1 RES1   0.0000
     7 H2      10.4518   2.6355   4.9335   H         1 RES1   0.0000
     8 C4       9.1916   1.5320   3.7731   C.ar      1 RES1   0.0000
     9 H3       9.8522   0.9764   3.3760   H         1 RES1   0.0000
    10 C5       7.8464   1.3860   3.4517   C.ar      1 RES1   0.0000
    11 C6       6.0414   3.7446   5.4820   C.2       1 RES1   0.0000
    12 H4       6.0793   4.4310   6.1386   H         1 RES1   0.0000
    13 N2       4.9253   3.3061   5.0024   N.2       1 RES1   0.0000
    14 C7       3.6634   3.8451   5.5407   C.3       1 RES1   0.0000
    15 H5       3.8124   4.1693   6.4646   H         1 RES1   0.0000
    16 H6       2.9855   3.1246   5.5762   H         1 RES1   0.0000
    17 C8       3.1339   4.9998   4.6754   C.3       1 RES1   0.0000
    18 H7       3.1754   4.7324   3.7237   H         1 RES1   0.0000
    19 H8       2.1848   5.1628   4.9026   H         1 RES1   0.0000
    20 C9       3.9174   6.3023   4.8593   C.3       1 RES1   0.0000
    21 H9       4.8738   6.1222   4.6831   H         1 RES1   0.0000
    22 H10      3.6063   6.9546   4.1841   H         1 RES1   0.0000
    23 C10      3.7906   6.9356   6.2421   C.3       1 RES1   0.0000
    24 H11      4.1026   6.2853   6.9189   H         1 RES1   0.0000
    25 H12      4.3882   7.7243   6.2854   H         1 RES1   0.0000
    26 C11      2.3795   7.3755   6.6021   C.3       1 RES1   0.0000
    27 H13      1.7983   6.5754   6.6562   H         1 RES1   0.0000
    28 H14      2.0280   7.9538   5.8790   H         1 RES1   0.0000
    29 C12      2.3055   8.1320   7.9247   C.3       1 RES1   0.0000
    30 H15      2.5880   7.5442   8.6540   H         1 RES1   0.0000
    31 H16      1.3845   8.4278   8.0808   H         1 RES1   0.0000
    32 H17      2.8973   8.9131   7.8877   H         1 RES1   0.0000
    33 C13      7.2130   0.4076   2.5787   C.2       1 RES1   0.0000
    34 H18      7.7138  -0.2029   2.0519   H         1 RES1   0.0000
    35 N3       5.9268   0.4302   2.5724   N.2       1 RES1   0.0000
    36 C14      5.1263  -0.4892   1.7413   C.3       1 RES1   0.0000
    37 H19      4.5684   0.0569   1.1341   H         1 RES1   0.0000
    38 H20      4.5120  -0.9821   2.3393   H         1 RES1   0.0000
    39 C15      5.8753  -1.5111   0.8946   C.3       1 RES1   0.0000
    40 H21      6.6299  -1.0523   0.4465   H         1 RES1   0.0000
    41 H22      5.2646  -1.8372   0.1870   H         1 RES1   0.0000
    42 C16      6.4257  -2.7170   1.6486   C.3       1 RES1   0.0000
    43 H23      6.9761  -3.2536   1.0259   H         1 RES1   0.0000
    44 H24      7.0208  -2.3909   2.3702   H         1 RES1   0.0000
    45 C17      5.3716  -3.6214   2.2651   C.3       1 RES1   0.0000
    46 H25      4.9307  -3.1455   3.0129   H         1 RES1   0.0000
    47 H26      4.6804  -3.8243   1.5853   H         1 RES1   0.0000
    48 C18      5.9616  -4.9145   2.7765   C.3       1 RES1   0.0000
    49 H27      6.6988  -4.7021   3.4023   H         1 RES1   0.0000
    50 H28      6.3507  -5.4093   2.0132   H         1 RES1   0.0000
    51 C19      4.9703  -5.8151   3.4826   C.3       1 RES1   0.0000
    52 H29      4.5651  -5.3297   4.2320   H         1 RES1   0.0000
    53 H30      5.4351  -6.6095   3.8210   H         1 RES1   0.0000
    54 H31      4.2706  -6.0881   2.8538   H         1 RES1   0.0000
    55 N4       3.2861   1.4271   3.4111   N.ar      1 RES1   0.0000
    56 C20      2.6386   0.6029   4.2644   C.ar      1 RES1   0.0000
    57 C21      1.3007   0.2749   4.0636   C.ar      1 RES1   0.0000
    58 H32      0.8498  -0.3090   4.6615   H         1 RES1   0.0000
    59 C22      0.6368   0.8191   2.9681   C.ar      1 RES1   0.0000
    60 H33     -0.2769   0.6105   2.8136   H         1 RES1   0.0000
    61 C23      1.3113   1.6704   2.1013   C.ar      1 RES1   0.0000
    62 H34      0.8632   2.0439   1.3519   H         1 RES1   0.0000
    63 C24      2.6451   1.9681   2.3454   C.ar      1 RES1   0.0000
    64 C25      3.5407   0.1517   5.3027   C.2       1 RES1   0.0000
    65 H35      3.2571  -0.4228   6.0042   H         1 RES1   0.0000
    66 N5       4.7599   0.5853   5.2154   N.2       1 RES1   0.0000
    67 C26      5.7028   0.1403   6.2530   C.3       1 RES1   0.0000
    68 H36      5.1998  -0.0645   7.0811   H         1 RES1   0.0000
    69 H37      6.3314   0.8779   6.4554   H         1 RES1   0.0000
    70 C27      6.4927  -1.0807   5.8435   C.3       1 RES1   0.0000
    71 H38      7.1146  -0.8475   5.1096   H         1 RES1   0.0000
    72 H39      5.8775  -1.7841   5.5159   H         1 RES1   0.0000
    73 C28      7.2845  -1.6059   7.0471   C.3       1 RES1   0.0000
    74 H40      7.8958  -0.8930   7.3623   H         1 RES1   0.0000
    75 H41      6.6533  -1.8069   7.7826   H         1 RES1   0.0000
    76 C29      8.0927  -2.8440   6.7412   C.3       1 RES1   0.0000
    77 H42      8.7131  -3.0128   7.4937   H         1 RES1   0.0000
    78 H43      8.6398  -2.6772   5.9331   H         1 RES1   0.0000
    79 C30      7.2497  -4.0897   6.5141   C.3       1 RES1   0.0000
    80 H44      6.7769  -4.3248   7.3500   H         1 RES1   0.0000
    81 H45      6.5711  -3.9058   5.8172   H         1 RES1   0.0000
    82 C31      8.1188  -5.2482   6.0799   C.3       1 RES1   0.0000
    83 H46      8.5963  -5.0112   5.2579   H         1 RES1   0.0000
    84 H47      7.5560  -6.0350   5.9161   H         1 RES1   0.0000
    85 H48      8.7678  -5.4529   6.7860   H         1 RES1   0.0000
    86 C32      3.5690   2.7909   1.5868   C.2       1 RES1   0.0000
    87 H49      3.3103   3.2327   0.7864   H         1 RES1   0.0000
    88 N6       4.7616   2.8865   2.0706   N.2       1 RES1   0.0000
    89 C33      5.7368   3.6991   1.3210   C.3       1 RES1   0.0000
    90 H50      5.4623   3.7351   0.3708   H         1 RES1   0.0000
    91 H51      6.6237   3.2592   1.3643   H         1 RES1   0.0000
    92 C34      5.8583   5.1079   1.8541   C.3       1 RES1   0.0000
    93 H52      6.2112   5.0794   2.7781   H         1 RES1   0.0000
    94 H53      4.9613   5.5269   1.8804   H         1 RES1   0.0000
    95 C35      6.7823   5.9478   0.9858   C.3       1 RES1   0.0000
    96 H54      6.4019   5.9971   0.0726   H         1 RES1   0.0000
    97 H55      7.6576   5.4889   0.9193   H         1 RES1   0.0000
    98 C36      7.0165   7.3755   1.4972   C.3       1 RES1   0.0000
    99 H56      7.2974   7.3300   2.4459   H         1 RES1   0.0000
   100 H57      7.7606   7.7793   0.9842   H         1 RES1   0.0000
   101 C37      5.8041   8.2818   1.3921   C.3       1 RES1   0.0000
   102 H58      5.0674   7.9083   1.9375   H         1 RES1   0.0000
   103 H59      5.4999   8.3140   0.4512   H         1 RES1   0.0000
   104 C38      6.1165   9.7095   1.8742   C.3       1 RES1   0.0000
   105 H60      6.3520   9.6905   2.8244   H         1 RES1   0.0000
   106 H61      5.3296  10.2783   1.7429   H         1 RES1   0.0000
   107 H62      6.8685  10.0697   1.3597   H         1 RES1   0.0000
   108 Cl1      8.1760   7.6574   5.5879   Cl        2 RES2   0.0000
   109 O1       9.0671   7.5006   4.4854   O.2       2 RES2   0.0000
   110 O2       8.8967   8.2607   6.6831   O.3       2 RES2  -1.0000
   111 O3       7.0972   8.5102   5.1899   O.2       2 RES2   0.0000
   112 O4       7.6569   6.3956   6.0119   O.2       2 RES2   0.0000
   113 Cl2      1.3554   6.2492   1.3433   Cl        3 RES3   0.0000
   114 O5       0.4849   6.9885   0.4776   O.3       3 RES3  -1.0000
   115 O6       1.0385   6.5481   2.7024   O.2       3 RES3   0.0000
   116 O7       2.6743   6.6398   1.0630   O.2       3 RES3   0.0000
   117 O8       1.2002   4.8523   1.1001   O.2       3 RES3   0.0000
@<TRIPOS>BOND
     1     1     2    1
     2     2     3   ar
     3     3     4   ar
     4     4     5    1
     5     6     4   ar
     6     7     6    1
     7     8     6   ar
     8     9     8    1
     9    10     2   ar
    10    11     3    1
    11    12    11    1
    12    13     1    1
    13    14    13    1
    14    15    14    1
    15    16    14    1
    16    17    14    1
    17    18    17    1
    18    19    17    1
    19    20    17    1
    20    21    20    1
    21    22    20    1
    22    23    20    1
    23    24    23    1
    24    25    23    1
    25    26    23    1
    26    27    26    1
    27    28    26    1
    28    29    26    1
    29    30    29    1
    30    31    29    1
    31    32    29    1
    32    33    10    1
    33    34    33    1
    34    35     1    1
    35    36    35    1
    36    37    36    1
    37    38    36    1
    38    39    36    1
    39    40    39    1
    40    41    39    1
    41    42    39    1
    42    43    42    1
    43    44    42    1
    44    45    42    1
    45    46    45    1
    46    47    45    1
    47    48    45    1
    48    49    48    1
    49    50    48    1
    50    51    48    1
    51    52    51    1
    52    53    51    1
    53    54    51    1
    54    55     1    1
    55    56    55   ar
    56    57    56   ar
    57    58    57    1
    58    59    57   ar
    59    60    59    1
    60    61    59   ar
    61    62    61    1
    62    63    55   ar
    63    64    56    1
    64    65    64    1
    65    66     1    1
    66    67    66    1
    67    68    67    1
    68    69    67    1
    69    70    67    1
    70    71    70    1
    71    72    70    1
    72    73    70    1
    73    74    73    1
    74    75    73    1
    75    76    73    1
    76    77    76    1
    77    78    76    1
    78    79    76    1
    79    80    79    1
    80    81    79    1
    81    82    79    1
    82    83    82    1
    83    84    82    1
    84    85    82    1
    85    86    63    1
    86    87    86    1
    87    88     1    1
    88    89    88    1
    89    90    89    1
    90    91    89    1
    91    92    89    1
    92    93    92    1
    93    94    92    1
    94    95    92    1
    95    96    95    1
    96    97    95    1
    97    98    95    1
    98    99    98    1
    99   100    98    1
   100   101    98    1
   101   102   101    1
   102   103   101    1
   103   104   101    1
   104   105   104    1
   105   106   104    1
   106   107   104    1
   107     8    10   ar
   108    11    13    2
   109    33    35    2
   110    61    63   ar
   111    64    66    2
   112    86    88    2
   113   108   109    2
   114   110   108    1
   115   111   108    2
   116   112   108    2
   117   113   114    1
   118   115   113    2
   119   116   113    2
   120   117   113    2
@<TRIPOS>SUBSTRUCTURE
     1 RES1        1 GROUP             0 ****  ****    0  
     2 RES2      108 GROUP             0 ****  ****    0  
     3 RES3      113 GROUP             0 ****  ****    0  
@<TRIPOS>CRYSIN
   14.4640   18.9601   16.6186   90.0000  111.6070   90.0000   231     1
