@<TRIPOS>MOLECULE
HUQQIV
   198   213     4     0     0
SMALL
USER_CHARGES
****
Generated from the CSD

@<TRIPOS>ATOM
     1 C1      19.9910   5.2016   8.8390   C.2       1 RES1   0.0000
     2 C2      21.1366   5.6649   9.5680   C.2       1 RES1   0.0000
     3 H1      21.8370   5.1267   9.9178   H         1 RES1   0.0000
     4 C3      21.0329   7.0094   9.6649   C.2       1 RES1   0.0000
     5 H2      21.6430   7.5891  10.1066   H         1 RES1   0.0000
     6 C4      19.8337   7.4008   8.9794   C.2       1 RES1   0.0000
     7 C5      19.4193   8.7332   8.7856   C.2       1 RES1   0.0000
     8 C6      18.2729   9.1098   8.0667   C.2       1 RES1   0.0000
     9 C7      17.8096  10.4626   7.9100   C.2       1 RES1   0.0000
    10 H3      18.2455  11.2468   8.2194   H         1 RES1   0.0000
    11 C8      16.6354  10.4096   7.2405   C.2       1 RES1   0.0000
    12 H4      16.0968  11.1501   6.9881   H         1 RES1   0.0000
    13 C9      16.3533   9.0242   6.9827   C.2       1 RES1   0.0000
    14 C10     15.2131   8.5553   6.3223   C.2       1 RES1   0.0000
    15 C11     14.1637   9.5475   5.9382   C.ar      1 RES1   0.0000
    16 C12     13.9276   9.8956   4.6159   C.ar      1 RES1   0.0000
    17 H5      14.4848   9.5420   3.9335   H         1 RES1   0.0000
    18 C13     12.8851  10.7573   4.2738   C.ar      1 RES1   0.0000
    19 H6      12.7396  10.9955   3.3654   H         1 RES1   0.0000
    20 C14     12.0634  11.2638   5.2706   C.ar      1 RES1   0.0000
    21 C15     12.3086  10.9412   6.6044   C.ar      1 RES1   0.0000
    22 H7      11.7577  11.3008   7.2900   H         1 RES1   0.0000
    23 C16     13.3511  10.0985   6.9270   C.ar      1 RES1   0.0000
    24 H8      13.5190   9.8901   7.8387   H         1 RES1   0.0000
    25 C17     10.6996  12.4417   3.7082   C.3       1 RES1   0.0000
    26 H9      10.4900  11.6366   3.1899   H         1 RES1   0.0000
    27 H10     11.4793  12.8873   3.3178   H         1 RES1   0.0000
    28 H11      9.9323  13.0501   3.6911   H         1 RES1   0.0000
    29 C18     20.2517   9.7991   9.4160   C.ar      1 RES1   0.0000
    30 C19     20.8736  10.7913   8.6558   C.ar      1 RES1   0.0000
    31 H12     20.7430  10.8119   7.7153   H         1 RES1   0.0000
    32 C20     21.6769  11.7429   9.2514   C.ar      1 RES1   0.0000
    33 H13     22.0844  12.4179   8.7221   H         1 RES1   0.0000
    34 C21     21.8905  11.7155  10.6295   C.ar      1 RES1   0.0000
    35 C22     21.2621  10.7559  11.4140   C.ar      1 RES1   0.0000
    36 H14     21.3876  10.7445  12.3552   H         1 RES1   0.0000
    37 C23     20.4444   9.8104  10.7950   C.ar      1 RES1   0.0000
    38 H15     20.0085   9.1570  11.3291   H         1 RES1   0.0000
    39 C24     22.9768  12.6712  12.5292   C.3       1 RES1   0.0000
    40 H16     23.6111  13.3847  12.7493   H         1 RES1   0.0000
    41 H17     23.3537  11.8059  12.7924   H         1 RES1   0.0000
    42 H18     22.1354  12.8208  13.0095   H         1 RES1   0.0000
    43 N1      19.2102   6.2838   8.4950   N.2       1 RES1   0.0000
    44 N2      17.3784   8.2506   7.4793   N.2       1 RES1   0.0000
    45 O1      22.7270  12.6736  11.1159   O.3       1 RES1   0.0000
    46 O2      10.9858  12.0761   5.0584   O.3       1 RES1   0.0000
    47 O3      18.5607   6.2161   5.6357   O.3       1 RES1   0.0000
    48 H19     18.8591   7.0140   5.4608   H         1 RES1   0.0000
    49 H20     18.0576   5.9618   4.9700   H         1 RES1   0.0000
    50 Fe1     17.4699   6.2063   7.4357   Fe        1 RES1   1.0000
    51 C1A     14.9488   7.2109   6.0324   C.2       1 RES1   0.0000
    52 C2A     13.8032   6.7476   5.3034   C.2       1 RES1   0.0000
    53 H1A     13.1028   7.2859   4.9537   H         1 RES1   0.0000
    54 C3A     13.9068   5.4031   5.2065   C.2       1 RES1   0.0000
    55 H2A     13.2967   4.8235   4.7648   H         1 RES1   0.0000
    56 C4A     15.1060   5.0117   5.8921   C.2       1 RES1   0.0000
    57 C5A     15.5204   3.6793   6.0858   C.2       1 RES1   0.0000
    58 C6A     16.6668   3.3028   6.8047   C.2       1 RES1   0.0000
    59 C7A     17.1302   1.9499   6.9615   C.2       1 RES1   0.0000
    60 H3A     16.6943   1.1658   6.6520   H         1 RES1   0.0000
    61 C8A     18.3043   2.0029   7.6310   C.2       1 RES1   0.0000
    62 H4A     18.8429   1.2624   7.8833   H         1 RES1   0.0000
    63 C9A     18.5864   3.3883   7.8887   C.2       1 RES1   0.0000
    64 C10A    19.7267   3.8572   8.5491   C.2       1 RES1   0.0000
    65 C11A    20.7760   2.8650   8.9333   C.ar      1 RES1   0.0000
    66 C12A    21.0121   2.5169  10.2555   C.ar      1 RES1   0.0000
    67 H5A     20.4550   2.8705  10.9379   H         1 RES1   0.0000
    68 C13A    22.0546   1.6553  10.5977   C.ar      1 RES1   0.0000
    69 H6A     22.2001   1.4170  11.5060   H         1 RES1   0.0000
    70 C14A    22.8763   1.1488   9.6008   C.ar      1 RES1   0.0000
    71 C15A    22.6311   1.4713   8.2670   C.ar      1 RES1   0.0000
    72 H7A     23.1821   1.1117   7.5815   H         1 RES1   0.0000
    73 C16A    21.5887   2.3141   7.9445   C.ar      1 RES1   0.0000
    74 H8A     21.4208   2.5224   7.0327   H         1 RES1   0.0000
    75 C17A    24.2402  -0.0292  11.1632   C.3       1 RES1   0.0000
    76 H9A     24.4498   0.7760  11.6815   H         1 RES1   0.0000
    77 H10A    23.4604  -0.4748  11.5536   H         1 RES1   0.0000
    78 H11A    25.0074  -0.6376  11.1803   H         1 RES1   0.0000
    79 C18A    14.6880   2.6134   5.4554   C.ar      1 RES1   0.0000
    80 C19A    14.0661   1.6213   6.2157   C.ar      1 RES1   0.0000
    81 H12A    14.1968   1.6007   7.1561   H         1 RES1   0.0000
    82 C20A    13.2629   0.6696   5.6201   C.ar      1 RES1   0.0000
    83 H13A    12.8553  -0.0054   6.1493   H         1 RES1   0.0000
    84 C21A    13.0492   0.6970   4.2419   C.ar      1 RES1   0.0000
    85 C22A    13.6776   1.6566   3.4575   C.ar      1 RES1   0.0000
    86 H14A    13.5522   1.6680   2.5162   H         1 RES1   0.0000
    87 C23A    14.4954   2.6021   4.0764   C.ar      1 RES1   0.0000
    88 H15A    14.9313   3.2555   3.5424   H         1 RES1   0.0000
    89 C24A    11.9630  -0.2587   2.3422   C.3       1 RES1   0.0000
    90 H16A    11.3287  -0.9721   2.1222   H         1 RES1   0.0000
    91 H17A    11.5861   0.6066   2.0790   H         1 RES1   0.0000
    92 H18A    12.8044  -0.4083   1.8619   H         1 RES1   0.0000
    93 N1A     15.7296   6.1287   6.3764   N.2       1 RES1   0.0000
    94 O1A     12.2127  -0.2610   3.7555   O.3       1 RES1   0.0000
    95 O2A     23.9540   0.3364   9.8131   O.3       1 RES1   0.0000
    96 N2A     17.5614   4.1619   7.3921   N.2       1 RES1   0.0000
    97 O3A     16.3791   6.1964   9.2358   O.3       1 RES1   0.0000
    98 H19A    16.0806   5.3985   9.4106   H         1 RES1   0.0000
    99 H20A    16.8822   6.4507   9.9014   H         1 RES1   0.0000
   100 C25     10.6248   4.0953   4.9852   C.3       2 RES2   0.0000
   101 H21     10.9840   4.3647   4.1030   H         2 RES2   0.0000
   102 H22     11.2846   3.4971   5.4191   H         2 RES2   0.0000
   103 C26     10.4062   5.3118   5.8375   C.3       2 RES2   0.0000
   104 H23      9.7513   5.1022   6.5494   H         2 RES2   0.0000
   105 H24     11.2576   5.5678   6.2713   H         2 RES2   0.0000
   106 C27      9.8263   7.5777   5.8509   C.3       2 RES2   0.0000
   107 H25     10.7253   7.8341   6.1776   H         2 RES2   0.0000
   108 H26      9.2522   7.4007   6.6371   H         2 RES2   0.0000
   109 C28      9.2471   8.6966   5.0472   C.3       2 RES2   0.0000
   110 H27      9.3661   9.5528   5.5307   H         2 RES2   0.0000
   111 H28      9.7154   8.7631   4.1774   H         2 RES2   0.0000
   112 C29      7.2888   9.4136   3.9369   C.3       2 RES2   0.0000
   113 H29      7.8003   9.4397   3.0903   H         2 RES2   0.0000
   114 H30      7.3108  10.3155   4.3439   H         2 RES2   0.0000
   115 C30      5.8684   9.0017   3.6703   C.3       2 RES2   0.0000
   116 H31      5.3703   8.9280   4.5224   H         2 RES2   0.0000
   117 H32      5.4201   9.6779   3.1037   H         2 RES2   0.0000
   118 C31      4.5892   7.1878   2.8510   C.3       2 RES2   0.0000
   119 H33      4.0645   7.7252   2.2054   H         2 RES2   0.0000
   120 H34      4.1128   7.1906   3.7193   H         2 RES2   0.0000
   121 C32      4.7336   5.7870   2.3513   C.3       2 RES2   0.0000
   122 H35      3.8448   5.4204   2.1132   H         2 RES2   0.0000
   123 H36      5.3021   5.7749   1.5407   H         2 RES2   0.0000
   124 C33      6.0000   3.8529   2.8116   C.3       2 RES2   0.0000
   125 H37      6.7363   4.1565   2.2248   H         2 RES2   0.0000
   126 H38      5.3636   3.3269   2.2649   H         2 RES2   0.0000
   127 C34      6.5389   3.0109   3.9002   C.3       2 RES2   0.0000
   128 H39      7.0935   3.5555   4.5150   H         2 RES2   0.0000
   129 H40      5.8022   2.6014   4.4183   H         2 RES2   0.0000
   130 C35      8.2816   1.4009   4.1435   C.3       2 RES2   0.0000
   131 H41      8.4473   0.4717   3.8413   H         2 RES2   0.0000
   132 H42      7.9094   1.3587   5.0607   H         2 RES2   0.0000
   133 C36      9.5808   2.1465   4.1734   C.3       2 RES2   0.0000
   134 H43     10.2584   1.6185   4.6652   H         2 RES2   0.0000
   135 H44      9.9074   2.2850   3.2494   H         2 RES2   0.0000
   136 O4       7.8658   8.4549   4.8308   O.3       2 RES2   0.0000
   137 O5       5.8886   7.7428   3.0064   O.3       2 RES2   0.0000
   138 O6       5.3306   4.9869   3.3773   O.3       2 RES2   0.0000
   139 O7       7.3281   2.0060   3.2818   O.3       2 RES2   0.0000
   140 O8       9.4003   3.4104   4.8125   O.3       2 RES2   0.0000
   141 O9       9.9244   6.4023   5.0554   O.3       2 RES2   0.0000
   142 C37     12.2988   6.3259   1.6983   C.3       3 RES3   0.0000
   143 H45     11.8680   6.2269   2.5847   H         3 RES3   0.0000
   144 H46     13.2274   6.6388   1.8381   H         3 RES3   0.0000
   145 C38     11.5611   8.5386   1.5466   C.3       3 RES3   0.0000
   146 H47     12.4851   8.8837   1.6373   H         3 RES3   0.0000
   147 H48     11.1727   8.4545   2.4523   H         3 RES3   0.0000
   148 C39     10.7542   9.4818   0.7436   C.3       3 RES3   0.0000
   149 H49     10.7843  10.3810   1.1570   H         3 RES3   0.0000
   150 H50     11.1331   9.5508  -0.1695   H         3 RES3   0.0000
   151 C40      8.6337   9.9513  -0.0892   C.3       3 RES3   0.0000
   152 H51      8.9990  10.0229  -1.0068   H         3 RES3   0.0000
   153 H52      8.6676  10.8477   0.3287   H         3 RES3   0.0000
   154 C41      7.2285   9.4770  -0.1457   C.3       3 RES3   0.0000
   155 H53      6.8890   9.3259   0.7718   H         3 RES3   0.0000
   156 H54      6.6597  10.1624  -0.5785   H         3 RES3   0.0000
   157 C42      5.8323   7.8076  -0.9919   C.3       3 RES3   0.0000
   158 H55      5.2879   8.4628  -1.4961   H         3 RES3   0.0000
   159 H56      5.4365   7.7030  -0.0907   H         3 RES3   0.0000
   160 O10     11.5854   7.2665   0.9171   O.3       3 RES3   0.0000
   161 O11      9.4155   9.0388   0.6674   O.3       3 RES3   0.0000
   162 O12      7.1709   8.2671  -0.8859   O.3       3 RES3   0.0000
   163 O13      8.3536   6.3059   2.3762   O.3       3 RES3   0.0000
   164 H57      7.7150   6.6226   2.8821   H         3 RES3   0.0000
   165 H58      9.0980   6.2572   2.8315   H         3 RES3   0.0000
   166 K1       9.0694   6.4128   0.0000   K         3 RES3   1.0000
   167 C37A     5.8399   6.4997  -1.6983   C.3       3 RES3   0.0000
   168 H45A     6.2707   6.5987  -2.5847   H         3 RES3   0.0000
   169 H46A     4.9113   6.1868  -1.8381   H         3 RES3   0.0000
   170 C38A     6.5776   4.2869  -1.5466   C.3       3 RES3   0.0000
   171 H47A     5.6536   3.9419  -1.6373   H         3 RES3   0.0000
   172 H48A     6.9660   4.3711  -2.4523   H         3 RES3   0.0000
   173 C39A     7.3845   3.3438  -0.7436   C.3       3 RES3   0.0000
   174 H49A     7.3544   2.4446  -1.1570   H         3 RES3   0.0000
   175 H50A     7.0056   3.2748   0.1695   H         3 RES3   0.0000
   176 C40A     9.5050   2.8743   0.0892   C.3       3 RES3   0.0000
   177 H51A     9.1397   2.8026   1.0068   H         3 RES3   0.0000
   178 H52A     9.4711   1.9779  -0.3287   H         3 RES3   0.0000
   179 C41A    10.9102   3.3486   0.1457   C.3       3 RES3   0.0000
   180 H53A    11.2497   3.4997  -0.7718   H         3 RES3   0.0000
   181 H54A    11.4790   2.6632   0.5785   H         3 RES3   0.0000
   182 C42A    12.3064   5.0180   0.9919   C.3       3 RES3   0.0000
   183 H55A    12.8508   4.3628   1.4961   H         3 RES3   0.0000
   184 H56A    12.7022   5.1226   0.0907   H         3 RES3   0.0000
   185 O10A     6.5533   5.5591  -0.9171   O.3       3 RES3   0.0000
   186 O11A     8.7232   3.7868  -0.6674   O.3       3 RES3   0.0000
   187 O12A    10.9678   4.5585   0.8859   O.3       3 RES3   0.0000
   188 O13A     9.7851   6.5197  -2.3762   O.3       3 RES3   0.0000
   189 H57A    10.4237   6.2030  -2.8821   H         3 RES3   0.0000
   190 H58A     9.0407   6.5684  -2.8315   H         3 RES3   0.0000
   191 C43      8.6557   0.5381  14.6127   C.3       4 RES4   0.0000
   192 O14      7.6181   2.4197  13.2695   O.2       4 RES4   0.0000
   193 O15      6.2814   1.3408  14.9407   O.2       4 RES4   0.0000
   194 O16      8.0213   2.7992  15.6492   O.3       4 RES4  -1.0000
   195 F1       8.3109  -0.3638  13.7085   F         4 RES4   0.0000
   196 F2       9.8914   0.8895  14.3346   F         4 RES4   0.0000
   197 F3       8.6628  -0.0851  15.7866   F         4 RES4   0.0000
   198 S1       7.5317   1.9472  14.6078   S.o2      4 RES4   0.0000
@<TRIPOS>BOND
     1     1     2    2
     2     2     3    1
     3     4     2    1
     4     5     4    1
     5     6     4    2
     6     7     6    1
     7     8     7    2
     8     9     8    1
     9    10     9    1
    10    11     9    2
    11    12    11    1
    12    13    11    1
    13    14    13    1
    14    15    14    1
    15    16    15   ar
    16    17    16    1
    17    18    16   ar
    18    19    18    1
    19    20    18   ar
    20    21    20   ar
    21    22    21    1
    22    23    15   ar
    23    24    23    1
    24    25    26    1
    25    27    25    1
    26    28    25    1
    27    29     7    1
    28    30    29   ar
    29    31    30    1
    30    32    30   ar
    31    33    32    1
    32    34    32   ar
    33    35    34   ar
    34    36    35    1
    35    37    29   ar
    36    38    37    1
    37    39    40    1
    38    41    39    1
    39    42    39    1
    40    43     1    1
    41    44     8    1
    42    45    34    1
    43    46    20    1
    44    47    48    1
    45    49    47    1
    46    50    43    1
    47    51    14    2
    48    52    51    1
    49    53    52    1
    50    54    52    2
    51    55    54    1
    52    56    54    1
    53    57    56    2
    54    58    57    1
    55    59    58    1
    56    60    59    1
    57    61    59    2
    58    62    61    1
    59    63    61    1
    60    64     1    1
    61    65    64    1
    62    66    65   ar
    63    67    66    1
    64    68    66   ar
    65    69    68    1
    66    70    68   ar
    67    71    70   ar
    68    72    71    1
    69    73    65   ar
    70    74    73    1
    71    75    76    1
    72    77    75    1
    73    78    75    1
    74    79    57    1
    75    80    79   ar
    76    81    80    1
    77    82    80   ar
    78    83    82    1
    79    84    82   ar
    80    85    84   ar
    81    86    85    1
    82    87    79   ar
    83    88    87    1
    84    89    90    1
    85    91    89    1
    86    92    89    1
    87    93    50    1
    88    94    84    1
    89    95    70    1
    90    96    50    1
    91    97    50    1
    92    98    97    1
    93    99    97    1
    94     6    43    1
    95    13    44    2
    96    21    23   ar
    97    25    46    1
    98    35    37   ar
    99    39    45    1
   100    44    50    1
   101    47    50    1
   102    51    93    1
   103    56    93    1
   104    58    96    2
   105    63    64    2
   106    63    96    1
   107    71    73   ar
   108    75    95    1
   109    85    87   ar
   110    89    94    1
   111   100   101    1
   112   102   100    1
   113   103   100    1
   114   104   103    1
   115   105   103    1
   116   106   107    1
   117   108   106    1
   118   109   106    1
   119   110   109    1
   120   111   109    1
   121   112   113    1
   122   114   112    1
   123   115   112    1
   124   116   115    1
   125   117   115    1
   126   118   119    1
   127   120   118    1
   128   121   118    1
   129   122   121    1
   130   123   121    1
   131   124   125    1
   132   126   124    1
   133   127   124    1
   134   128   127    1
   135   129   127    1
   136   130   131    1
   137   132   130    1
   138   133   130    1
   139   134   133    1
   140   135   133    1
   141   136   109    1
   142   137   115    1
   143   138   121    1
   144   139   127    1
   145   140   100    1
   146   141   103    1
   147   106   141    1
   148   112   136    1
   149   118   137    1
   150   124   138    1
   151   130   139    1
   152   133   140    1
   153   142   143    1
   154   144   142    1
   155   145   146    1
   156   147   145    1
   157   148   145    1
   158   149   148    1
   159   150   148    1
   160   151   152    1
   161   153   151    1
   162   154   151    1
   163   155   154    1
   164   156   154    1
   165   157   158    1
   166   159   157    1
   167   160   142    1
   168   161   148    1
   169   162   154    1
   170   163   164    1
   171   165   163    1
   172   166   160    1
   173   167   157    1
   174   168   167    1
   175   169   167    1
   176   170   171    1
   177   172   170    1
   178   173   170    1
   179   174   173    1
   180   175   173    1
   181   176   177    1
   182   178   176    1
   183   179   176    1
   184   180   179    1
   185   181   179    1
   186   182   142    1
   187   183   182    1
   188   184   182    1
   189   185   166    1
   190   186   166    1
   191   187   166    1
   192   188   166    1
   193   189   188    1
   194   190   188    1
   195   145   160    1
   196   151   161    1
   197   157   162    1
   198   161   166    1
   199   162   166    1
   200   163   166    1
   201   167   185    1
   202   170   185    1
   203   173   186    1
   204   176   186    1
   205   179   187    1
   206   182   187    1
   207   191   195    1
   208   192   198    2
   209   193   198    2
   210   194   198    1
   211   196   191    1
   212   197   191    1
   213   198   191    1
@<TRIPOS>SUBSTRUCTURE
     1 RES1        1 GROUP             0 ****  ****    0  
     2 RES2      100 GROUP             0 ****  ****    0  
     3 RES3      142 GROUP             0 ****  ****    0  
     4 RES4      191 GROUP             0 ****  ****    0  
@<TRIPOS>CRYSIN
   12.1294   14.1636   15.5934   84.0810   72.5670   64.8950     2     1
