@<TRIPOS>MOLECULE
HUQZEB01
    90    93     5     0     0
SMALL
NO_CHARGES
****
Generated from the CSD

@<TRIPOS>ATOM
     1 C1       3.9443   2.1526   8.3013   C.1       1 RES1   0.0000
     2 C2       7.1209   4.3852   5.1626   C.ar      1 RES1   0.0000
     3 H1       7.9343   4.4676   5.6059   H         1 RES1   0.0000
     4 C3       6.8504   5.2588   4.1295   C.ar      1 RES1   0.0000
     5 H2       7.4706   5.9082   3.8916   H         1 RES1   0.0000
     6 C4       4.7615   4.1853   3.8754   C.ar      1 RES1   0.0000
     7 H3       3.9344   4.0906   3.4605   H         1 RES1   0.0000
     8 C5       5.1117   3.3602   4.9142   C.ar      1 RES1   0.0000
     9 H4       4.5011   2.7131   5.1860   H         1 RES1   0.0000
    10 C6       5.6432   5.1577   3.4512   C.ar      1 RES1   0.0000
    11 C7       5.3644   5.9882   2.3278   C.1       1 RES1   0.0000
    12 C8       5.2669   6.6634   1.3436   C.1       1 RES1   0.0000
    13 C9       5.2023   7.3951   0.1440   C.2       1 RES1   0.0000
    14 C10      4.9840   6.9006  -1.1178   C.2       1 RES1   0.0000
    15 C11      4.3632   5.3758  -2.7266   C.3       1 RES1   0.0000
    16 H5       4.5874   4.4597  -2.9501   H         1 RES1   0.0000
    17 H6       3.4005   5.4661  -2.8062   H         1 RES1   0.0000
    18 C12      4.9620   6.2209  -3.6835   C.3       1 RES1   0.0000
    19 H7       4.5350   6.0527  -4.5379   H         1 RES1   0.0000
    20 H8       5.8919   5.9582  -3.7709   H         1 RES1   0.0000
    21 C13      5.0801   7.8824  -2.1226   C.2       1 RES1   0.0000
    22 C14      5.3575   9.1243  -1.6428   C.2       1 RES1   0.0000
    23 C15      5.5278  10.3006  -2.3908   C.1       1 RES1   0.0000
    24 C16      5.6693  11.2941  -3.0541   C.1       1 RES1   0.0000
    25 C17      5.8464  12.4503  -3.8924   C.ar      1 RES1   0.0000
    26 C18      6.5441  13.5837  -3.4549   C.ar      1 RES1   0.0000
    27 H9       6.8554  13.6351  -2.5803   H         1 RES1   0.0000
    28 C19      6.7625  14.6115  -4.3242   C.ar      1 RES1   0.0000
    29 H10      7.2589  15.3402  -4.0291   H         1 RES1   0.0000
    30 C20      5.5882  13.5637  -5.9839   C.ar      1 RES1   0.0000
    31 H11      5.2232  13.5705  -6.8387   H         1 RES1   0.0000
    32 C21      5.3726  12.4617  -5.1964   C.ar      1 RES1   0.0000
    33 H12      4.9123  11.7268  -5.5326   H         1 RES1   0.0000
    34 N1       4.9194   1.9342   7.8155   N.2       1 RES1   0.0000
    35 N2       6.2942  14.6286  -5.5902   N.ar      1 RES1   0.0000
    36 N3       6.2887   3.4330   5.5625   N.ar      1 RES1   0.0000
    37 O1       4.7216   5.6045  -1.3619   O.3       1 RES1   0.0000
    38 O2       4.9222   7.6115  -3.4416   O.3       1 RES1   0.0000
    39 Fe1      6.8669   1.9022   7.0565   Fe        1 RES1   0.0000
    40 Se1      2.3787   2.4632   9.1077   Se        1 RES1   0.0000
    41 S1       5.5260   9.0978   0.0858   S.3       1 RES1   0.0000
    42 C1B      9.7894   2.1526   5.8118   C.1       1 RES1   0.0000
    43 C2B      6.6128   4.3852   8.9505   C.ar      1 RES1   0.0000
    44 H1B      5.7994   4.4676   8.5071   H         1 RES1   0.0000
    45 C3B      6.8833   5.2588   9.9836   C.ar      1 RES1   0.0000
    46 H2B      6.2631   5.9082  10.2214   H         1 RES1   0.0000
    47 C4B      8.9722   4.1853  10.2376   C.ar      1 RES1   0.0000
    48 H3B      9.7993   4.0906  10.6526   H         1 RES1   0.0000
    49 C5B      8.6220   3.3602   9.1989   C.ar      1 RES1   0.0000
    50 H4B      9.2326   2.7131   8.9271   H         1 RES1   0.0000
    51 C6B      8.0905   5.1577  10.6618   C.ar      1 RES1   0.0000
    52 C7B      8.3693   5.9882  11.7852   C.1       1 RES1   0.0000
    53 C8B      8.4668   6.6634  12.7695   C.1       1 RES1   0.0000
    54 C9B      8.5314   7.3951  13.9691   C.2       1 RES1   0.0000
    55 C10B     8.7497   6.9006  15.2308   C.2       1 RES1   0.0000
    56 C11B     9.3705   5.3758  16.8397   C.3       1 RES1   0.0000
    57 H5B      9.1463   4.4597  17.0631   H         1 RES1   0.0000
    58 H6B     10.3332   5.4661  16.9192   H         1 RES1   0.0000
    59 C12B     8.7717   6.2209  17.7966   C.3       1 RES1   0.0000
    60 H7B      9.1987   6.0527  18.6509   H         1 RES1   0.0000
    61 H8B      7.8418   5.9582  17.8839   H         1 RES1   0.0000
    62 C13B     8.6536   7.8824  16.2357   C.2       1 RES1   0.0000
    63 C14B     8.3762   9.1243  15.7558   C.2       1 RES1   0.0000
    64 C15B     8.2059  10.3006  16.5038   C.1       1 RES1   0.0000
    65 C16B     8.0644  11.2941  17.1671   C.1       1 RES1   0.0000
    66 C17B     7.8873  12.4503  18.0054   C.ar      1 RES1   0.0000
    67 C18B     7.1896  13.5837  17.5679   C.ar      1 RES1   0.0000
    68 H9B      6.8783  13.6351  16.6933   H         1 RES1   0.0000
    69 C19B     6.9712  14.6115  18.4373   C.ar      1 RES1   0.0000
    70 H10B     6.4748  15.3402  18.1422   H         1 RES1   0.0000
    71 C20B     8.1455  13.5637  20.0970   C.ar      1 RES1   0.0000
    72 H11B     8.5105  13.5705  20.9518   H         1 RES1   0.0000
    73 C21B     8.3611  12.4617  19.3095   C.ar      1 RES1   0.0000
    74 H12B     8.8214  11.7268  19.6456   H         1 RES1   0.0000
    75 N1B      8.8143   1.9342   6.2975   N.2       1 RES1   0.0000
    76 N2B      7.4395  14.6286  19.7032   N.ar      1 RES1   0.0000
    77 N3B      7.4450   3.4330   8.5505   N.ar      1 RES1   0.0000
    78 O1B      9.0121   5.6045  15.4750   O.3       1 RES1   0.0000
    79 O2B      8.8115   7.6115  17.5547   O.3       1 RES1   0.0000
    80 Se1B    11.3550   2.4632   5.0053   Se        1 RES1   0.0000
    81 S1B      8.2077   9.0978  14.0272   S.3       1 RES1   0.0000
    82 N2M      6.2942   0.3540   5.5902   N.3       1 RES1   0.0000
    83 N2O      7.4395   0.3540   8.5229   N.3       1 RES1   0.0000
    84 Fe1M     6.8669  16.1768  -7.0565   Fe        1 RES1   0.0000
    85 Fe1M     6.8669  16.1768  21.1696   Fe        1 RES1   0.0000
    86 C22      4.6969  16.3273   0.7903   C.2       2 RES2   0.0000
    87 O3       4.4085  16.7841  -0.4629   O.3       2 RES2   0.0000
    88 O4       8.9956   7.1373   7.0565   O.3       3 RES3   0.0000
    89 O5       4.2574  12.7329   2.0887   O.3       4 RES4   0.0000
    90 O6       6.8669  14.2746   0.0000   O.3       5 RES5   0.0000
@<TRIPOS>BOND
     1     1    34    2
     2     2     3    1
     3     4     2   ar
     4     5     4    1
     5     6     7    1
     6     8     6   ar
     7     9     8    1
     8    10     4   ar
     9    11    10    1
    10    12    11    3
    11    13    12    1
    12    14    13    2
    13    15    16    1
    14    17    15    1
    15    18    15    1
    16    19    18    1
    17    20    18    1
    18    21    14    1
    19    22    21    2
    20    23    22    1
    21    24    23    3
    22    25    24    1
    23    26    25   ar
    24    27    26    1
    25    28    26   ar
    26    29    28    1
    27    30    31    1
    28    32    25   ar
    29    33    32    1
    30    34    39    1
    31    35    28   ar
    32    36     2   ar
    33    37    14    1
    34    38    18    1
    35    39    36    1
    36    40     1    2
    37    41    13    1
    38    42    75    2
    39    43    44    1
    40    45    43   ar
    41    46    45    1
    42    47    48    1
    43    49    47   ar
    44    50    49    1
    45    51    45   ar
    46    52    51    1
    47    53    52    3
    48    54    53    1
    49    55    54    2
    50    56    57    1
    51    58    56    1
    52    59    56    1
    53    60    59    1
    54    61    59    1
    55    62    55    1
    56    63    62    2
    57    64    63    1
    58    65    64    3
    59    66    65    1
    60    67    66   ar
    61    68    67    1
    62    69    67   ar
    63    70    69    1
    64    71    72    1
    65    73    66   ar
    66    74    73    1
    67    75    39    1
    68    76    69   ar
    69    77    39    1
    70    78    55    1
    71    79    59    1
    72    80    42    2
    73    81    54    1
    74    82    39   un
    75    83    39   un
    76    84    35   un
    77    85    76   un
    78     6    10   ar
    79     8    36   ar
    80    15    37    1
    81    21    38    1
    82    22    41    1
    83    30    32   ar
    84    30    35   ar
    85    43    77   ar
    86    47    51   ar
    87    49    77   ar
    88    56    78    1
    89    62    79    1
    90    63    81    1
    91    71    73   ar
    92    71    76   ar
    93    86    87    1
@<TRIPOS>SUBSTRUCTURE
     1 RES1        1 GROUP             0 ****  ****    0  
     2 RES2       86 GROUP             0 ****  ****    0  
     3 RES3       88 GROUP             0 ****  ****    0  
     4 RES4       89 GROUP             0 ****  ****    0  
     5 RES5       90 GROUP             0 ****  ****    0  
