@<TRIPOS>MOLECULE
IBAWEO
   256   279     4     0     0
SMALL
NO_CHARGES
****
Generated from the CSD

@<TRIPOS>ATOM
     1 Fe1     19.4979  19.1383  13.8143   Fe        1 RES1   0.0000
     2 B1      19.6864  19.5129  10.7647   B         1 RES1   0.0000
     3 B2      19.3348  18.7489  16.7287   B         1 RES1   0.0000
     4 O1      20.4747  18.3802  11.2835   O.3       1 RES1   0.0000
     5 O2      20.6723  18.2829  16.3074   O.3       1 RES1   0.0000
     6 O3      20.1184  20.6928  11.5350   O.3       1 RES1   0.0000
     7 O4      19.1118  20.1825  16.4615   O.3       1 RES1   0.0000
     8 O5      18.2799  19.2061  11.0980   O.3       1 RES1   0.0000
     9 O6      18.2270  18.0056  16.0999   O.3       1 RES1   0.0000
    10 N1      20.5758  18.2180  12.6039   N.2       1 RES1   0.0000
    11 N2      20.7757  18.1560  14.8895   N.2       1 RES1   0.0000
    12 N3      19.9737  20.7341  12.8554   N.2       1 RES1   0.0000
    13 N4      19.4267  20.5896  15.1347   N.2       1 RES1   0.0000
    14 N5      18.0179  18.9318  12.5096   N.2       1 RES1   0.0000
    15 N6      18.1788  18.1560  14.7889   N.2       1 RES1   0.0000
    16 C1      21.4882  17.3861  13.0189   C.2       1 RES1   0.0000
    17 C2      21.6490  17.2858  14.4651   C.2       1 RES1   0.0000
    18 C3      19.9162  21.7813  13.3867   C.2       1 RES1   0.0000
    19 C4      19.7415  21.7695  14.8361   C.2       1 RES1   0.0000
    20 C5      17.0297  18.1885  12.7957   C.2       1 RES1   0.0000
    21 C6      17.0067  17.8522  14.2167   C.2       1 RES1   0.0000
    22 C7      19.8151  19.6339   9.2431   C.ar      1 RES1   0.0000
    23 C8      20.9343  19.1236   8.5954   C.ar      1 RES1   0.0000
    24 H1      21.5893  18.6811   9.0827   H         1 RES1   0.0000
    25 C9      21.0722  19.2799   7.2215   C.ar      1 RES1   0.0000
    26 H2      21.8191  18.9377   6.7877   H         1 RES1   0.0000
    27 C10     20.0909  19.9436   6.4953   C.ar      1 RES1   0.0000
    28 H3      20.1828  20.0468   5.5741   H         1 RES1   0.0000
    29 C11     18.9693  20.4510   7.1429   C.ar      1 RES1   0.0000
    30 H4      18.3144  20.8964   6.6556   H         1 RES1   0.0000
    31 C12     18.8315  20.2976   8.5168   C.ar      1 RES1   0.0000
    32 H5      18.0845  20.6398   8.9507   H         1 RES1   0.0000
    33 C13     19.2819  18.5424  18.3509   C.ar      1 RES1   0.0000
    34 C14     19.5117  17.2209  18.7125   C.ar      1 RES1   0.0000
    35 H6      19.6611  16.5779  18.0586   H         1 RES1   0.0000
    36 C15     19.5347  16.8640  20.0549   C.ar      1 RES1   0.0000
    37 H7      19.6979  15.9791  20.3002   H         1 RES1   0.0000
    38 C16     19.3279  17.8168  21.0358   C.ar      1 RES1   0.0000
    39 H8      19.3417  17.5867  21.9350   H         1 RES1   0.0000
    40 C17     19.0980  19.1472  20.6711   C.ar      1 RES1   0.0000
    41 H9      18.9487  19.7932  21.3282   H         1 RES1   0.0000
    42 C18     19.0682  19.5041  19.3287   C.ar      1 RES1   0.0000
    43 H10     18.9096  20.3890  19.0866   H         1 RES1   0.0000
    44 S1      22.6488  16.5218  12.0600   S.3       1 RES1   0.0000
    45 C19     21.4882  15.4570  11.0037   C.3       1 RES1   0.0000
    46 H11     21.1733  14.7136  11.5413   H         1 RES1   0.0000
    47 H12     20.7137  15.9879  10.7616   H         1 RES1   0.0000
    48 C20     22.0627  14.8670   9.7147   C.3       1 RES1   0.0000
    49 H13     22.2856  15.5897   9.0890   H         1 RES1   0.0000
    50 H14     22.8809  14.3803   9.9033   H         1 RES1   0.0000
    51 C21     21.2055  14.1000   9.1896   C.3       1 RES1   0.0000
    52 H15     20.7757  13.6399   9.9284   H         1 RES1   0.0000
    53 H16     21.7019  13.4275   8.6992   H         1 RES1   0.0000
    54 Si1     19.8220  14.6753   8.0515   Si        1 RES1   0.0000
    55 N7      18.2316  15.3390   6.7405   N.4       1 RES1   0.0000
    56 O7      20.7849  15.5808   7.0046   O.3       1 RES1   0.0000
    57 O8      19.3095  13.1502   7.5705   O.3       1 RES1   0.0000
    58 O9      18.9349  15.5130   9.2085   O.3       1 RES1   0.0000
    59 C22     20.2471  16.4009   5.9766   C.3       1 RES1   0.0000
    60 H17     20.8608  16.4540   5.2346   H         1 RES1   0.0000
    61 H18     20.0863  17.2976   6.3130   H         1 RES1   0.0000
    62 C23     18.9142  15.7814   5.5144   C.3       1 RES1   0.0000
    63 H19     18.3879  16.4363   5.0365   H         1 RES1   0.0000
    64 H20     19.0888  15.0263   4.9265   H         1 RES1   0.0000
    65 C24     18.3304  12.9526   6.5550   C.3       1 RES1   0.0000
    66 H21     17.8363  12.1325   6.7248   H         1 RES1   0.0000
    67 H22     18.7602  12.8759   5.6873   H         1 RES1   0.0000
    68 C25     17.3790  14.1443   6.5613   C.3       1 RES1   0.0000
    69 H23     16.8895  14.1944   5.7250   H         1 RES1   0.0000
    70 H24     16.7424  14.0676   7.2907   H         1 RES1   0.0000
    71 C26     17.6410  16.0440   8.9507   C.3       1 RES1   0.0000
    72 H25     17.4801  16.8198   9.5103   H         1 RES1   0.0000
    73 H26     16.9630  15.3803   9.1487   H         1 RES1   0.0000
    74 C27     17.5720  16.4363   7.4762   C.3       1 RES1   0.0000
    75 H27     16.6482  16.5307   7.1932   H         1 RES1   0.0000
    76 H28     18.0317  17.2770   7.3253   H         1 RES1   0.0000
    77 S2      22.7131  16.4186  15.2636   S.3       1 RES1   0.0000
    78 C28     23.2348  17.5218  16.7130   C.3       1 RES1   0.0000
    79 H29     23.2256  18.4746  16.4677   H         1 RES1   0.0000
    80 H30     22.6763  17.3979  17.4958   H         1 RES1   0.0000
    81 C29     24.7746  16.9614  16.9425   C.3       1 RES1   0.0000
    82 H31     24.7723  16.0174  17.1185   H         1 RES1   0.0000
    83 H32     25.3331  17.1560  16.1754   H         1 RES1   0.0000
    84 C30     25.1929  17.7135  18.0869   C.3       1 RES1   0.0000
    85 H33     24.5815  17.5513  18.8225   H         1 RES1   0.0000
    86 H34     25.1722  18.6634  17.8825   H         1 RES1   0.0000
    87 Si2     26.9372  17.2268  18.6087   Si        1 RES1   0.0000
    88 O10     26.7579  15.5661  18.3918   O.3       1 RES1   0.0000
    89 O11     27.7508  18.1177  17.4361   O.3       1 RES1   0.0000
    90 O12     26.8545  17.8197  20.1807   O.3       1 RES1   0.0000
    91 N8      28.9412  16.6693  19.2061   N.4       1 RES1   0.0000
    92 C31     27.7554  14.6310  18.7817   C.3       1 RES1   0.0000
    93 H35     27.7232  13.8523  18.2032   H         1 RES1   0.0000
    94 H36     27.6014  14.3390  19.6934   H         1 RES1   0.0000
    95 C32     29.1205  15.3065  18.6685   C.3       1 RES1   0.0000
    96 H37     29.7847  14.8198  19.1872   H         1 RES1   0.0000
    97 H38     29.4101  15.3390  17.7442   H         1 RES1   0.0000
    98 C33     29.1596  18.0262  17.2443   C.3       1 RES1   0.0000
    99 H39     29.5043  18.8699  16.9110   H         1 RES1   0.0000
   100 H40     29.3618  17.3360  16.5935   H         1 RES1   0.0000
   101 C34     29.8123  17.6900  18.5804   C.3       1 RES1   0.0000
   102 H41     30.7063  17.3389  18.4453   H         1 RES1   0.0000
   103 H42     29.8697  18.4805  19.1401   H         1 RES1   0.0000
   104 C35     27.9898  17.8876  21.0327   C.3       1 RES1   0.0000
   105 H43     27.7140  17.8197  21.9601   H         1 RES1   0.0000
   106 H44     28.4494  18.7342  20.9132   H         1 RES1   0.0000
   107 C36     28.9228  16.7283  20.6806   C.3       1 RES1   0.0000
   108 H45     29.8145  16.8906  21.0264   H         1 RES1   0.0000
   109 H46     28.5896  15.8965  21.0516   H         1 RES1   0.0000
   110 S3      20.0403  23.4716  12.7328   S.3       1 RES1   0.0000
   111 C37     18.8223  23.4214  11.5318   C.3       1 RES1   0.0000
   112 H47     18.8429  24.2503  11.0162   H         1 RES1   0.0000
   113 H48     18.9900  22.6899  10.9251   H         1 RES1   0.0000
   114 C38     17.3514  23.2444  12.1983   C.3       1 RES1   0.0000
   115 H49     17.2779  22.3654  12.5882   H         1 RES1   0.0000
   116 H50     17.2457  23.8963  12.9214   H         1 RES1   0.0000
   117 C39     16.3724  23.4155  11.3558   C.3       1 RES1   0.0000
   118 H51     16.5562  22.8167  10.6138   H         1 RES1   0.0000
   119 H52     16.4643  24.3152  11.0099   H         1 RES1   0.0000
   120 Si3     14.5476  23.1913  11.7645   Si        1 RES1   0.0000
   121 N9      12.4493  22.9347  12.2329   N.4       1 RES1   0.0000
   122 O13     13.9639  23.3772  10.1957   O.3       1 RES1   0.0000
   123 O14     14.6740  21.6456  12.4090   O.3       1 RES1   0.0000
   124 O15     14.4074  24.5069  12.8051   O.3       1 RES1   0.0000
   125 C40     12.5735  23.4480   9.9001   C.3       1 RES1   0.0000
   126 H53     12.4057  23.0940   9.0104   H         1 RES1   0.0000
   127 H54     12.2770  24.3712   9.9221   H         1 RES1   0.0000
   128 C41     11.8127  22.6279  10.9408   C.3       1 RES1   0.0000
   129 H55     10.8751  22.8757  10.9533   H         1 RES1   0.0000
   130 H56     11.8817  21.6810  10.7427   H         1 RES1   0.0000
   131 C42     13.5364  20.8698  12.7800   C.3       1 RES1   0.0000
   132 H57     13.7616  20.2740  13.5093   H         1 RES1   0.0000
   133 H58     13.2422  20.3300  12.0286   H         1 RES1   0.0000
   134 C43     12.4218  21.8197  13.2044   C.3       1 RES1   0.0000
   135 H59     11.5622  21.3684  13.1824   H         1 RES1   0.0000
   136 H60     12.5780  22.1471  14.1035   H         1 RES1   0.0000
   137 C44     13.2422  24.7488  13.5848   C.3       1 RES1   0.0000
   138 H61     13.1480  25.6987  13.7546   H         1 RES1   0.0000
   139 H62     13.3112  24.2916  14.4368   H         1 RES1   0.0000
   140 C45     12.0334  24.2326  12.8051   C.3       1 RES1   0.0000
   141 H63     11.2727  24.1176  13.3962   H         1 RES1   0.0000
   142 H64     11.7898  24.8521  12.1009   H         1 RES1   0.0000
   143 S4      19.8381  23.0615  15.9804   S.3       1 RES1   0.0000
   144 C46     20.9826  22.5070  17.2317   C.3       1 RES1   0.0000
   145 H65     20.9780  23.1648  17.9517   H         1 RES1   0.0000
   146 H66     20.6562  21.6781  17.5964   H         1 RES1   0.0000
   147 C47     22.3385  22.3300  16.8356   C.3       1 RES1   0.0000
   148 H67     22.6993  23.1559  16.4992   H         1 RES1   0.0000
   149 H68     22.3684  21.6781  16.1062   H         1 RES1   0.0000
   150 C48     23.2325  21.8344  17.9077   C.3       1 RES1   0.0000
   151 H69     23.1544  20.8669  17.9454   H         1 RES1   0.0000
   152 H70     22.8970  22.1825  18.7502   H         1 RES1   0.0000
   153 Si4     25.0619  22.2621  17.7913   Si        1 RES1   0.0000
   154 N10     27.1670  22.7518  17.6561   N.4       1 RES1   0.0000
   155 O16     24.8872  23.9347  17.8825   O.3       1 RES1   0.0000
   156 O17     25.5514  21.4185  19.1621   O.3       1 RES1   0.0000
   157 O18     25.3331  21.5896  16.2728   O.3       1 RES1   0.0000
   158 C49     25.9766  24.8314  17.6939   C.3       1 RES1   0.0000
   159 H71     25.8318  25.6397  18.2126   H         1 RES1   0.0000
   160 H72     26.0501  25.0762  16.7601   H         1 RES1   0.0000
   161 C50     27.2567  24.1382  18.1560   C.3       1 RES1   0.0000
   162 H73     28.0380  24.5836  17.7882   H         1 RES1   0.0000
   163 H74     27.3210  24.1471  19.1243   H         1 RES1   0.0000
   164 C51     26.8797  21.4952  19.6745   C.3       1 RES1   0.0000
   165 H75     27.1119  20.6633  20.1178   H         1 RES1   0.0000
   166 H76     26.9441  22.2149  20.3222   H         1 RES1   0.0000
   167 C52     27.8358  21.7489  18.5144   C.3       1 RES1   0.0000
   168 H77     28.6838  22.0911  18.8414   H         1 RES1   0.0000
   169 H78     27.9990  20.9318  18.0208   H         1 RES1   0.0000
   170 C53     26.6338  21.4568  15.7132   C.3       1 RES1   0.0000
   171 H79     26.5833  21.4834  14.7449   H         1 RES1   0.0000
   172 H80     27.0268  20.6103  15.9773   H         1 RES1   0.0000
   173 C54     27.4911  22.6132  16.2225   C.3       1 RES1   0.0000
   174 H81     28.4356  22.4185  16.1031   H         1 RES1   0.0000
   175 H82     27.2819  23.4332  15.7447   H         1 RES1   0.0000
   176 S5      15.7634  17.7548  11.8022   S.3       1 RES1   0.0000
   177 C55     15.6025  18.9407  10.5792   C.3       1 RES1   0.0000
   178 H83     15.6806  19.8197  10.9816   H         1 RES1   0.0000
   179 H84     16.3287  18.8404   9.9442   H         1 RES1   0.0000
   180 C56     14.2741  18.8463   9.8373   C.3       1 RES1   0.0000
   181 H85     14.2213  17.9879   9.3877   H         1 RES1   0.0000
   182 H86     13.5479  18.8876  10.4818   H         1 RES1   0.0000
   183 C57     14.1041  19.9524   8.8218   C.3       1 RES1   0.0000
   184 H87     14.8326  19.8846   8.1867   H         1 RES1   0.0000
   185 H88     14.2121  20.7990   9.2871   H         1 RES1   0.0000
   186 Si5     12.4976  20.0439   7.8409   Si        1 RES1   0.0000
   187 N11     10.6522  20.1471   6.7154   N.4       1 RES1   0.0000
   188 O19     12.7113  18.6191   6.9700   O.3       1 RES1   0.0000
   189 O20     11.4565  20.0380   9.1613   O.3       1 RES1   0.0000
   190 O21     12.8194  21.4952   7.0549   O.3       1 RES1   0.0000
   191 C58     11.8380  18.2239   5.9200   C.3       1 RES1   0.0000
   192 H89     11.8082  17.2563   5.8571   H         1 RES1   0.0000
   193 H90     12.1598  18.5749   5.0711   H         1 RES1   0.0000
   194 C59     10.4453  18.7755   6.2186   C.3       1 RES1   0.0000
   195 H91      9.9006  18.7814   5.4138   H         1 RES1   0.0000
   196 H92     10.0018  18.2327   6.8883   H         1 RES1   0.0000
   197 C60     10.0408  19.9524   9.0230   C.3       1 RES1   0.0000
   198 H93      9.6065  20.4097   9.7618   H         1 RES1   0.0000
   199 H94      9.7628  19.0233   9.0387   H         1 RES1   0.0000
   200 C61      9.6409  20.5955   7.6994   C.3       1 RES1   0.0000
   201 H95      8.7538  20.3064   7.4353   H         1 RES1   0.0000
   202 H96      9.6432  21.5630   7.7749   H         1 RES1   0.0000
   203 C62     11.8449  22.1766   6.2752   C.3       1 RES1   0.0000
   204 H97     12.2793  22.6958   5.5773   H         1 RES1   0.0000
   205 H98     11.3347  22.7843   6.8348   H         1 RES1   0.0000
   206 C63     10.9187  21.1353   5.6496   C.3       1 RES1   0.0000
   207 H99     10.0937  21.5453   5.3509   H         1 RES1   0.0000
   208 H100    11.3462  20.7076   4.8919   H         1 RES1   0.0000
   209 S6      15.6507  17.1442  14.9209   S.3       1 RES1   0.0000
   210 C64     16.3172  15.7814  16.1911   C.3       1 RES1   0.0000
   211 H101    16.7447  15.0764  15.7038   H         1 RES1   0.0000
   212 H102    16.9814  16.2003  16.7696   H         1 RES1   0.0000
   213 C65     15.1451  15.1915  17.0085   C.3       1 RES1   0.0000
   214 H103    14.5982  14.4835  16.6155   H         1 RES1   0.0000
   215 H104    15.5197  14.5897  17.8574   H         1 RES1   0.0000
   216 C66     14.4396  15.5248  17.6090   C.3       1 RES1   0.0000
   217 H105    14.0696  16.2504  17.0840   H         1 RES1   0.0000
   218 H106    14.7567  15.8699  18.4578   H         1 RES1   0.0000
   219 Si6     13.1894  14.1384  17.8511   Si        1 RES1   0.0000
   220 N12     11.7507  12.5425  18.1309   N.4       1 RES1   0.0000
   221 O22     13.5088  13.3213  16.4143   O.3       1 RES1   0.0000
   222 O23     13.8306  13.5366  19.2815   O.3       1 RES1   0.0000
   223 O24     11.8150  15.1089  17.9077   O.3       1 RES1   0.0000
   224 C67     12.7320  12.2181  15.9647   C.3       1 RES1   0.0000
   225 H107    13.2790  11.6163  15.4397   H         1 RES1   0.0000
   226 H108    11.9966  12.5308  15.4114   H         1 RES1   0.0000
   227 C68     12.1805  11.4865  17.1908   C.3       1 RES1   0.0000
   228 H109    11.4312  10.9231  16.9456   H         1 RES1   0.0000
   229 H110    12.8699  10.9320  17.5933   H         1 RES1   0.0000
   230 C69     13.3571  12.3420  19.8977   C.3       1 RES1   0.0000
   231 H111    13.4720  12.3921  20.8566   H         1 RES1   0.0000
   232 H112    13.8604  11.5780  19.5708   H         1 RES1   0.0000
   233 C70     11.8794  12.1738  19.5551   C.3       1 RES1   0.0000
   234 H113    11.5967  11.2564  19.6997   H         1 RES1   0.0000
   235 H114    11.3347  12.7579  20.1084   H         1 RES1   0.0000
   236 C71     10.5304  14.6015  18.2535   C.3       1 RES1   0.0000
   237 H115     9.8386  15.1266  17.8259   H         1 RES1   0.0000
   238 H116    10.4040  14.6487  19.2155   H         1 RES1   0.0000
   239 C72     10.4499  13.1473  17.7850   C.3       1 RES1   0.0000
   240 H117     9.7283  12.6841  18.2378   H         1 RES1   0.0000
   241 H118    10.2936  13.1060  16.8293   H         1 RES1   0.0000
   242 C73      7.1635  32.0879  18.5647   C.3       2 RES2   0.0000
   243 H119     7.4347  33.0024  18.3478   H         2 RES2   0.0000
   244 Cl1      7.8621  31.5157  20.0832   Cl        2 RES2   0.0000
   245 Cl2      5.4077  31.9227  18.7345   Cl        2 RES2   0.0000
   246 Cl3      7.6530  30.9228  17.3292   Cl        2 RES2   0.0000
   247 C74      3.7415  20.9495   6.9292   C.3       3 RES3   0.0000
   248 H120     3.2037  21.5896   7.4416   H         3 RES3   0.0000
   249 Cl4      3.1095  19.2976   7.0235   Cl        3 RES3   0.0000
   250 Cl5      3.8242  21.3448   5.2094   Cl        3 RES3   0.0000
   251 Cl6      5.4169  20.8639   7.4951   Cl        3 RES3   0.0000
   252 C75     10.6108  30.3033  24.2520   C.3       4 RES4   0.0000
   253 H121    11.5599  30.3210  24.0131   H         4 RES4   0.0000
   254 Cl7      9.9351  28.6662  24.2552   Cl        4 RES4   0.0000
   255 Cl8     10.2959  30.9641  25.8649   Cl        4 RES4   0.0000
   256 Cl9      9.6065  31.2413  23.1391   Cl        4 RES4   0.0000
@<TRIPOS>BOND
     1     1    10    1
     2     2     4    1
     3     3     5    1
     4     4    10    1
     5     5    11    1
     6     6     2    1
     7     7     3    1
     8     8     2    1
     9     9     3    1
    10    10    16    2
    11    11     1    1
    12    12     1    1
    13    13     1    1
    14    14     1    1
    15    15     1    1
    16    16    17    1
    17    17    11    2
    18    18    12    2
    19    19    13    2
    20    20    14    2
    21    21    15    2
    22    22     2    1
    23    23    22   ar
    24    24    23    1
    25    25    23   ar
    26    26    25    1
    27    27    25   ar
    28    28    27    1
    29    29    27   ar
    30    30    29    1
    31    31    22   ar
    32    32    31    1
    33    33     3    1
    34    34    33   ar
    35    35    34    1
    36    36    34   ar
    37    37    36    1
    38    38    36   ar
    39    39    38    1
    40    40    38   ar
    41    41    40    1
    42    42    33   ar
    43    43    42    1
    44    44    16    1
    45    45    44    1
    46    46    45    1
    47    47    45    1
    48    48    45    1
    49    49    48    1
    50    50    48    1
    51    51    48    1
    52    52    51    1
    53    53    51    1
    54    54    51    1
    55    55    54    1
    56    56    54    1
    57    57    54    1
    58    58    54    1
    59    59    56    1
    60    60    59    1
    61    61    59    1
    62    62    55    1
    63    63    62    1
    64    64    62    1
    65    65    57    1
    66    66    65    1
    67    67    65    1
    68    68    55    1
    69    69    68    1
    70    70    68    1
    71    71    58    1
    72    72    71    1
    73    73    71    1
    74    74    55    1
    75    75    74    1
    76    76    74    1
    77    77    17    1
    78    78    77    1
    79    79    78    1
    80    80    78    1
    81    81    78    1
    82    82    81    1
    83    83    81    1
    84    84    81    1
    85    85    84    1
    86    86    84    1
    87    87    84    1
    88    88    87    1
    89    89    87    1
    90    90    87    1
    91    91    87    1
    92    92    88    1
    93    93    92    1
    94    94    92    1
    95    95    91    1
    96    96    95    1
    97    97    95    1
    98    98    89    1
    99    99    98    1
   100   100    98    1
   101   101    91    1
   102   102   101    1
   103   103   101    1
   104   104    90    1
   105   105   104    1
   106   106   104    1
   107   107    91    1
   108   108   107    1
   109   109   107    1
   110   110    18    1
   111   111   110    1
   112   112   111    1
   113   113   111    1
   114   114   111    1
   115   115   114    1
   116   116   114    1
   117   117   114    1
   118   118   117    1
   119   119   117    1
   120   120   117    1
   121   121   120    1
   122   122   120    1
   123   123   120    1
   124   124   120    1
   125   125   122    1
   126   126   125    1
   127   127   125    1
   128   128   121    1
   129   129   128    1
   130   130   128    1
   131   131   123    1
   132   132   131    1
   133   133   131    1
   134   134   121    1
   135   135   134    1
   136   136   134    1
   137   137   124    1
   138   138   137    1
   139   139   137    1
   140   140   121    1
   141   141   140    1
   142   142   140    1
   143   143    19    1
   144   144   143    1
   145   145   144    1
   146   146   144    1
   147   147   144    1
   148   148   147    1
   149   149   147    1
   150   150   147    1
   151   151   150    1
   152   152   150    1
   153   153   150    1
   154   154   153    1
   155   155   153    1
   156   156   153    1
   157   157   153    1
   158   158   155    1
   159   159   158    1
   160   160   158    1
   161   161   154    1
   162   162   161    1
   163   163   161    1
   164   164   156    1
   165   165   164    1
   166   166   164    1
   167   167   154    1
   168   168   167    1
   169   169   167    1
   170   170   157    1
   171   171   170    1
   172   172   170    1
   173   173   154    1
   174   174   173    1
   175   175   173    1
   176   176    20    1
   177   177   176    1
   178   178   177    1
   179   179   177    1
   180   180   177    1
   181   181   180    1
   182   182   180    1
   183   183   180    1
   184   184   183    1
   185   185   183    1
   186   186   183    1
   187   187   186    1
   188   188   186    1
   189   189   186    1
   190   190   186    1
   191   191   188    1
   192   192   191    1
   193   193   191    1
   194   194   187    1
   195   195   194    1
   196   196   194    1
   197   197   189    1
   198   198   197    1
   199   199   197    1
   200   200   187    1
   201   201   200    1
   202   202   200    1
   203   203   190    1
   204   204   203    1
   205   205   203    1
   206   206   187    1
   207   207   206    1
   208   208   206    1
   209   209    21    1
   210   210   209    1
   211   211   210    1
   212   212   210    1
   213   213   210    1
   214   214   213    1
   215   215   213    1
   216   216   213    1
   217   217   216    1
   218   218   216    1
   219   219   216    1
   220   220   219    1
   221   221   219    1
   222   222   219    1
   223   223   219    1
   224   224   221    1
   225   225   224    1
   226   226   224    1
   227   227   220    1
   228   228   227    1
   229   229   227    1
   230   230   222    1
   231   231   230    1
   232   232   230    1
   233   233   220    1
   234   234   233    1
   235   235   233    1
   236   236   223    1
   237   237   236    1
   238   238   236    1
   239   239   220    1
   240   240   239    1
   241   241   239    1
   242     6    12    1
   243     7    13    1
   244     8    14    1
   245     9    15    1
   246    18    19    1
   247    20    21    1
   248    29    31   ar
   249    40    42   ar
   250    59    62    1
   251    65    68    1
   252    71    74    1
   253    92    95    1
   254    98   101    1
   255   104   107    1
   256   125   128    1
   257   131   134    1
   258   137   140    1
   259   158   161    1
   260   164   167    1
   261   170   173    1
   262   191   194    1
   263   197   200    1
   264   203   206    1
   265   224   227    1
   266   230   233    1
   267   236   239    1
   268   242   243    1
   269   244   242    1
   270   245   242    1
   271   246   242    1
   272   247   248    1
   273   249   247    1
   274   250   247    1
   275   251   247    1
   276   252   253    1
   277   254   252    1
   278   255   252    1
   279   256   252    1
@<TRIPOS>SUBSTRUCTURE
     1 RES1        1 GROUP             0 ****  ****    0  
     2 RES2      242 GROUP             0 ****  ****    0  
     3 RES3      247 GROUP             0 ****  ****    0  
     4 RES4      252 GROUP             0 ****  ****    0  
@<TRIPOS>CRYSIN
   22.9820   29.4980   31.4390   90.0000   90.0000   90.0000    61     3
