@<TRIPOS>MOLECULE
IBODEK
   141   150     1     0     0
SMALL
NO_CHARGES
****
Generated from the CSD

@<TRIPOS>ATOM
     1 Fe1      5.2184  11.7952  12.2824   Fe        1 RES1   0.0000
     2 N1       7.1487  11.9107  12.8762   N.2       1 RES1   0.0000
     3 O1       5.2264  10.9754  14.2382   O.3       1 RES1   0.0000
     4 C1       7.4774  11.4895  14.0815   C.ar      1 RES1   0.0000
     5 O2       9.7850  12.0793  13.6911   O.3       1 RES1   0.0000
     6 C2       6.3656  10.9853  14.8324   C.ar      1 RES1   0.0000
     7 O3       6.2162  12.7007  10.6731   O.2       1 RES1   0.0000
     8 C3       6.6361  10.5582  16.1540   C.ar      1 RES1   0.0000
     9 C4       7.9569  10.6789  16.5666   C.ar      1 RES1   0.0000
    10 H1       8.1331  10.4001  17.4573   H         1 RES1   0.0000
    11 C5       9.0811  11.1613  15.8432   C.ar      1 RES1   0.0000
    12 C6       8.8095  11.5765  14.5582   C.ar      1 RES1   0.0000
    13 C7       5.5221  10.0580  17.0511   C.3       1 RES1   0.0000
    14 C8       4.5995  11.2424  17.3306   C.3       1 RES1   0.0000
    15 H2       4.2383  11.5824  16.4857   H         1 RES1   0.0000
    16 H3       5.1026  11.9522  17.7798   H         1 RES1   0.0000
    17 H4       3.8596  10.9517  17.9065   H         1 RES1   0.0000
    18 C9       4.7253   8.9369  16.3760   C.3       1 RES1   0.0000
    19 H5       4.3456   9.2652  15.5350   H         1 RES1   0.0000
    20 H6       4.0018   8.6463  16.9689   H         1 RES1   0.0000
    21 H7       5.3191   8.1797  16.1919   H         1 RES1   0.0000
    22 C10      6.0289   9.5202  18.3858   C.3       1 RES1   0.0000
    23 H8       6.4786  10.2379  18.8781   H         1 RES1   0.0000
    24 H9       6.6617   8.7887  18.2251   H         1 RES1   0.0000
    25 H10      5.2725   9.1880  18.9120   H         1 RES1   0.0000
    26 C11     10.4881  11.1969  16.4674   C.3       1 RES1   0.0000
    27 C12     11.0244  12.6264  16.4230   C.3       1 RES1   0.0000
    28 H11     11.0495  12.9388  15.4945   H         1 RES1   0.0000
    29 H12     11.9302  12.6462  16.7991   H         1 RES1   0.0000
    30 H13     10.4406  13.2117  16.9493   H         1 RES1   0.0000
    31 C13     11.3966  10.2340  15.7048   C.3       1 RES1   0.0000
    32 H14     11.3745  10.4515  14.7501   H         1 RES1   0.0000
    33 H15     11.0863   9.3146  15.8393   H         1 RES1   0.0000
    34 H16     12.3148  10.3210  16.0391   H         1 RES1   0.0000
    35 C14     10.4832  10.7560  17.9431   C.3       1 RES1   0.0000
    36 H17      9.9201  11.3669  18.4641   H         1 RES1   0.0000
    37 H18     11.3994  10.7777  18.2917   H         1 RES1   0.0000
    38 H19     10.1278   9.8465  18.0110   H         1 RES1   0.0000
    39 C15      8.0516  12.4188  12.0587   C.2       1 RES1   0.0000
    40 C16      7.4996  12.8241  10.7985   C.2       1 RES1   0.0000
    41 C17      8.4226  13.2769   9.8230   C.2       1 RES1   0.0000
    42 C18      9.7455  13.3362  10.2252   C.2       1 RES1   0.0000
    43 H20     10.3560  13.6605   9.5722   H         1 RES1   0.0000
    44 C19     10.3324  12.9783  11.4854   C.2       1 RES1   0.0000
    45 C20      9.4157  12.4919  12.4074   C.2       1 RES1   0.0000
    46 C21      7.9425  13.6486   8.4257   C.3       1 RES1   0.0000
    47 C22      6.9522  14.8231   8.5301   C.3       1 RES1   0.0000
    48 H21      6.2123  14.5739   9.1217   H         1 RES1   0.0000
    49 H22      6.6034  15.0346   7.6395   H         1 RES1   0.0000
    50 H23      7.4143  15.6060   8.8958   H         1 RES1   0.0000
    51 C23      9.0997  14.0856   7.5220   C.3       1 RES1   0.0000
    52 H24      9.7305  13.3421   7.4162   H         1 RES1   0.0000
    53 H25      9.5597  14.8507   7.9281   H         1 RES1   0.0000
    54 H26      8.7488  14.3446   6.6444   H         1 RES1   0.0000
    55 C24      7.2772  12.4287   7.7766   C.3       1 RES1   0.0000
    56 H27      7.9285  11.6991   7.7087   H         1 RES1   0.0000
    57 H28      6.9592  12.6679   6.8808   H         1 RES1   0.0000
    58 H29      6.5188  12.1400   8.3264   H         1 RES1   0.0000
    59 C25     11.8485  13.1148  11.7205   C.3       1 RES1   0.0000
    60 C26     12.6011  13.4845  10.4459   C.3       1 RES1   0.0000
    61 H30     12.4577  12.7905   9.7694   H         1 RES1   0.0000
    62 H31     13.5605  13.5557  10.6418   H         1 RES1   0.0000
    63 H32     12.2726  14.3426  10.1090   H         1 RES1   0.0000
    64 C27     12.4301  11.7881  12.2298   C.3       1 RES1   0.0000
    65 H33     12.1917  11.0664  11.6094   H         1 RES1   0.0000
    66 H34     12.0635  11.5884  13.1165   H         1 RES1   0.0000
    67 H35     13.4056  11.8592  12.2872   H         1 RES1   0.0000
    68 C28     12.1192  14.2240  12.7521   C.3       1 RES1   0.0000
    69 H36     13.0868  14.3288  12.8736   H         1 RES1   0.0000
    70 H37     11.7079  13.9828  13.6088   H         1 RES1   0.0000
    71 H38     11.7372  15.0682  12.4322   H         1 RES1   0.0000
    72 O4       4.2446  13.4922  13.0708   O.3       1 RES1   0.0000
    73 N2       3.2814  11.5613  11.7714   N.2       1 RES1   0.0000
    74 C29      2.3812  12.4445  12.1710   C.ar      1 RES1   0.0000
    75 O5       0.6157  11.1882  11.1184   O.3       1 RES1   0.0000
    76 C30      2.9560  13.5102  12.9389   C.ar      1 RES1   0.0000
    77 O6       5.1735   9.9750  11.2373   O.2       1 RES1   0.0000
    78 C31      2.0436  14.4474  13.4952   C.ar      1 RES1   0.0000
    79 C32      0.7124  14.2497  13.1818   C.ar      1 RES1   0.0000
    80 H39      0.1082  14.8923  13.5330   H         1 RES1   0.0000
    81 C33      0.1211  13.2097  12.3995   C.ar      1 RES1   0.0000
    82 C34      1.0068  12.2923  11.8981   C.ar      1 RES1   0.0000
    83 C35      2.5362  15.5586  14.4276   C.3       1 RES1   0.0000
    84 C36      3.5638  16.4127  13.6832   C.3       1 RES1   0.0000
    85 H40      4.3138  15.8492  13.3998   H         1 RES1   0.0000
    86 H41      3.8922  17.1206  14.2761   H         1 RES1   0.0000
    87 H42      3.1430  16.8161  12.8958   H         1 RES1   0.0000
    88 C37      3.1539  14.9180  15.6695   C.3       1 RES1   0.0000
    89 H43      3.8588  14.2952  15.3979   H         1 RES1   0.0000
    90 H44      2.4613  14.4316  16.1657   H         1 RES1   0.0000
    91 H45      3.5358  15.6159  16.2415   H         1 RES1   0.0000
    92 C38      1.3957  16.4780  14.8807   C.3       1 RES1   0.0000
    93 H46      0.9770  16.8892  14.0959   H         1 RES1   0.0000
    94 H47      1.7529  17.1779  15.4658   H         1 RES1   0.0000
    95 H48      0.7277  15.9520  15.3691   H         1 RES1   0.0000
    96 C39     -1.3991  13.1583  12.1736   C.3       1 RES1   0.0000
    97 C40     -1.9541  11.8237  12.6816   C.3       1 RES1   0.0000
    98 H49     -1.7430  11.7248  13.6336   H         1 RES1   0.0000
    99 H50     -1.5470  11.0881  12.1788   H         1 RES1   0.0000
   100 H51     -2.9258  11.8078  12.5588   H         1 RES1   0.0000
   101 C41     -1.7086  13.3224  10.6757   C.3       1 RES1   0.0000
   102 H52     -2.6782  13.2868  10.5373   H         1 RES1   0.0000
   103 H53     -1.2830  12.5967  10.1717   H         1 RES1   0.0000
   104 H54     -1.3653  14.1844  10.3623   H         1 RES1   0.0000
   105 C42     -2.1391  14.2536  12.9362   C.3       1 RES1   0.0000
   106 H55     -1.9362  14.1805  13.8922   H         1 RES1   0.0000
   107 H56     -3.1047  14.1528  12.7978   H         1 RES1   0.0000
   108 H57     -1.8513  15.1315  12.6072   H         1 RES1   0.0000
   109 C43      2.9179  10.4851  11.0740   C.2       1 RES1   0.0000
   110 C44      4.0111   9.6171  10.7946   C.2       1 RES1   0.0000
   111 C45      3.6992   8.4446  10.0528   C.2       1 RES1   0.0000
   112 C46      2.3660   8.2983   9.6689   C.2       1 RES1   0.0000
   113 H58      2.1690   7.5252   9.1517   H         1 RES1   0.0000
   114 C47      1.2688   9.1485   9.9457   C.2       1 RES1   0.0000
   115 C48      1.5807  10.2636  10.7005   C.2       1 RES1   0.0000
   116 C49      4.7924   7.4501   9.6741   C.3       1 RES1   0.0000
   117 C50      5.7605   8.1678   8.7247   C.3       1 RES1   0.0000
   118 H59      6.1630   8.9350   9.1844   H         1 RES1   0.0000
   119 H60      5.2719   8.4802   7.9346   H         1 RES1   0.0000
   120 H61      6.4674   7.5470   8.4479   H         1 RES1   0.0000
   121 C51      4.2339   6.2242   8.9572   C.3       1 RES1   0.0000
   122 H62      3.5556   5.7972   9.5187   H         1 RES1   0.0000
   123 H63      4.9613   5.5895   8.7848   H         1 RES1   0.0000
   124 H64      3.8316   6.4991   8.1070   H         1 RES1   0.0000
   125 C52      5.5498   6.9874  10.9147   C.3       1 RES1   0.0000
   126 H65      5.9749   7.7585  11.3444   H         1 RES1   0.0000
   127 H66      6.2362   6.3389  10.6535   H         1 RES1   0.0000
   128 H67      4.9250   6.5663  11.5415   H         1 RES1   0.0000
   129 C53     -0.1424   8.8025   9.4521   C.3       1 RES1   0.0000
   130 C54     -0.1625   7.5371   8.5915   C.3       1 RES1   0.0000
   131 H68      0.4090   7.6676   7.8067   H         1 RES1   0.0000
   132 H69     -1.0808   7.3552   8.3016   H         1 RES1   0.0000
   133 H70      0.1700   6.7798   9.1165   H         1 RES1   0.0000
   134 C55     -0.6577   9.9512   8.5811   C.3       1 RES1   0.0000
   135 H71     -0.0533  10.0798   7.8210   H         1 RES1   0.0000
   136 H72     -0.6949  10.7718   9.1139   H         1 RES1   0.0000
   137 H73     -1.5553   9.7338   8.2533   H         1 RES1   0.0000
   138 C56     -1.0594   8.5652  10.6561   C.3       1 RES1   0.0000
   139 H74     -0.7535   7.7744  11.1485   H         1 RES1   0.0000
   140 H75     -1.9776   8.4229  10.3466   H         1 RES1   0.0000
   141 H76     -1.0309   9.3482  11.2464   H         1 RES1   0.0000
@<TRIPOS>BOND
     1     1     2    1
     2     2     4    1
     3     3     1    1
     4     4     6   ar
     5     5    12    1
     6     6     3    1
     7     7     1    1
     8     8     6   ar
     9     9     8   ar
    10    10     9    1
    11    11     9   ar
    12    12     4   ar
    13    13     8    1
    14    14    13    1
    15    15    14    1
    16    16    14    1
    17    17    14    1
    18    18    13    1
    19    19    18    1
    20    20    18    1
    21    21    18    1
    22    22    13    1
    23    23    22    1
    24    24    22    1
    25    25    22    1
    26    26    11    1
    27    27    26    1
    28    28    27    1
    29    29    27    1
    30    30    27    1
    31    31    26    1
    32    32    31    1
    33    33    31    1
    34    34    31    1
    35    35    26    1
    36    36    35    1
    37    37    35    1
    38    38    35    1
    39    39     2    2
    40    40     7    2
    41    41    40    1
    42    42    41    2
    43    43    42    1
    44    44    42    1
    45    45     5    1
    46    46    41    1
    47    47    46    1
    48    48    47    1
    49    49    47    1
    50    50    47    1
    51    51    46    1
    52    52    51    1
    53    53    51    1
    54    54    51    1
    55    55    46    1
    56    56    55    1
    57    57    55    1
    58    58    55    1
    59    59    44    1
    60    60    59    1
    61    61    60    1
    62    62    60    1
    63    63    60    1
    64    64    59    1
    65    65    64    1
    66    66    64    1
    67    67    64    1
    68    68    59    1
    69    69    68    1
    70    70    68    1
    71    71    68    1
    72    72     1    1
    73    73     1    1
    74    74    73    1
    75    75    82    1
    76    76    72    1
    77    77     1    1
    78    78    76   ar
    79    79    78   ar
    80    80    79    1
    81    81    79   ar
    82    82    74   ar
    83    83    78    1
    84    84    83    1
    85    85    84    1
    86    86    84    1
    87    87    84    1
    88    88    83    1
    89    89    88    1
    90    90    88    1
    91    91    88    1
    92    92    83    1
    93    93    92    1
    94    94    92    1
    95    95    92    1
    96    96    81    1
    97    97    96    1
    98    98    97    1
    99    99    97    1
   100   100    97    1
   101   101    96    1
   102   102   101    1
   103   103   101    1
   104   104   101    1
   105   105    96    1
   106   106   105    1
   107   107   105    1
   108   108   105    1
   109   109    73    2
   110   110    77    2
   111   111   110    1
   112   112   111    2
   113   113   112    1
   114   114   112    1
   115   115    75    1
   116   116   111    1
   117   117   116    1
   118   118   117    1
   119   119   117    1
   120   120   117    1
   121   121   116    1
   122   122   121    1
   123   123   121    1
   124   124   121    1
   125   125   116    1
   126   126   125    1
   127   127   125    1
   128   128   125    1
   129   129   114    1
   130   130   129    1
   131   131   130    1
   132   132   130    1
   133   133   130    1
   134   134   129    1
   135   135   134    1
   136   136   134    1
   137   137   134    1
   138   138   129    1
   139   139   138    1
   140   140   138    1
   141   141   138    1
   142    11    12   ar
   143    39    40    1
   144    39    45    1
   145    44    45    2
   146    74    76   ar
   147    81    82   ar
   148   109   110    1
   149   109   115    1
   150   114   115    2
@<TRIPOS>SUBSTRUCTURE
     1 RES1        1 GROUP             0 ****  ****    0  
@<TRIPOS>CRYSIN
   20.5450   19.7720   13.0590   90.0000   90.0290   90.0000    14     1
