@<TRIPOS>MOLECULE
ICIVUP
   166   181     2     0     0
SMALL
USER_CHARGES
****
Generated from the CSD

@<TRIPOS>ATOM
     1 Fe1      4.6087   9.2959   7.2231   Fe        1 RES1   0.0000
     2 P1       3.2881   7.5122   7.7965   P.3       1 RES1   0.0000
     3 P2       4.6657   8.2939   9.2999   P.3       1 RES1   0.0000
     4 N1       3.1938  10.3844   6.5261   N.2       1 RES1  -1.0000
     5 N2       5.7219  10.8679   6.8366   N.2       1 RES1   0.0000
     6 C1       3.9837  13.7851   5.4699   C.ar      1 RES1   0.0000
     7 C2       5.2382  13.2795   5.9203   C.ar      1 RES1   0.0000
     8 C3       1.7751  10.2956   6.7157   C.ar      1 RES1   0.0000
     9 C4       4.9730  11.8808   6.3116   C.2       1 RES1   0.0000
    10 C5       3.6195  11.6194   6.1339   C.2       1 RES1   0.0000
    11 C6       4.8887   7.2069   7.0084   C.ar      1 RES1   0.0000
    12 C7       2.9560  12.8032   5.5919   C.ar      1 RES1   0.0000
    13 C8       3.7782  15.0705   4.9924   C.ar      1 RES1   0.0000
    14 C9       0.9675   9.6390   5.7696   C.ar      1 RES1   0.0000
    15 C10      4.9065  15.9339   4.9898   C.ar      1 RES1   0.0000
    16 H1       4.8255  16.8056   4.6753   H         1 RES1   0.0000
    17 C11      6.3107  14.1455   5.9200   C.ar      1 RES1   0.0000
    18 H2       7.1454  13.8645   6.2192   H         1 RES1   0.0000
    19 C12      5.8008   7.7031   8.0062   C.ar      1 RES1   0.0000
    20 C13      7.2903   7.4680   8.3043   C.3       1 RES1   0.0000
    21 C14      2.4510  15.4021   4.5804   C.ar      1 RES1   0.0000
    22 H3       2.2651  16.2454   4.2376   H         1 RES1   0.0000
    23 C15      6.1167  15.4789   5.4540   C.ar      1 RES1   0.0000
    24 H4       6.8386  16.0647   5.4636   H         1 RES1   0.0000
    25 C16      1.2060  10.9289   7.8363   C.ar      1 RES1   0.0000
    26 C17     -0.9903  10.2992   7.0380   C.ar      1 RES1   0.0000
    27 H5      -1.9143  10.3151   7.1360   H         1 RES1   0.0000
    28 C18      1.6774  13.1577   5.2067   C.ar      1 RES1   0.0000
    29 H6       0.9748  12.5520   5.2807   H         1 RES1   0.0000
    30 C19      7.0776  11.2581   7.1075   C.ar      1 RES1   0.0000
    31 C20     -0.4169   9.6425   5.9642   C.ar      1 RES1   0.0000
    32 H7      -0.9636   9.1946   5.3591   H         1 RES1   0.0000
    33 C21      5.0463   6.4270   5.6923   C.3       1 RES1   0.0000
    34 C22     -0.1863  10.9309   7.9650   C.ar      1 RES1   0.0000
    35 H8      -0.5767  11.3651   8.6887   H         1 RES1   0.0000
    36 C23      1.4538  14.4677   4.6947   C.ar      1 RES1   0.0000
    37 H9       0.5930  14.7000   4.4271   H         1 RES1   0.0000
    38 C24      8.0557  11.1013   6.1078   C.ar      1 RES1   0.0000
    39 C25      7.4566   6.0436   8.8770   C.3       1 RES1   0.0000
    40 H10      6.8978   5.9429   9.6512   H         1 RES1   0.0000
    41 H11      8.3732   5.9034   9.1242   H         1 RES1   0.0000
    42 H12      7.2005   5.3996   8.2118   H         1 RES1   0.0000
    43 C26      3.6721   5.8816   5.2633   C.3       1 RES1   0.0000
    44 H13      3.3440   5.2782   5.9340   H         1 RES1   0.0000
    45 H14      3.7593   5.4151   4.4293   H         1 RES1   0.0000
    46 H15      3.0572   6.6105   5.1588   H         1 RES1   0.0000
    47 C27      2.0513  11.6124   8.9021   C.3       1 RES1   0.0000
    48 H16      2.9914  11.5147   8.6451   H         1 RES1   0.0000
    49 C28      8.2184   7.6713   7.1079   C.3       1 RES1   0.0000
    50 H17      7.9654   7.0734   6.4022   H         1 RES1   0.0000
    51 H18      9.1238   7.4911   7.3712   H         1 RES1   0.0000
    52 H19      8.1491   8.5778   6.8007   H         1 RES1   0.0000
    53 C29      1.5756   8.9841   4.5447   C.3       1 RES1   0.0000
    54 H20      2.4438   8.6173   4.8125   H         1 RES1   0.0000
    55 C30      7.7492  10.4362   4.7792   C.3       1 RES1   0.0000
    56 H21      6.9956   9.8268   4.9236   H         1 RES1   0.0000
    57 C31      7.3916  11.8577   8.3413   C.ar      1 RES1   0.0000
    58 C32      5.9509   5.2015   5.8608   C.3       1 RES1   0.0000
    59 H22      6.8333   5.4871   6.1104   H         1 RES1   0.0000
    60 H23      5.9932   4.7179   5.0325   H         1 RES1   0.0000
    61 H24      5.5928   4.6319   6.5459   H         1 RES1   0.0000
    62 C33      9.3339  11.6156   6.3460   C.ar      1 RES1   0.0000
    63 H25      9.9959  11.5147   5.6988   H         1 RES1   0.0000
    64 C34      0.7425   7.8205   4.0009   C.3       1 RES1   0.0000
    65 H26      0.5457   7.2075   4.7123   H         1 RES1   0.0000
    66 H27      1.2365   7.3655   3.3143   H         1 RES1   0.0000
    67 H28     -0.0780   8.1587   3.6344   H         1 RES1   0.0000
    68 C35      5.5874   7.3044   4.5586   C.3       1 RES1   0.0000
    69 H29      5.0038   8.0556   4.4293   H         1 RES1   0.0000
    70 H30      5.6310   6.7897   3.7498   H         1 RES1   0.0000
    71 H31      6.4661   7.6167   4.7864   H         1 RES1   0.0000
    72 C36      1.8392  10.0041   3.4341   C.3       1 RES1   0.0000
    73 H32      1.0085  10.4026   3.1619   H         1 RES1   0.0000
    74 H33      2.2424   9.5629   2.6828   H         1 RES1   0.0000
    75 H34      2.4314  10.6863   3.7607   H         1 RES1   0.0000
    76 C37      9.6305  12.2674   7.5175   C.ar      1 RES1   0.0000
    77 H35     10.4762  12.6367   7.6412   H         1 RES1   0.0000
    78 C38      8.6798  12.3769   8.5092   C.ar      1 RES1   0.0000
    79 H36      8.8990  12.8046   9.3049   H         1 RES1   0.0000
    80 C39      7.7458   8.4419   9.3942   C.3       1 RES1   0.0000
    81 H37      7.7162   9.3399   9.0545   H         1 RES1   0.0000
    82 H38      8.6438   8.2292   9.6577   H         1 RES1   0.0000
    83 H39      7.1636   8.3675  10.1542   H         1 RES1   0.0000
    84 C40      8.9081   9.6059   4.2043   C.3       1 RES1   0.0000
    85 H40      9.6148  10.1923   3.9262   H         1 RES1   0.0000
    86 H41      8.5964   9.1014   3.4493   H         1 RES1   0.0000
    87 H42      9.2352   9.0054   4.8778   H         1 RES1   0.0000
    88 C41      6.3658  11.9756   9.4591   C.3       1 RES1   0.0000
    89 H43      5.6679  11.3073   9.2962   H         1 RES1   0.0000
    90 C42      1.8710  10.9429  10.2620   C.3       1 RES1   0.0000
    91 H44      0.9673  11.0617  10.5592   H         1 RES1   0.0000
    92 H45      2.4723  11.3411  10.8967   H         1 RES1   0.0000
    93 H46      2.0629  10.0046  10.1847   H         1 RES1   0.0000
    94 C43      1.7484  13.1068   8.9894   C.3       1 RES1   0.0000
    95 H47      1.8655  13.5089   8.1247   H         1 RES1   0.0000
    96 H48      2.3466  13.5187   9.6163   H         1 RES1   0.0000
    97 H49      0.8412  13.2337   9.2810   H         1 RES1   0.0000
    98 C44      7.3163  11.4581   3.7270   C.3       1 RES1   0.0000
    99 H50      6.5281  11.9155   4.0308   H         1 RES1   0.0000
   100 H51      7.1253  11.0067   2.9006   H         1 RES1   0.0000
   101 H52      8.0232  12.0933   3.5887   H         1 RES1   0.0000
   102 C45      6.9616  11.7010  10.8521   C.3       1 RES1   0.0000
   103 H53      7.4446  10.8712  10.8358   H         1 RES1   0.0000
   104 H54      6.2540  11.6460  11.4978   H         1 RES1   0.0000
   105 H55      7.5594  12.4137  11.0906   H         1 RES1   0.0000
   106 C46      5.7056  13.3423   9.4735   C.3       1 RES1   0.0000
   107 H56      6.3736  14.0198   9.5989   H         1 RES1   0.0000
   108 H57      5.0715  13.3833  10.1934   H         1 RES1   0.0000
   109 H58      5.2548  13.4877   8.6386   H         1 RES1   0.0000
   110 K1       2.4814   5.3299  10.1914   K         2 RES2   1.0000
   111 O1       3.2045   6.5058  12.5870   O.3       2 RES2   0.0000
   112 O2       1.1284   7.5939  11.0283   O.3       2 RES2   0.0000
   113 O3       1.6502   3.9566   7.9526   O.3       2 RES2   0.0000
   114 O4       4.8512   4.5805  11.4205   O.3       2 RES2   0.0000
   115 O5       3.7503   2.8677   9.5066   O.3       2 RES2   0.0000
   116 O6      -0.0103   6.0074   8.9822   O.3       2 RES2   0.0000
   117 O7       0.6804   3.6437  11.4194   O.3       2 RES2   0.0000
   118 O8      -0.4607   1.1258  11.9139   O.3       2 RES2   0.0000
   119 C47      2.7295   7.8338  12.7636   C.3       2 RES2   0.0000
   120 H59      3.2274   8.4409  12.1946   H         2 RES2   0.0000
   121 H60      2.8556   8.1093  13.6863   H         2 RES2   0.0000
   122 C48      4.5918   6.4030  12.8943   C.3       2 RES2   0.0000
   123 H61      4.7562   6.7206  13.7951   H         2 RES2   0.0000
   124 H62      5.1097   6.9464  12.2795   H         2 RES2   0.0000
   125 C49     -0.3078   7.3891   9.1503   C.3       2 RES2   0.0000
   126 H63     -1.2006   7.5786   8.8237   H         2 RES2   0.0000
   127 H64      0.3229   7.9286   8.6473   H         2 RES2   0.0000
   128 C50     -0.2165   7.7167  10.6034   C.3       2 RES2   0.0000
   129 H65     -0.5288   8.6230  10.7552   H         2 RES2   0.0000
   130 H66     -0.7786   7.1115  11.1123   H         2 RES2   0.0000
   131 C51      1.9942   2.5759   7.9441   C.3       2 RES2   0.0000
   132 H67      1.7617   2.1833   7.0881   H         2 RES2   0.0000
   133 H68      1.5013   2.1085   8.6364   H         2 RES2   0.0000
   134 C52      3.4555   2.4428   8.1834   C.3       2 RES2   0.0000
   135 H69      3.7262   1.5185   8.0659   H         2 RES2   0.0000
   136 H70      3.9457   2.9863   7.5454   H         2 RES2   0.0000
   137 C53      1.2828   7.8828  12.4137   C.3       2 RES2   0.0000
   138 H71      0.7935   7.2329  12.9415   H         2 RES2   0.0000
   139 H72      0.9256   8.7641  12.6083   H         2 RES2   0.0000
   140 C54      4.9957   4.9756  12.7762   C.3       2 RES2   0.0000
   141 H73      5.9174   4.8675  13.0569   H         2 RES2   0.0000
   142 H74      4.4357   4.4244  13.3444   H         2 RES2   0.0000
   143 C55      0.3357   4.1790   7.4958   C.3       2 RES2   0.0000
   144 H75     -0.2864   3.6581   8.0267   H         2 RES2   0.0000
   145 H76      0.2580   3.8937   6.5720   H         2 RES2   0.0000
   146 C56     -0.0001   5.6322   7.6051   C.3       2 RES2   0.0000
   147 H77      0.6569   6.1589   7.1251   H         2 RES2   0.0000
   148 H78     -0.8711   5.7990   7.2122   H         2 RES2   0.0000
   149 C57      5.3917   3.2976  11.1637   C.3       2 RES2   0.0000
   150 H79      4.9651   2.6377  11.7329   H         2 RES2   0.0000
   151 H80      6.3441   3.2940  11.3519   H         2 RES2   0.0000
   152 C58      1.2033   2.7829  12.4226   C.3       2 RES2   0.0000
   153 H81      0.7949   2.9933  13.2769   H         2 RES2   0.0000
   154 H82      2.1601   2.9200  12.5038   H         2 RES2   0.0000
   155 C59      5.1543   2.9685   9.7328   C.3       2 RES2   0.0000
   156 H83      5.5303   3.6609   9.1677   H         2 RES2   0.0000
   157 H84      5.5858   2.1282   9.5118   H         2 RES2   0.0000
   158 C60     -0.7126   3.4160  11.2547   C.3       2 RES2   0.0000
   159 H85     -1.0512   3.9827  10.5440   H         2 RES2   0.0000
   160 H86     -1.1783   3.6482  12.0727   H         2 RES2   0.0000
   161 C61     -0.9796   1.9816  10.9187   C.3       2 RES2   0.0000
   162 H87     -1.9365   1.8417  10.8380   H         2 RES2   0.0000
   163 H88     -0.5713   1.7683  10.0649   H         2 RES2   0.0000
   164 C62      0.9276   1.3543  12.0713   C.3       2 RES2   0.0000
   165 H89      1.3872   1.1304  11.2473   H         2 RES2   0.0000
   166 H90      1.2712   0.7776  12.7717   H         2 RES2   0.0000
@<TRIPOS>BOND
     1     1     2   un
     2     2     3   ar
     3     3     1   un
     4     4     1    1
     5     5     1    1
     6     6     7   ar
     7     7     9    1
     8     8     4    1
     9     9     5    1
    10    10     4    1
    11    11     1   un
    12    12     6   ar
    13    13     6   ar
    14    14     8   ar
    15    15    13   ar
    16    16    15    1
    17    17     7   ar
    18    18    17    1
    19    19     1   un
    20    20    19    1
    21    21    13   ar
    22    22    21    1
    23    23    15   ar
    24    24    23    1
    25    25     8   ar
    26    26    27    1
    27    28    12   ar
    28    29    28    1
    29    30     5    1
    30    31    14   ar
    31    32    31    1
    32    33    11    1
    33    34    25   ar
    34    35    34    1
    35    36    21   ar
    36    37    36    1
    37    38    30   ar
    38    39    20    1
    39    40    39    1
    40    41    39    1
    41    42    39    1
    42    43    33    1
    43    44    43    1
    44    45    43    1
    45    46    43    1
    46    47    25    1
    47    48    47    1
    48    49    20    1
    49    50    49    1
    50    51    49    1
    51    52    49    1
    52    53    14    1
    53    54    53    1
    54    55    38    1
    55    56    55    1
    56    57    30   ar
    57    58    33    1
    58    59    58    1
    59    60    58    1
    60    61    58    1
    61    62    38   ar
    62    63    62    1
    63    64    53    1
    64    65    64    1
    65    66    64    1
    66    67    64    1
    67    68    33    1
    68    69    68    1
    69    70    68    1
    70    71    68    1
    71    72    53    1
    72    73    72    1
    73    74    72    1
    74    75    72    1
    75    76    62   ar
    76    77    76    1
    77    78    57   ar
    78    79    78    1
    79    80    20    1
    80    81    80    1
    81    82    80    1
    82    83    80    1
    83    84    55    1
    84    85    84    1
    85    86    84    1
    86    87    84    1
    87    88    57    1
    88    89    88    1
    89    90    47    1
    90    91    90    1
    91    92    90    1
    92    93    90    1
    93    94    47    1
    94    95    94    1
    95    96    94    1
    96    97    94    1
    97    98    55    1
    98    99    98    1
    99   100    98    1
   100   101    98    1
   101   102    88    1
   102   103   102    1
   103   104   102    1
   104   105   102    1
   105   106    88    1
   106   107   106    1
   107   108   106    1
   108   109   106    1
   109     2    11   ar
   110     3    19   ar
   111     9    10    2
   112    10    12    1
   113    11    19   ar
   114    17    23   ar
   115    26    31   ar
   116    26    34   ar
   117    28    36   ar
   118    76    78   ar
   119   110   111    1
   120   111   119    1
   121   112   110    1
   122   113   110    1
   123   114   110    1
   124   115   110    1
   125   116   110    1
   126   117   110    1
   127   118   161    1
   128   119   120    1
   129   121   119    1
   130   122   111    1
   131   123   122    1
   132   124   122    1
   133   125   116    1
   134   126   125    1
   135   127   125    1
   136   128   112    1
   137   129   128    1
   138   130   128    1
   139   131   113    1
   140   132   131    1
   141   133   131    1
   142   134   115    1
   143   135   134    1
   144   136   134    1
   145   137   112    1
   146   138   137    1
   147   139   137    1
   148   140   114    1
   149   141   140    1
   150   142   140    1
   151   143   113    1
   152   144   143    1
   153   145   143    1
   154   146   116    1
   155   147   146    1
   156   148   146    1
   157   149   114    1
   158   150   149    1
   159   151   149    1
   160   152   117    1
   161   153   152    1
   162   154   152    1
   163   155   115    1
   164   156   155    1
   165   157   155    1
   166   158   117    1
   167   159   158    1
   168   160   158    1
   169   161   158    1
   170   162   161    1
   171   163   161    1
   172   164   118    1
   173   165   164    1
   174   166   164    1
   175   119   137    1
   176   122   140    1
   177   125   128    1
   178   131   134    1
   179   143   146    1
   180   149   155    1
   181   152   164    1
@<TRIPOS>SUBSTRUCTURE
     1 RES1        1 GROUP             0 ****  ****    0  
     2 RES2      110 GROUP             0 ****  ****    0  
@<TRIPOS>CRYSIN
   20.6034   14.1129   22.1268   90.0000  100.2150   90.0000    14     1
