@<TRIPOS>MOLECULE
ICOZAC
   447   468     3     0     0
SMALL
NO_CHARGES
****
Generated from the CSD

@<TRIPOS>ATOM
     1 Fe1     20.7567  15.8436   3.6306   Fe        1 RES1   0.0000
     2 Fe2     22.1086  17.2507   6.0879   Fe        1 RES1   0.0000
     3 Fe3     23.8432  16.6165   3.6470   Fe        1 RES1   0.0000
     4 Fe4     23.0033  13.6644   4.0446   Fe        1 RES1   0.0000
     5 Fe5     21.2050  14.3418   6.4348   Fe        1 RES1   0.0000
     6 O1      22.3151  15.5225   4.8840   O.3       1 RES1   0.0000
     7 O2      19.3435  16.0743   2.5225   O.3       1 RES1   0.0000
     8 O3      21.8994  18.6688   7.2174   O.3       1 RES1   0.0000
     9 O4      25.0818  17.6227   2.7776   O.3       1 RES1   0.0000
    10 O5      23.6555  12.1332   3.3123   O.3       1 RES1   0.0000
    11 O6      20.3995  13.2384   7.6066   O.3       1 RES1   0.0000
    12 O7      19.8118  15.0508   5.2902   O.3       1 RES1   0.0000
    13 O8      20.8558  17.6428   4.6568   O.3       1 RES1   0.0000
    14 O9      22.3395  16.4797   2.4392   O.3       1 RES1   0.0000
    15 O10     21.3192  13.9164   3.1223   O.3       1 RES1   0.0000
    16 O11     22.6089  13.0913   5.8649   O.3       1 RES1   0.0000
    17 O12     21.8694  15.8469   7.4612   O.3       1 RES1   0.0000
    18 O13     23.8730  17.5923   5.3541   O.3       1 RES1   0.0000
    19 O14     24.5909  14.8337   3.7548   O.3       1 RES1   0.0000
    20 C1      18.4347  16.4897   1.5665   C.3       1 RES1   0.0000
    21 H1      18.6781  17.4229   1.3975   H         1 RES1   0.0000
    22 C2      18.5912  15.8373   0.2618   C.3       1 RES1   0.0000
    23 H2      19.5100  15.8802  -0.0082   H         1 RES1   0.0000
    24 H3      18.0472  16.2890  -0.3875   H         1 RES1   0.0000
    25 H4      18.3185  14.9197   0.3277   H         1 RES1   0.0000
    26 C3      17.0489  16.5644   2.0467   C.3       1 RES1   0.0000
    27 H5      16.7534  15.6891   2.3085   H         1 RES1   0.0000
    28 H6      16.4853  16.8977   1.3459   H         1 RES1   0.0000
    29 H7      17.0055  17.1557   2.8032   H         1 RES1   0.0000
    30 C4      21.1812  19.3026   8.2447   C.3       1 RES1   0.0000
    31 H8      20.7270  18.5731   8.7167   H         1 RES1   0.0000
    32 C5      20.1663  20.1579   7.8572   C.3       1 RES1   0.0000
    33 H9      20.5355  20.8839   7.3501   H         1 RES1   0.0000
    34 H10     19.7220  20.5023   8.6343   H         1 RES1   0.0000
    35 H11     19.5338  19.6786   7.3130   H         1 RES1   0.0000
    36 C6      22.1394  19.8831   9.2650   C.3       1 RES1   0.0000
    37 H12     22.7103  20.5276   8.8383   H         1 RES1   0.0000
    38 H13     22.6746  19.1805   9.6380   H         1 RES1   0.0000
    39 H14     21.6413  20.3126   9.9658   H         1 RES1   0.0000
    40 C7      25.6271  18.6081   2.0467   C.3       1 RES1   0.0000
    41 H15     26.1018  18.9524   2.8321   H         1 RES1   0.0000
    42 C8      26.8975  18.2725   1.3913   C.3       1 RES1   0.0000
    43 H16     27.4649  17.8077   2.0117   H         1 RES1   0.0000
    44 H17     27.3331  19.0782   1.1027   H         1 RES1   0.0000
    45 H18     26.7267  17.7114   0.6307   H         1 RES1   0.0000
    46 C9      25.0566  19.8165   1.8303   C.3       1 RES1   0.0000
    47 H19     24.1995  19.8482   2.2590   H         1 RES1   0.0000
    48 H20     24.9498  19.9552   0.8863   H         1 RES1   0.0000
    49 H21     25.6205  20.5059   2.1931   H         1 RES1   0.0000
    50 C10     24.5802  11.3211   2.6754   C.3       1 RES1   0.0000
    51 H22     25.3967  11.3541   3.2154   H         1 RES1   0.0000
    52 C11     24.1395   9.9066   2.6672   C.3       1 RES1   0.0000
    53 H23     24.0783   9.5836   3.5679   H         1 RES1   0.0000
    54 H24     24.7722   9.3761   2.1787   H         1 RES1   0.0000
    55 H25     23.2781   9.8410   2.2467   H         1 RES1   0.0000
    56 C12     24.9478  11.8293   1.3171   C.3       1 RES1   0.0000
    57 H26     24.1736  11.8134   0.7503   H         1 RES1   0.0000
    58 H27     25.6300  11.2699   0.9399   H         1 RES1   0.0000
    59 H28     25.2719  12.7292   1.3892   H         1 RES1   0.0000
    60 C13     19.6441  12.5560   8.5683   C.3       1 RES1   0.0000
    61 H29     19.1902  13.2350   9.1104   H         1 RES1   0.0000
    62 C14     18.5950  11.7059   7.9747   C.3       1 RES1   0.0000
    63 H30     17.9909  12.2529   7.4676   H         1 RES1   0.0000
    64 H31     18.1141  11.2558   8.6714   H         1 RES1   0.0000
    65 H32     19.0022  11.0572   7.3955   H         1 RES1   0.0000
    66 C15     20.5560  11.7845   9.4979   C.3       1 RES1   0.0000
    67 H33     21.0195  11.1053   9.0011   H         1 RES1   0.0000
    68 H34     20.0322  11.3722  10.1904   H         1 RES1   0.0000
    69 H35     21.1943  12.3833   9.8916   H         1 RES1   0.0000
    70 C16     18.4263  15.3464   5.5198   C.3       1 RES1   0.0000
    71 H36     18.1942  16.1253   4.9716   H         1 RES1   0.0000
    72 C17     18.1797  15.7118   6.9606   C.3       1 RES1   0.0000
    73 H37     18.3734  14.9555   7.5192   H         1 RES1   0.0000
    74 H38     17.2620  15.9674   7.0739   H         1 RES1   0.0000
    75 H39     18.7506  16.4451   7.2079   H         1 RES1   0.0000
    76 C18     17.5834  14.1905   5.0581   C.3       1 RES1   0.0000
    77 H40     17.7467  14.0258   4.1265   H         1 RES1   0.0000
    78 H41     16.6539  14.4007   5.1859   H         1 RES1   0.0000
    79 H42     17.8061  13.4061   5.5652   H         1 RES1   0.0000
    80 C19     20.4030  18.9765   4.3491   C.3       1 RES1   0.0000
    81 H43     20.7448  19.5415   5.0746   H         1 RES1   0.0000
    82 C20     18.9181  19.0645   4.4480   C.3       1 RES1   0.0000
    83 H44     18.5188  18.5237   3.7616   H         1 RES1   0.0000
    84 H45     18.6416  19.9767   4.3367   H         1 RES1   0.0000
    85 H46     18.6355  18.7473   5.3096   H         1 RES1   0.0000
    86 C21     20.9940  19.5159   3.1330   C.3       1 RES1   0.0000
    87 H47     21.9486  19.5117   3.2113   H         1 RES1   0.0000
    88 H48     20.6870  20.4150   2.9990   H         1 RES1   0.0000
    89 H49     20.7312  18.9736   2.3827   H         1 RES1   0.0000
    90 C22     22.3078  16.2081   1.0252   C.3       1 RES1   0.0000
    91 H50     21.5399  15.6176   0.8616   H         1 RES1   0.0000
    92 C23     23.5404  15.4703   0.5751   C.3       1 RES1   0.0000
    93 H51     24.3087  16.0328   0.6884   H         1 RES1   0.0000
    94 H52     23.4494  15.2321  -0.3504   H         1 RES1   0.0000
    95 H53     23.6460  14.6726   1.1007   H         1 RES1   0.0000
    96 C24     22.0725  17.4723   0.2412   C.3       1 RES1   0.0000
    97 H54     21.2526  17.8795   0.5297   H         1 RES1   0.0000
    98 H55     22.0121  17.2625  -0.6946   H         1 RES1   0.0000
    99 H56     22.8009  18.0799   0.3875   H         1 RES1   0.0000
   100 C25     20.4243  12.9739   2.4940   C.3       1 RES1   0.0000
   101 H57     19.5739  13.4325   2.3291   H         1 RES1   0.0000
   102 C26     20.1499  11.8052   3.4009   C.3       1 RES1   0.0000
   103 H58     20.9498  11.2866   3.5061   H         1 RES1   0.0000
   104 H59     19.4610  11.2572   3.0155   H         1 RES1   0.0000
   105 H60     19.8603  12.1265   4.2584   H         1 RES1   0.0000
   106 C27     20.9836  12.5327   1.1563   C.3       1 RES1   0.0000
   107 H61     21.1200  13.3003   0.5977   H         1 RES1   0.0000
   108 H62     20.3645  11.9321   0.7338   H         1 RES1   0.0000
   109 H63     21.8220  12.0837   1.2924   H         1 RES1   0.0000
   110 C28     23.0298  11.9221   6.5999   C.3       1 RES1   0.0000
   111 H64     22.8096  12.0660   7.5439   H         1 RES1   0.0000
   112 C29     24.5239  11.7626   6.4948   C.3       1 RES1   0.0000
   113 H65     24.7639  11.5752   5.5837   H         1 RES1   0.0000
   114 H66     24.8097  11.0383   7.0554   H         1 RES1   0.0000
   115 H67     24.9532  12.5748   6.7751   H         1 RES1   0.0000
   116 C30     22.2893  10.6890   6.1361   C.3       1 RES1   0.0000
   117 H68     21.3444  10.8527   6.1670   H         1 RES1   0.0000
   118 H69     22.5057   9.9514   6.7091   H         1 RES1   0.0000
   119 H70     22.5475  10.4809   5.2333   H         1 RES1   0.0000
   120 C31     22.3429  15.9489   8.8123   C.3       1 RES1   0.0000
   121 H71     22.7247  16.8429   8.9352   H         1 RES1   0.0000
   122 C32     23.4447  14.9287   9.0382   C.3       1 RES1   0.0000
   123 H72     23.0827  14.0438   8.9640   H         1 RES1   0.0000
   124 H73     23.8192  15.0503   9.9142   H         1 RES1   0.0000
   125 H74     24.1322  15.0508   8.3787   H         1 RES1   0.0000
   126 C33     21.2147  15.7855   9.7906   C.3       1 RES1   0.0000
   127 H75     20.5182  16.4119   9.5845   H         1 RES1   0.0000
   128 H76     21.5363  15.9466  10.6810   H         1 RES1   0.0000
   129 H77     20.8697  14.8911   9.7349   H         1 RES1   0.0000
   130 C34     24.8601  18.5622   5.7754   C.3       1 RES1   0.0000
   131 H78     25.6484  18.4578   5.2024   H         1 RES1   0.0000
   132 C35     25.2789  18.2665   7.2059   C.3       1 RES1   0.0000
   133 H79     24.5214  18.3595   7.7851   H         1 RES1   0.0000
   134 H80     25.9649  18.8848   7.4718   H         1 RES1   0.0000
   135 H81     25.6168  17.3696   7.2615   H         1 RES1   0.0000
   136 C36     24.3533  19.9663   5.6126   C.3       1 RES1   0.0000
   137 H82     24.0644  20.1010   4.7077   H         1 RES1   0.0000
   138 H83     25.0579  20.5867   5.8208   H         1 RES1   0.0000
   139 H84     23.6143  20.1100   6.2103   H         1 RES1   0.0000
   140 C37     25.9531  14.4407   4.0317   C.3       1 RES1   0.0000
   141 H85     25.9838  13.4646   4.1059   H         1 RES1   0.0000
   142 C38     26.3743  15.0365   5.3611   C.3       1 RES1   0.0000
   143 H86     26.4415  15.9919   5.2787   H         1 RES1   0.0000
   144 H87     27.2295  14.6773   5.6167   H         1 RES1   0.0000
   145 H88     25.7229  14.8182   6.0310   H         1 RES1   0.0000
   146 C39     26.8583  14.8552   2.9289   C.3       1 RES1   0.0000
   147 H89     26.5591  14.4602   2.1045   H         1 RES1   0.0000
   148 H90     27.7496  14.5585   3.1186   H         1 RES1   0.0000
   149 H91     26.8477  15.8106   2.8485   H         1 RES1   0.0000
   150 Fe6     23.8002   3.0496   6.0910   Fe        2 RES2   0.0000
   151 Fe7     22.0792   0.9054   4.5086   Fe        2 RES2   0.0000
   152 Fe8     20.9812   1.9507   7.2090   Fe        2 RES2   0.0000
   153 Fe9     21.1866   4.7868   6.0465   Fe        2 RES2   0.0000
   154 Fe10    22.3254   3.7514   3.3976   Fe        2 RES2   0.0000
   155 O15     21.9213   2.9153   5.3586   O.3       2 RES2   0.0000
   156 O16     25.4900   3.1401   6.7516   O.3       2 RES2   0.0000
   157 O17     22.2258  -0.6982   3.6658   O.3       2 RES2   0.0000
   158 O18     20.1875   1.1287   8.6200   O.3       2 RES2   0.0000
   159 O19     20.4758   6.2748   6.7957   O.3       2 RES2   0.0000
   160 O20     22.5496   4.4892   1.7621   O.3       2 RES2   0.0000
   161 O21     22.7377   2.4943   7.7842   O.3       2 RES2   0.0000
   162 O22     23.7224   1.0558   5.5250   O.3       2 RES2   0.0000
   163 O23     24.1156   3.4876   4.1001   O.3       2 RES2   0.0000
   164 O24     23.0833   4.9612   6.4383   O.3       2 RES2   0.0000
   165 O25     19.9221   3.5303   6.9187   O.3       2 RES2   0.0000
   166 O26     20.6936   0.5897   5.8321   O.3       2 RES2   0.0000
   167 O27     21.5773   2.0080   2.9559   O.3       2 RES2   0.0000
   168 O28     21.1045   5.1148   4.1259   O.3       2 RES2   0.0000
   169 C40     26.7684   3.0628   7.1605   C.3       2 RES2   0.0000
   170 H92     26.8114   2.0854   7.1358   H         2 RES2   0.0000
   171 C41     27.0059   3.1683   8.5889   C.3       2 RES2   0.0000
   172 H93     26.7027   4.0237   8.9022   H         2 RES2   0.0000
   173 H94     27.9449   3.0789   8.7662   H         2 RES2   0.0000
   174 H95     26.5258   2.4728   9.0444   H         2 RES2   0.0000
   175 C42     27.8171   3.2578   6.2515   C.3       2 RES2   0.0000
   176 H96     27.6728   2.7119   5.4765   H         2 RES2   0.0000
   177 H97     28.6501   3.0127   6.6658   H         2 RES2   0.0000
   178 H98     27.8496   4.1802   5.9918   H         2 RES2   0.0000
   179 C43     22.3336  -1.5068   2.5105   C.3       2 RES2   0.0000
   180 H99     21.9394  -1.0094   1.7644   H         2 RES2   0.0000
   181 C44     21.5381  -2.7734   2.6816   C.3       2 RES2   0.0000
   182 H100    21.8564  -3.2521   3.4504   H         2 RES2   0.0000
   183 H101    21.6368  -3.3231   1.8983   H         2 RES2   0.0000
   184 H102    20.6108  -2.5556   2.8032   H         2 RES2   0.0000
   185 C45     23.7627  -1.7781   2.1663   C.3       2 RES2   0.0000
   186 H103    24.2357  -0.9470   2.0838   H         2 RES2   0.0000
   187 H104    23.8061  -2.2578   1.3356   H         2 RES2   0.0000
   188 H105    24.1654  -2.3072   2.8609   H         2 RES2   0.0000
   189 C46     20.0223   0.1043   9.5696   C.3       2 RES2   0.0000
   190 H106    20.7549  -0.5374   9.4752   H         2 RES2   0.0000
   191 C47     18.7044  -0.6197   9.3536   C.3       2 RES2   0.0000
   192 H107    17.9800   0.0033   9.4402   H         2 RES2   0.0000
   193 H108    18.6104  -1.3163  10.0070   H         2 RES2   0.0000
   194 H109    18.6916  -1.0031   8.4735   H         2 RES2   0.0000
   195 C48     20.0586   0.6903  10.9737   C.3       2 RES2   0.0000
   196 H110    20.8993   1.1303  11.1139   H         2 RES2   0.0000
   197 H111    19.9542  -0.0156  11.6168   H         2 RES2   0.0000
   198 H112    19.3436   1.3226  11.0747   H         2 RES2   0.0000
   199 C49     20.1356   7.4765   7.4120   C.3       2 RES2   0.0000
   200 H113    20.5344   8.1932   6.8761   H         2 RES2   0.0000
   201 C50     20.7196   7.5899   8.7785   C.3       2 RES2   0.0000
   202 H114    20.3906   6.8732   9.3268   H         2 RES2   0.0000
   203 H115    20.4690   8.4317   9.1660   H         2 RES2   0.0000
   204 H116    21.6765   7.5356   8.7229   H         2 RES2   0.0000
   205 C51     18.6573   7.6988   7.3976   C.3       2 RES2   0.0000
   206 H117    18.3316   7.6244   6.4968   H         2 RES2   0.0000
   207 H118    18.4605   8.5767   7.7356   H         2 RES2   0.0000
   208 H119    18.2282   7.0405   7.9479   H         2 RES2   0.0000
   209 C52     23.1578   5.2643   0.7573   C.3       2 RES2   0.0000
   210 H120    23.9768   4.8138   0.4679   H         2 RES2   0.0000
   211 C53     22.2148   5.3685  -0.4308   C.3       2 RES2   0.0000
   212 H121    22.0491   4.4926  -0.7832   H         2 RES2   0.0000
   213 H122    22.6177   5.9163  -1.1089   H         2 RES2   0.0000
   214 H123    21.3880   5.7625  -0.1484   H         2 RES2   0.0000
   215 C54     23.5211   6.6365   1.2821   C.3       2 RES2   0.0000
   216 H124    22.7185   7.1137   1.5108   H         2 RES2   0.0000
   217 H125    24.0002   7.1204   0.6080   H         2 RES2   0.0000
   218 H126    24.0724   6.5458   2.0632   H         2 RES2   0.0000
   219 C55     23.2266   2.8493   9.0953   C.3       2 RES2   0.0000
   220 H127    24.0270   3.4055   8.9805   H         2 RES2   0.0000
   221 C56     23.6373   1.5835   9.8215   C.3       2 RES2   0.0000
   222 H128    22.8741   1.0122   9.9225   H         2 RES2   0.0000
   223 H129    23.9863   1.8106  10.6851   H         2 RES2   0.0000
   224 H130    24.3124   1.1285   9.3124   H         2 RES2   0.0000
   225 C57     22.1934   3.6666   9.8421   C.3       2 RES2   0.0000
   226 H131    21.9492   4.4303   9.3144   H         2 RES2   0.0000
   227 H132    22.5635   3.9598  10.6789   H         2 RES2   0.0000
   228 H133    21.4166   3.1270  10.0049   H         2 RES2   0.0000
   229 C58     24.5459   0.0769   6.1794   C.3       2 RES2   0.0000
   230 H134    24.9934   0.5250   6.9297   H         2 RES2   0.0000
   231 C59     23.7340  -1.0393   6.7483   C.3       2 RES2   0.0000
   232 H135    23.0495  -0.6768   7.3151   H         2 RES2   0.0000
   233 H136    24.3028  -1.6183   7.2636   H         2 RES2   0.0000
   234 H137    23.3313  -1.5365   6.0351   H         2 RES2   0.0000
   235 C60     25.6365  -0.4003   5.2251   C.3       2 RES2   0.0000
   236 H138    25.2334  -0.8711   4.4913   H         2 RES2   0.0000
   237 H139    26.2347  -0.9885   5.6909   H         2 RES2   0.0000
   238 H140    26.1229   0.3567   4.8912   H         2 RES2   0.0000
   239 C61     25.3314   3.0728   3.4488   C.3       2 RES2   0.0000
   240 H141    25.8585   2.5684   4.1017   H         2 RES2   0.0000
   241 C62     26.1471   4.2786   3.0320   C.3       2 RES2   0.0000
   242 H142    25.6834   4.7531   2.3353   H         2 RES2   0.0000
   243 H143    27.0036   3.9902   2.7084   H         2 RES2   0.0000
   244 H144    26.2684   4.8585   3.7864   H         2 RES2   0.0000
   245 C63     25.0454   2.1485   2.2817   C.3       2 RES2   0.0000
   246 H145    24.4811   1.4312   2.5744   H         2 RES2   0.0000
   247 H146    25.8723   1.7905   1.9499   H         2 RES2   0.0000
   248 H147    24.6053   2.6400   1.5850   H         2 RES2   0.0000
   249 C64     23.7054   6.2431   6.6267   C.3       2 RES2   0.0000
   250 H148    22.9729   6.8948   6.6432   H         2 RES2   0.0000
   251 C65     24.5421   6.6163   5.5075   C.3       2 RES2   0.0000
   252 H149    25.2831   6.0101   5.4456   H         2 RES2   0.0000
   253 H150    24.8703   7.5103   5.6373   H         2 RES2   0.0000
   254 H151    24.0278   6.5772   4.6974   H         2 RES2   0.0000
   255 C66     24.3530   6.3265   7.9706   C.3       2 RES2   0.0000
   256 H152    23.6895   6.2080   8.6549   H         2 RES2   0.0000
   257 H153    24.7684   7.1867   8.0736   H         2 RES2   0.0000
   258 H154    25.0197   5.6405   8.0489   H         2 RES2   0.0000
   259 C67     18.6033   3.8716   7.3728   C.3       2 RES2   0.0000
   260 H155    18.3219   4.6915   6.9152   H         2 RES2   0.0000
   261 C68     17.6377   2.7716   7.0121   C.3       2 RES2   0.0000
   262 H156    17.6737   2.6127   6.0660   H         2 RES2   0.0000
   263 H157    16.7474   3.0341   7.2574   H         2 RES2   0.0000
   264 H158    17.8751   1.9706   7.4821   H         2 RES2   0.0000
   265 C69     18.6071   4.1369   8.8630   C.3       2 RES2   0.0000
   266 H159    18.8244   3.3264   9.3309   H         2 RES2   0.0000
   267 H160    17.7395   4.4406   9.1372   H         2 RES2   0.0000
   268 H161    19.2604   4.8102   9.0671   H         2 RES2   0.0000
   269 C70     19.5963  -0.3507   5.8166   C.3       2 RES2   0.0000
   270 H162    18.9681  -0.0925   6.5216   H         2 RES2   0.0000
   271 C71     20.0967  -1.7423   6.1258   C.3       2 RES2   0.0000
   272 H163    20.7225  -2.0138   5.4497   H         2 RES2   0.0000
   273 H164    19.3574  -2.3527   6.1444   H         2 RES2   0.0000
   274 H165    20.5343  -1.7412   6.9812   H         2 RES2   0.0000
   275 C72     18.8748  -0.2552   4.4975   C.3       2 RES2   0.0000
   276 H166    18.5939   0.6496   4.3511   H         2 RES2   0.0000
   277 H167    18.1065  -0.8317   4.5098   H         2 RES2   0.0000
   278 H168    19.4644  -0.5265   3.7905   H         2 RES2   0.0000
   279 C73     20.8389   1.5955   1.7751   C.3       2 RES2   0.0000
   280 H169    20.4783   0.6962   1.9334   H         2 RES2   0.0000
   281 C74     21.7642   1.5358   0.5792   C.3       2 RES2   0.0000
   282 H170    22.1044   2.4126   0.3937   H         2 RES2   0.0000
   283 H171    21.2790   1.2140  -0.1855   H         2 RES2   0.0000
   284 H172    22.4935   0.9415   0.7688   H         2 RES2   0.0000
   285 C75     19.6783   2.5421   1.5603   C.3       2 RES2   0.0000
   286 H173    19.1491   2.5850   2.3600   H         2 RES2   0.0000
   287 H174    19.1372   2.2257   0.8327   H         2 RES2   0.0000
   288 H175    20.0147   3.4172   1.3521   H         2 RES2   0.0000
   289 C76     20.4215   6.1340   3.3618   C.3       2 RES2   0.0000
   290 H176    20.6321   6.0015   2.4136   H         2 RES2   0.0000
   291 C77     20.8926   7.5144   3.7658   C.3       2 RES2   0.0000
   292 H177    20.6568   7.6754   4.6830   H         2 RES2   0.0000
   293 H178    20.4699   8.1709   3.2072   H         2 RES2   0.0000
   294 H179    21.8459   7.5715   3.6648   H         2 RES2   0.0000
   295 C78     18.9319   5.9428   3.5514   C.3       2 RES2   0.0000
   296 H180    18.6892   5.0514   3.2917   H         2 RES2   0.0000
   297 H181    18.4570   6.5748   3.0073   H         2 RES2   0.0000
   298 H182    18.7065   6.0811   4.4748   H         2 RES2   0.0000
   299 Fe11    10.4359   8.8443   4.2868   Fe        3 RES3   0.0000
   300 Fe12    11.3642   8.0742   7.2281   Fe        3 RES3   0.0000
   301 Fe13    11.5324  11.0201   6.3123   Fe        3 RES3   0.0000
   302 Fe14    13.2516  10.2724   3.8532   Fe        3 RES3   0.0000
   303 Fe15    13.1281   7.3453   4.8097   Fe        3 RES3   0.0000
   304 O29     12.1005   9.1231   5.3887   O.3       3 RES3   0.0000
   305 O30      8.9344   8.6316   3.2894   O.3       3 RES3   0.0000
   306 O31     10.8898   7.1433   8.7006   O.3       3 RES3   0.0000
   307 O32     11.0711  12.4981   7.2438   O.3       3 RES3   0.0000
   308 O33     14.1833  11.3151   2.7125   O.3       3 RES3   0.0000
   309 O34     14.1104   5.9183   4.2386   O.3       3 RES3   0.0000
   310 O35     11.7070   9.6430   2.8659   O.3       3 RES3   0.0000
   311 O36     11.3755   7.0378   4.0358   O.3       3 RES3   0.0000
   312 O37      9.7753   8.1844   6.1336   O.3       3 RES3   0.0000
   313 O38     10.1345  10.7596   4.9930   O.3       3 RES3   0.0000
   314 O39     13.1366  11.5465   5.3473   O.3       3 RES3   0.0000
   315 O40     14.3895   8.7325   4.1636   O.3       3 RES3   0.0000
   316 O41     12.9280   7.0051   6.7246   O.3       3 RES3   0.0000
   317 O42     11.7570   9.8580   7.8867   O.3       3 RES3   0.0000
   318 C79      7.8504   8.4609   2.5146   C.3       3 RES3   0.0000
   319 H183     8.3283   7.8443   1.9210   H         3 RES3   0.0000
   320 C80      7.6094   9.3856   1.4511   C.3       3 RES3   0.0000
   321 H184     7.3452  10.2332   1.8180   H         3 RES3   0.0000
   322 H185     6.9083   9.0476   0.8863   H         3 RES3   0.0000
   323 H186     8.4082   9.4957   0.9337   H         3 RES3   0.0000
   324 C81      6.9236   7.4909   2.8692   C.3       3 RES3   0.0000
   325 H187     6.9214   6.7955   2.2075   H         3 RES3   0.0000
   326 H188     6.0522   7.8861   2.9227   H         3 RES3   0.0000
   327 H189     7.1601   7.1191   3.7225   H         3 RES3   0.0000
   328 C82     10.1883   6.3687   9.6195   C.3       3 RES3   0.0000
   329 H190     9.2805   6.7340   9.6401   H         3 RES3   0.0000
   330 C83     10.7105   6.4971  11.0005   C.3       3 RES3   0.0000
   331 H191    11.6329   6.2277  11.0211   H         3 RES3   0.0000
   332 H192    10.2025   5.9346  11.5900   H         3 RES3   0.0000
   333 H193    10.6366   7.4091  11.2891   H         3 RES3   0.0000
   334 C84     10.0508   4.9490   9.1743   C.3       3 RES3   0.0000
   335 H194     9.6735   4.9254   8.2921   H         3 RES3   0.0000
   336 H195     9.4773   4.4768   9.7823   H         3 RES3   0.0000
   337 H196    10.9179   4.5328   9.1640   H         3 RES3   0.0000
   338 C85     10.5129  13.7228   7.6717   C.3       3 RES3   0.0000
   339 H197    10.3632  14.2770   6.8761   H         3 RES3   0.0000
   340 C86      9.1752  13.5140   8.3416   C.3       3 RES3   0.0000
   341 H198     8.6067  12.9934   7.7686   H         3 RES3   0.0000
   342 H199     8.7654  14.3645   8.5106   H         3 RES3   0.0000
   343 H200     9.3037  13.0501   9.1722   H         3 RES3   0.0000
   344 C87     11.4448  14.4509   8.5621   C.3       3 RES3   0.0000
   345 H201    11.6596  13.9007   9.3206   H         3 RES3   0.0000
   346 H202    11.0326  15.2630   8.8651   H         3 RES3   0.0000
   347 H203    12.2486  14.6606   8.0819   H         3 RES3   0.0000
   348 C88     14.6820  12.2390   1.8406   C.3       3 RES3   0.0000
   349 H204    14.5609  11.6592   1.0594   H         3 RES3   0.0000
   350 C89     16.0803  12.3341   1.6634   C.3       3 RES3   0.0000
   351 H205    16.4977  12.5350   2.5064   H         3 RES3   0.0000
   352 H206    16.2758  13.0324   1.0347   H         3 RES3   0.0000
   353 H207    16.4193  11.4996   1.3295   H         3 RES3   0.0000
   354 C90     13.7969  13.2493   1.3418   C.3       3 RES3   0.0000
   355 H208    12.9761  12.8440   1.0574   H         3 RES3   0.0000
   356 H209    14.2098  13.6958   0.5977   H         3 RES3   0.0000
   357 H210    13.6156  13.8880   2.0364   H         3 RES3   0.0000
   358 C91     14.6414   4.9165   3.5143   C.3       3 RES3   0.0000
   359 H211    13.9462   4.2396   3.6524   H         3 RES3   0.0000
   360 C92     15.7566   4.2333   4.1368   C.3       3 RES3   0.0000
   361 H212    16.5069   4.8282   4.1883   H         3 RES3   0.0000
   362 H213    15.9921   3.4637   3.6132   H         3 RES3   0.0000
   363 H214    15.5072   3.9536   5.0210   H         3 RES3   0.0000
   364 C93     14.5880   5.0087   2.0838   C.3       3 RES3   0.0000
   365 H215    13.7537   5.4000   1.8200   H         3 RES3   0.0000
   366 H216    14.6650   4.1311   1.7046   H         3 RES3   0.0000
   367 H217    15.3125   5.5585   1.7726   H         3 RES3   0.0000
   368 C94     11.5392   9.3196   1.4727   C.3       3 RES3   0.0000
   369 H218    10.7949   8.6890   1.3954   H         3 RES3   0.0000
   370 C95     12.7638   8.6633   0.9069   C.3       3 RES3   0.0000
   371 H219    13.4937   9.2905   0.9090   H         3 RES3   0.0000
   372 H220    12.5896   8.3779   0.0082   H         3 RES3   0.0000
   373 H221    12.9967   7.9033   1.4449   H         3 RES3   0.0000
   374 C96     11.1798  10.5668   0.6905   C.3       3 RES3   0.0000
   375 H222    10.4538  11.0203   1.1233   H         3 RES3   0.0000
   376 H223    10.9189  10.3228  -0.1999   H         3 RES3   0.0000
   377 H224    11.9414  11.1509   0.6493   H         3 RES3   0.0000
   378 C97     10.6625   5.8135   3.7823   C.3       3 RES3   0.0000
   379 H225     9.7389   6.1391   3.8276   H         3 RES3   0.0000
   380 C98     10.7337   5.4254   2.3683   C.3       3 RES3   0.0000
   381 H226    10.5055   6.1779   1.8180   H         3 RES3   0.0000
   382 H227    10.1179   4.7086   2.2013   H         3 RES3   0.0000
   383 H228    11.6252   5.1364   2.1601   H         3 RES3   0.0000
   384 C99     10.6442   4.8757   4.8170   C.3       3 RES3   0.0000
   385 H229    11.4695   4.3879   4.8231   H         3 RES3   0.0000
   386 H230     9.9144   4.2662   4.6830   H         3 RES3   0.0000
   387 H231    10.5329   5.3272   5.6579   H         3 RES3   0.0000
   388 C100     8.3826   8.3139   6.4783   C.3       3 RES3   0.0000
   389 H232     7.9223   8.7154   5.7115   H         3 RES3   0.0000
   390 C101     7.7773   6.9528   6.7153   C.3       3 RES3   0.0000
   391 H233     7.9099   6.4050   5.9382   H         3 RES3   0.0000
   392 H234     6.8368   7.0461   6.8843   H         3 RES3   0.0000
   393 H235     8.2002   6.5438   7.4738   H         3 RES3   0.0000
   394 C102     8.1934   9.2400   7.6676   C.3       3 RES3   0.0000
   395 H236     8.5518   8.8253   8.4549   H         3 RES3   0.0000
   396 H237     7.2565   9.4108   7.7933   H         3 RES3   0.0000
   397 H238     8.6504  10.0678   7.5047   H         3 RES3   0.0000
   398 C103     9.3169  11.6690   4.2172   C.3       3 RES3   0.0000
   399 H239     9.1552  11.2422   3.3515   H         3 RES3   0.0000
   400 C104     7.9757  11.8256   4.8953   C.3       3 RES3   0.0000
   401 H240     7.5550  10.9663   4.9757   H         3 RES3   0.0000
   402 H241     7.4193  12.4066   4.3697   H         3 RES3   0.0000
   403 H242     8.0996  12.2053   5.7672   H         3 RES3   0.0000
   404 C105    10.0274  12.9399   3.9492   C.3       3 RES3   0.0000
   405 H243    10.1988  13.3933   4.7799   H         3 RES3   0.0000
   406 H244     9.4868  13.4985   3.3865   H         3 RES3   0.0000
   407 H245    10.8612  12.7558   3.5102   H         3 RES3   0.0000
   408 C106    14.0769  12.6072   5.6208   C.3       3 RES3   0.0000
   409 H246    14.8518  12.4822   5.0334   H         3 RES3   0.0000
   410 C107    14.5510  12.4924   7.0492   C.3       3 RES3   0.0000
   411 H247    13.8115  12.6249   7.6449   H         3 RES3   0.0000
   412 H248    15.2216  13.1602   7.2182   H         3 RES3   0.0000
   413 H249    14.9272  11.6214   7.1914   H         3 RES3   0.0000
   414 C108    13.4563  13.9444   5.2910   C.3       3 RES3   0.0000
   415 H250    13.2057  13.9624   4.3656   H         3 RES3   0.0000
   416 H251    14.0937  14.6442   5.4642   H         3 RES3   0.0000
   417 H252    12.6781  14.0790   5.8372   H         3 RES3   0.0000
   418 C109    15.8079   8.5852   3.9595   C.3       3 RES3   0.0000
   419 H253    16.0747   7.7094   4.3058   H         3 RES3   0.0000
   420 C110    16.1444   8.6287   2.4858   C.3       3 RES3   0.0000
   421 H254    15.7011   7.9058   2.0364   H         3 RES3   0.0000
   422 H255    17.0934   8.5426   2.3724   H         3 RES3   0.0000
   423 H256    15.8515   9.4650   2.1168   H         3 RES3   0.0000
   424 C111    16.5426   9.6434   4.7386   C.3       3 RES3   0.0000
   425 H257    16.3242  10.5117   4.3882   H         3 RES3   0.0000
   426 H258    17.4901   9.4988   4.6624   H         3 RES3   0.0000
   427 H259    16.2861   9.5971   5.6620   H         3 RES3   0.0000
   428 C112    13.6905   6.1533   7.5934   C.3       3 RES3   0.0000
   429 H260    13.4063   6.3255   8.5147   H         3 RES3   0.0000
   430 C113    13.4443   4.6951   7.2924   C.3       3 RES3   0.0000
   431 H261    12.5166   4.4929   7.4285   H         3 RES3   0.0000
   432 H262    13.9782   4.1534   7.8778   H         3 RES3   0.0000
   433 H263    13.6843   4.5116   6.3814   H         3 RES3   0.0000
   434 C114    15.1529   6.5269   7.4738   C.3       3 RES3   0.0000
   435 H264    15.4573   6.3451   6.5813   H         3 RES3   0.0000
   436 H265    15.6664   6.0094   8.0984   H         3 RES3   0.0000
   437 H266    15.2604   7.4601   7.6634   H         3 RES3   0.0000
   438 C115    11.9955  10.3130   9.2320   C.3       3 RES3   0.0000
   439 H267    12.2905  11.2475   9.1887   H         3 RES3   0.0000
   440 C116    13.1125   9.4999   9.8318   C.3       3 RES3   0.0000
   441 H268    12.8384   8.5842   9.9039   H         3 RES3   0.0000
   442 H269    13.3234   9.8419  10.7037   H         3 RES3   0.0000
   443 H270    13.8888   9.5594   9.2691   H         3 RES3   0.0000
   444 C117    10.7138  10.2617  10.0379   C.3       3 RES3   0.0000
   445 H271    10.0520  10.8214   9.6236   H         3 RES3   0.0000
   446 H272    10.8839  10.5735  10.9304   H         3 RES3   0.0000
   447 H273    10.3927   9.3574  10.0709   H         3 RES3   0.0000
@<TRIPOS>BOND
     1     1     6    1
     2     2     6    1
     3     3     6    1
     4     4     6    1
     5     5     6    1
     6     7     1    1
     7     8     2    1
     8     9     3    1
     9    10     4    1
    10    11     5    1
    11    12     1    1
    12    13     1    1
    13    14     1    1
    14    15     1    1
    15    16     4    1
    16    17     2    1
    17    18     2    1
    18    19     3    1
    19    20     7    1
    20    21    20    1
    21    22    20    1
    22    23    22    1
    23    24    22    1
    24    25    22    1
    25    26    20    1
    26    27    26    1
    27    28    26    1
    28    29    26    1
    29    30     8    1
    30    31    30    1
    31    32    30    1
    32    33    32    1
    33    34    32    1
    34    35    32    1
    35    36    30    1
    36    37    36    1
    37    38    36    1
    38    39    36    1
    39    40     9    1
    40    41    40    1
    41    42    40    1
    42    43    42    1
    43    44    42    1
    44    45    42    1
    45    46    40    1
    46    47    46    1
    47    48    46    1
    48    49    46    1
    49    50    10    1
    50    51    50    1
    51    52    50    1
    52    53    52    1
    53    54    52    1
    54    55    52    1
    55    56    50    1
    56    57    56    1
    57    58    56    1
    58    59    56    1
    59    60    11    1
    60    61    60    1
    61    62    60    1
    62    63    62    1
    63    64    62    1
    64    65    62    1
    65    66    60    1
    66    67    66    1
    67    68    66    1
    68    69    66    1
    69    70    12    1
    70    71    70    1
    71    72    70    1
    72    73    72    1
    73    74    72    1
    74    75    72    1
    75    76    70    1
    76    77    76    1
    77    78    76    1
    78    79    76    1
    79    80    13    1
    80    81    80    1
    81    82    80    1
    82    83    82    1
    83    84    82    1
    84    85    82    1
    85    86    80    1
    86    87    86    1
    87    88    86    1
    88    89    86    1
    89    90    14    1
    90    91    90    1
    91    92    90    1
    92    93    92    1
    93    94    92    1
    94    95    92    1
    95    96    90    1
    96    97    96    1
    97    98    96    1
    98    99    96    1
    99   100    15    1
   100   101   100    1
   101   102   100    1
   102   103   102    1
   103   104   102    1
   104   105   102    1
   105   106   100    1
   106   107   106    1
   107   108   106    1
   108   109   106    1
   109   110    16    1
   110   111   110    1
   111   112   110    1
   112   113   112    1
   113   114   112    1
   114   115   112    1
   115   116   110    1
   116   117   116    1
   117   118   116    1
   118   119   116    1
   119   120    17    1
   120   121   120    1
   121   122   120    1
   122   123   122    1
   123   124   122    1
   124   125   122    1
   125   126   120    1
   126   127   126    1
   127   128   126    1
   128   129   126    1
   129   130    18    1
   130   131   130    1
   131   132   130    1
   132   133   132    1
   133   134   132    1
   134   135   132    1
   135   136   130    1
   136   137   136    1
   137   138   136    1
   138   139   136    1
   139   140    19    1
   140   141   140    1
   141   142   140    1
   142   143   142    1
   143   144   142    1
   144   145   142    1
   145   146   140    1
   146   147   146    1
   147   148   146    1
   148   149   146    1
   149     2    13    1
   150     3    14    1
   151     3    18    1
   152     4    15    1
   153     4    19    1
   154     5    12    1
   155     5    16    1
   156     5    17    1
   157   150   155    1
   158   151   155    1
   159   152   155    1
   160   153   155    1
   161   154   155    1
   162   156   150    1
   163   157   151    1
   164   158   152    1
   165   159   153    1
   166   160   154    1
   167   161   150    1
   168   162   150    1
   169   163   150    1
   170   164   150    1
   171   165   152    1
   172   166   151    1
   173   167   151    1
   174   168   153    1
   175   169   156    1
   176   170   169    1
   177   171   169    1
   178   172   171    1
   179   173   171    1
   180   174   171    1
   181   175   169    1
   182   176   175    1
   183   177   175    1
   184   178   175    1
   185   179   157    1
   186   180   179    1
   187   181   179    1
   188   182   181    1
   189   183   181    1
   190   184   181    1
   191   185   179    1
   192   186   185    1
   193   187   185    1
   194   188   185    1
   195   189   158    1
   196   190   189    1
   197   191   189    1
   198   192   191    1
   199   193   191    1
   200   194   191    1
   201   195   189    1
   202   196   195    1
   203   197   195    1
   204   198   195    1
   205   199   159    1
   206   200   199    1
   207   201   199    1
   208   202   201    1
   209   203   201    1
   210   204   201    1
   211   205   199    1
   212   206   205    1
   213   207   205    1
   214   208   205    1
   215   209   160    1
   216   210   209    1
   217   211   209    1
   218   212   211    1
   219   213   211    1
   220   214   211    1
   221   215   209    1
   222   216   215    1
   223   217   215    1
   224   218   215    1
   225   219   161    1
   226   220   219    1
   227   221   219    1
   228   222   221    1
   229   223   221    1
   230   224   221    1
   231   225   219    1
   232   226   225    1
   233   227   225    1
   234   228   225    1
   235   229   162    1
   236   230   229    1
   237   231   229    1
   238   232   231    1
   239   233   231    1
   240   234   231    1
   241   235   229    1
   242   236   235    1
   243   237   235    1
   244   238   235    1
   245   239   163    1
   246   240   239    1
   247   241   239    1
   248   242   241    1
   249   243   241    1
   250   244   241    1
   251   245   239    1
   252   246   245    1
   253   247   245    1
   254   248   245    1
   255   249   164    1
   256   250   249    1
   257   251   249    1
   258   252   251    1
   259   253   251    1
   260   254   251    1
   261   255   249    1
   262   256   255    1
   263   257   255    1
   264   258   255    1
   265   259   165    1
   266   260   259    1
   267   261   259    1
   268   262   261    1
   269   263   261    1
   270   264   261    1
   271   265   259    1
   272   266   265    1
   273   267   265    1
   274   268   265    1
   275   269   166    1
   276   270   269    1
   277   271   269    1
   278   272   271    1
   279   273   271    1
   280   274   271    1
   281   275   269    1
   282   276   275    1
   283   277   275    1
   284   278   275    1
   285   279   167    1
   286   280   279    1
   287   281   279    1
   288   282   281    1
   289   283   281    1
   290   284   281    1
   291   285   279    1
   292   286   285    1
   293   287   285    1
   294   288   285    1
   295   289   168    1
   296   290   289    1
   297   291   289    1
   298   292   291    1
   299   293   291    1
   300   294   291    1
   301   295   289    1
   302   296   295    1
   303   297   295    1
   304   298   295    1
   305   151   162    1
   306   152   161    1
   307   152   166    1
   308   153   164    1
   309   153   165    1
   310   154   163    1
   311   154   167    1
   312   154   168    1
   313   299   304    1
   314   300   304    1
   315   301   304    1
   316   302   304    1
   317   303   304    1
   318   305   299    1
   319   306   300    1
   320   307   301    1
   321   308   302    1
   322   309   303    1
   323   310   299    1
   324   311   299    1
   325   312   299    1
   326   313   299    1
   327   314   301    1
   328   315   302    1
   329   316   300    1
   330   317   300    1
   331   318   305    1
   332   319   318    1
   333   320   318    1
   334   321   320    1
   335   322   320    1
   336   323   320    1
   337   324   318    1
   338   325   324    1
   339   326   324    1
   340   327   324    1
   341   328   306    1
   342   329   328    1
   343   330   328    1
   344   331   330    1
   345   332   330    1
   346   333   330    1
   347   334   328    1
   348   335   334    1
   349   336   334    1
   350   337   334    1
   351   338   307    1
   352   339   338    1
   353   340   338    1
   354   341   340    1
   355   342   340    1
   356   343   340    1
   357   344   338    1
   358   345   344    1
   359   346   344    1
   360   347   344    1
   361   348   308    1
   362   349   348    1
   363   350   348    1
   364   351   350    1
   365   352   350    1
   366   353   350    1
   367   354   348    1
   368   355   354    1
   369   356   354    1
   370   357   354    1
   371   358   309    1
   372   359   358    1
   373   360   358    1
   374   361   360    1
   375   362   360    1
   376   363   360    1
   377   364   358    1
   378   365   364    1
   379   366   364    1
   380   367   364    1
   381   368   310    1
   382   369   368    1
   383   370   368    1
   384   371   370    1
   385   372   370    1
   386   373   370    1
   387   374   368    1
   388   375   374    1
   389   376   374    1
   390   377   374    1
   391   378   311    1
   392   379   378    1
   393   380   378    1
   394   381   380    1
   395   382   380    1
   396   383   380    1
   397   384   378    1
   398   385   384    1
   399   386   384    1
   400   387   384    1
   401   388   312    1
   402   389   388    1
   403   390   388    1
   404   391   390    1
   405   392   390    1
   406   393   390    1
   407   394   388    1
   408   395   394    1
   409   396   394    1
   410   397   394    1
   411   398   313    1
   412   399   398    1
   413   400   398    1
   414   401   400    1
   415   402   400    1
   416   403   400    1
   417   404   398    1
   418   405   404    1
   419   406   404    1
   420   407   404    1
   421   408   314    1
   422   409   408    1
   423   410   408    1
   424   411   410    1
   425   412   410    1
   426   413   410    1
   427   414   408    1
   428   415   414    1
   429   416   414    1
   430   417   414    1
   431   418   315    1
   432   419   418    1
   433   420   418    1
   434   421   420    1
   435   422   420    1
   436   423   420    1
   437   424   418    1
   438   425   424    1
   439   426   424    1
   440   427   424    1
   441   428   316    1
   442   429   428    1
   443   430   428    1
   444   431   430    1
   445   432   430    1
   446   433   430    1
   447   434   428    1
   448   435   434    1
   449   436   434    1
   450   437   434    1
   451   438   317    1
   452   439   438    1
   453   440   438    1
   454   441   440    1
   455   442   440    1
   456   443   440    1
   457   444   438    1
   458   445   444    1
   459   446   444    1
   460   447   444    1
   461   300   312    1
   462   301   313    1
   463   301   317    1
   464   302   310    1
   465   302   314    1
   466   303   311    1
   467   303   315    1
   468   303   316    1
@<TRIPOS>SUBSTRUCTURE
     1 RES1        1 GROUP             0 ****  ****    0  
     2 RES2      150 GROUP             0 ****  ****    0  
     3 RES3      299 GROUP             0 ****  ****    0  
@<TRIPOS>CRYSIN
   20.6400   21.3830   21.5370   82.3670   73.1470   61.7460     2     1
