@<TRIPOS>MOLECULE
IDAVIV
   116   125     2     0     0
SMALL
NO_CHARGES
****
Generated from the CSD

@<TRIPOS>ATOM
     1 Fe1      7.9447  10.5136   3.7002   Fe        1 RES1   0.0000
     2 P1       6.1839  10.5115   2.4585   P.3       1 RES1   0.0000
     3 P2       5.7400   8.1981   4.0604   P.3       1 RES1   0.0000
     4 P3       8.9901  10.3186   5.6523   P.3       1 RES1   0.0000
     5 P4       8.8264   7.6620   5.1135   P.3       1 RES1   0.0000
     6 O1       8.7081  13.3343   3.5267   O.2       1 RES1   0.0000
     7 N1       5.1787   9.1806   2.8339   N.pl3     1 RES1   0.0000
     8 H1       4.3884   9.1018   2.5837   H         1 RES1   0.0000
     9 N2       9.2467   8.7826   6.1931   N.2       1 RES1   0.0000
    10 C1       6.4181  10.3447   0.6528   C.ar      1 RES1   0.0000
    11 C2       6.9593  11.4199  -0.0596   C.ar      1 RES1   0.0000
    12 H2       7.1354  12.2392   0.3867   H         1 RES1   0.0000
    13 C3       7.2406  11.2981  -1.4130   C.ar      1 RES1   0.0000
    14 H3       7.5879  12.0400  -1.8942   H         1 RES1   0.0000
    15 C4       7.0157  10.0919  -2.0675   C.ar      1 RES1   0.0000
    16 H4       7.2226  10.0069  -2.9902   H         1 RES1   0.0000
    17 C5       6.4902   9.0145  -1.3699   C.ar      1 RES1   0.0000
    18 H5       6.3301   8.1915  -1.8169   H         1 RES1   0.0000
    19 C6       6.1985   9.1376  -0.0153   C.ar      1 RES1   0.0000
    20 H6       5.8455   8.3935   0.4592   H         1 RES1   0.0000
    21 C7       4.9906  11.9026   2.5577   C.ar      1 RES1   0.0000
    22 C8       3.8409  11.9072   1.7446   C.ar      1 RES1   0.0000
    23 H7       3.7071  11.2107   1.1141   H         1 RES1   0.0000
    24 C9       2.9052  12.9207   1.8577   C.ar      1 RES1   0.0000
    25 H8       2.1237  12.9047   1.3166   H         1 RES1   0.0000
    26 C10      3.0979  13.9520   2.7493   C.ar      1 RES1   0.0000
    27 H9       2.4555  14.6493   2.8141   H         1 RES1   0.0000
    28 C11      4.2292  13.9725   3.5539   C.ar      1 RES1   0.0000
    29 H10      4.3695  14.6917   4.1587   H         1 RES1   0.0000
    30 C12      8.3638  12.2267   3.6003   C.1       1 RES1   0.0000
    31 C13      5.1606  12.9397   3.4724   C.ar      1 RES1   0.0000
    32 H11      5.9174  12.9424   4.0451   H         1 RES1   0.0000
    33 C14      9.1383   9.9308   2.5403   C.1       1 RES1   0.0000
    34 C15      4.9751   8.7124   5.6156   C.ar      1 RES1   0.0000
    35 C16      3.6708   9.1859   5.5904   C.ar      1 RES1   0.0000
    36 H12      3.2156   9.2698   4.7610   H         1 RES1   0.0000
    37 C17      3.0223   9.5394   6.7734   C.ar      1 RES1   0.0000
    38 H13      2.1261   9.8534   6.7507   H         1 RES1   0.0000
    39 C18      3.6919   9.4301   7.9877   C.ar      1 RES1   0.0000
    40 H14      3.2649   9.6937   8.7946   H         1 RES1   0.0000
    41 C19      4.9597   8.9443   8.0116   C.ar      1 RES1   0.0000
    42 H15      5.4065   8.8365   8.8423   H         1 RES1   0.0000
    43 C20      5.6061   8.6033   6.8318   C.ar      1 RES1   0.0000
    44 H16      6.5021   8.2886   6.8659   H         1 RES1   0.0000
    45 C21      5.0048   6.5758   3.6915   C.ar      1 RES1   0.0000
    46 C22      4.2070   5.8784   4.6068   C.ar      1 RES1   0.0000
    47 H17      3.9787   6.2778   5.4374   H         1 RES1   0.0000
    48 C23      3.7467   4.5970   4.3019   C.ar      1 RES1   0.0000
    49 H18      3.2111   4.1259   4.9305   H         1 RES1   0.0000
    50 C24      4.0638   4.0113   3.1021   C.ar      1 RES1   0.0000
    51 H19      3.7307   3.1458   2.8931   H         1 RES1   0.0000
    52 C25      4.8735   4.6857   2.1855   C.ar      1 RES1   0.0000
    53 H20      5.1062   4.2730   1.3626   H         1 RES1   0.0000
    54 C26      5.3378   5.9621   2.4811   C.ar      1 RES1   0.0000
    55 H21      5.8852   6.4202   1.8547   H         1 RES1   0.0000
    56 C27      8.2114  11.1567   7.0813   C.ar      1 RES1   0.0000
    57 C28      7.5830  12.4035   6.9378   C.ar      1 RES1   0.0000
    58 H22      7.5449  12.8154   6.0825   H         1 RES1   0.0000
    59 C29      7.0193  13.0407   8.0320   C.ar      1 RES1   0.0000
    60 H23      6.6039  13.8880   7.9257   H         1 RES1   0.0000
    61 C30      7.0580  12.4439   9.2747   C.ar      1 RES1   0.0000
    62 H24      6.6598  12.8764  10.0207   H         1 RES1   0.0000
    63 C31      7.6800  11.2120   9.4376   C.ar      1 RES1   0.0000
    64 H25      7.7064  10.8014  10.2939   H         1 RES1   0.0000
    65 C32      8.2652  10.5810   8.3448   C.ar      1 RES1   0.0000
    66 H26      8.7054   9.7477   8.4638   H         1 RES1   0.0000
    67 C33     10.6364  11.1634   5.6227   C.ar      1 RES1   0.0000
    68 C34     11.6217  10.6398   4.7817   C.ar      1 RES1   0.0000
    69 H27     11.4431   9.8560   4.2755   H         1 RES1   0.0000
    70 C35     12.8661  11.2607   4.6810   C.ar      1 RES1   0.0000
    71 H28     13.5307  10.8874   4.1142   H         1 RES1   0.0000
    72 C36     13.1482  12.4148   5.3972   C.ar      1 RES1   0.0000
    73 H29     13.9968  12.8354   5.3156   H         1 RES1   0.0000
    74 C37     12.1864  12.9450   6.2255   C.ar      1 RES1   0.0000
    75 H30     12.3703  13.7334   6.7227   H         1 RES1   0.0000
    76 C38     10.9357  12.3234   6.3376   C.ar      1 RES1   0.0000
    77 H31     10.2795  12.6990   6.9119   H         1 RES1   0.0000
    78 C39      8.2010   6.1889   5.9841   C.ar      1 RES1   0.0000
    79 C40      8.2205   6.1029   7.3713   C.ar      1 RES1   0.0000
    80 H32      8.5888   6.8110   7.8862   H         1 RES1   0.0000
    81 C41      7.7013   4.9822   8.0042   C.ar      1 RES1   0.0000
    82 H33      7.7238   4.9244   8.9526   H         1 RES1   0.0000
    83 C42      7.1464   3.9398   7.2638   C.ar      1 RES1   0.0000
    84 H34      6.7784   3.1838   7.7068   H         1 RES1   0.0000
    85 C43      7.1339   4.0095   5.8725   C.ar      1 RES1   0.0000
    86 H35      6.7645   3.2984   5.3617   H         1 RES1   0.0000
    87 C44      7.6625   5.1252   5.2379   C.ar      1 RES1   0.0000
    88 H36      7.6610   5.1708   4.2887   H         1 RES1   0.0000
    89 C45     10.3402   6.9899   4.3381   C.ar      1 RES1   0.0000
    90 C46     10.3616   6.3781   3.0924   C.ar      1 RES1   0.0000
    91 H37      9.5643   6.3253   2.5788   H         1 RES1   0.0000
    92 C47     11.5436   5.8442   2.5930   C.ar      1 RES1   0.0000
    93 H38     11.5482   5.4190   1.7428   H         1 RES1   0.0000
    94 C48     12.7185   5.9280   3.3307   C.ar      1 RES1   0.0000
    95 H39     13.5265   5.5684   2.9837   H         1 RES1   0.0000
    96 C49     12.7062   6.5377   4.5704   C.ar      1 RES1   0.0000
    97 H40     13.5057   6.5875   5.0803   H         1 RES1   0.0000
    98 C50     11.5309   7.0774   5.0767   C.ar      1 RES1   0.0000
    99 H41     11.5331   7.5071   5.9245   H         1 RES1   0.0000
   100 B1       7.6222   8.3294   3.7775   B         1 RES1   0.0000
   101 H42      7.7414   7.7594   2.7714   H         1 RES1   0.0000
   102 O2       9.8814   9.5332   1.7379   O.2       1 RES1   0.0000
   103 H43      6.8242  10.7536   4.6261   H         1 RES1   0.0000
   104 C51      2.6699   7.9300   0.6152   C.3       2 RES2   0.0000
   105 H44      2.9611   7.0403   0.9364   H         2 RES2   0.0000
   106 H45      3.3630   8.2883   0.0049   H         2 RES2   0.0000
   107 C52      1.3304   7.8246  -0.1060   C.3       2 RES2   0.0000
   108 H46      1.4534   7.6910  -1.0796   H         2 RES2   0.0000
   109 H47      0.7801   7.0868   0.2584   H         2 RES2   0.0000
   110 C53      0.7091   9.1835   0.1949   C.3       2 RES2   0.0000
   111 H48      1.0608   9.8839  -0.4114   H         2 RES2   0.0000
   112 H49     -0.2772   9.1548   0.1234   H         2 RES2   0.0000
   113 C54      1.1529   9.4162   1.6228   C.3       2 RES2   0.0000
   114 H50      1.1897  10.3848   1.8218   H         2 RES2   0.0000
   115 H51      0.5264   8.9856   2.2563   H         2 RES2   0.0000
   116 O3       2.4708   8.8232   1.7268   O.3       2 RES2   0.0000
@<TRIPOS>BOND
     1     1     2    1
     2     2     7    1
     3     3     7    2
     4     4     1    1
     5     5     9    2
     6     6    30    3
     7     7     8    1
     8     9     4    1
     9    10     2    1
    10    11    10   ar
    11    12    11    1
    12    13    11   ar
    13    14    13    1
    14    15    13   ar
    15    16    15    1
    16    17    15   ar
    17    18    17    1
    18    19    10   ar
    19    20    19    1
    20    21     2    1
    21    22    21   ar
    22    23    22    1
    23    24    22   ar
    24    25    24    1
    25    26    24   ar
    26    27    26    1
    27    28    26   ar
    28    29    28    1
    29    30     1    1
    30    31    21   ar
    31    32    31    1
    32    33     1    1
    33    34     3    1
    34    35    34   ar
    35    36    35    1
    36    37    35   ar
    37    38    37    1
    38    39    37   ar
    39    40    39    1
    40    41    39   ar
    41    42    41    1
    42    43    34   ar
    43    44    43    1
    44    45     3    1
    45    46    45   ar
    46    47    46    1
    47    48    46   ar
    48    49    48    1
    49    50    48   ar
    50    51    50    1
    51    52    50   ar
    52    53    52    1
    53    54    45   ar
    54    55    54    1
    55    56     4    1
    56    57    56   ar
    57    58    57    1
    58    59    57   ar
    59    60    59    1
    60    61    59   ar
    61    62    61    1
    62    63    61   ar
    63    64    63    1
    64    65    56   ar
    65    66    65    1
    66    67     4    1
    67    68    67   ar
    68    69    68    1
    69    70    68   ar
    70    71    70    1
    71    72    70   ar
    72    73    72    1
    73    74    72   ar
    74    75    74    1
    75    76    67   ar
    76    77    76    1
    77    78     5    1
    78    79    78   ar
    79    80    79    1
    80    81    79   ar
    81    82    81    1
    82    83    81   ar
    83    84    83    1
    84    85    83   ar
    85    86    85    1
    86    87    78   ar
    87    88    87    1
    88    89     5    1
    89    90    89   ar
    90    91    90    1
    91    92    90   ar
    92    93    92    1
    93    94    92   ar
    94    95    94    1
    95    96    94   ar
    96    97    96    1
    97    98    89   ar
    98    99    98    1
    99   100     1    1
   100   101   100    1
   101   102    33    3
   102   103     1    1
   103     3   100    1
   104     5   100    1
   105    17    19   ar
   106    28    31   ar
   107    41    43   ar
   108    52    54   ar
   109    63    65   ar
   110    74    76   ar
   111    85    87   ar
   112    96    98   ar
   113   104   105    1
   114   106   104    1
   115   107   104    1
   116   108   107    1
   117   109   107    1
   118   110   107    1
   119   111   110    1
   120   112   110    1
   121   113   110    1
   122   114   113    1
   123   115   113    1
   124   116   104    1
   125   113   116    1
@<TRIPOS>SUBSTRUCTURE
     1 RES1        1 GROUP             0 ****  ****    0  
     2 RES2      104 GROUP             0 ****  ****    0  
@<TRIPOS>CRYSIN
   12.2220   12.4340   17.1750   78.3600   75.6600   75.2000     2     1
