@<TRIPOS>MOLECULE
IFISUM
   406   462     3     0     0
SMALL
NO_CHARGES
****
Generated from the CSD

@<TRIPOS>ATOM
     1 C1       4.6193   9.1088   1.0351   C.3       1 RES1   0.0000
     2 H1       4.9304   8.4165   0.4320   H         1 RES1   0.0000
     3 H2       5.3572   9.3190   1.6295   H         1 RES1   0.0000
     4 C2       3.6427   8.5726   1.7885   C.3       1 RES1   0.0000
     5 H3       3.9071   8.3583   2.6957   H         1 RES1   0.0000
     6 H4       3.1690   7.8377   1.3686   H         1 RES1   0.0000
     7 C3      -5.2044   5.2115   6.4852   C.3       1 RES1   0.0000
     8 H5      -6.0168   5.3655   5.9771   H         1 RES1   0.0000
     9 H6      -5.3533   4.4673   7.0900   H         1 RES1   0.0000
    10 C4      -4.8448   6.3699   7.2075   C.3       1 RES1   0.0000
    11 H7      -4.3371   6.1812   8.0110   H         1 RES1   0.0000
    12 H8      -5.5976   6.9483   7.4062   H         1 RES1   0.0000
    13 C5       5.4438   8.7296  11.7158   C.3       1 RES1   0.0000
    14 H9       6.0530   9.4408  11.9716   H         1 RES1   0.0000
    15 H10      5.9352   8.1205  11.1439   H         1 RES1   0.0000
    16 C6       4.9789   7.8466  13.1898   C.3       1 RES1   0.0000
    17 H11      4.1637   7.3107  13.0896   H         1 RES1   0.0000
    18 C7       4.8357   8.7937  13.8482   C.3       1 RES1   0.0000
    19 H12      3.9592   9.1924  13.6702   H         1 RES1   0.0000
    20 C8       4.7367   7.7281  15.2565   C.3       1 RES1   0.0000
    21 H13      4.2392   6.9094  15.1044   H         1 RES1   0.0000
    22 H14      4.4530   8.1703  16.0721   H         1 RES1   0.0000
    23 C9       6.2228   7.5821  15.1183   C.3       1 RES1   0.0000
    24 H15      6.6580   7.1115  15.8613   H         1 RES1   0.0000
    25 C10      5.8516   9.9425  14.6379   C.3       1 RES1   0.0000
    26 H16      5.4506  10.3646  15.4137   H         1 RES1   0.0000
    27 H17      6.2520  10.5974  14.0452   H         1 RES1   0.0000
    28 C11      7.6278   7.5548  13.0723   C.3       1 RES1   0.0000
    29 H18      7.6533   7.2346  12.1668   H         1 RES1   0.0000
    30 H19      7.5564   8.5133  13.0706   H         1 RES1   0.0000
    31 H20      8.4311   7.2941  13.5268   H         1 RES1   0.0000
    32 C12     -1.9434   7.1919   7.6101   C.3       1 RES1   0.0000
    33 H21     -1.2676   6.5588   7.8970   H         1 RES1   0.0000
    34 H22     -2.6228   7.2333   8.3030   H         1 RES1   0.0000
    35 C13     -2.5945   6.6727   6.3003   C.3       1 RES1   0.0000
    36 H23     -2.1043   7.0412   5.5348   H         1 RES1   0.0000
    37 C14     -4.0092   6.8647   6.0826   C.3       1 RES1   0.0000
    38 H24     -4.1361   7.8307   6.0756   H         1 RES1   0.0000
    39 C15     -4.3574   6.4562   4.8453   C.3       1 RES1   0.0000
    40 H25     -3.7498   6.7226   4.1386   H         1 RES1   0.0000
    41 H26     -5.2853   6.6116   4.6086   H         1 RES1   0.0000
    42 C16     -4.0304   4.9179   5.5486   C.3       1 RES1   0.0000
    43 H27     -4.1359   4.1428   4.9576   H         1 RES1   0.0000
    44 C17     -1.7649   4.9255   5.1909   C.3       1 RES1   0.0000
    45 H28     -1.4161   4.0325   5.2704   H         1 RES1   0.0000
    46 H29     -1.0637   5.5582   5.3585   H         1 RES1   0.0000
    47 H30     -2.1099   5.0561   4.3044   H         1 RES1   0.0000
    48 C18      3.8414  11.1681   3.7843   C.3       1 RES1   0.0000
    49 H31      4.4177  11.9466   3.8569   H         1 RES1   0.0000
    50 H32      4.3629  10.3961   4.0539   H         1 RES1   0.0000
    51 C19      3.4704  10.9998   2.3449   C.3       1 RES1   0.0000
    52 H33      2.8914  11.7582   2.1237   H         1 RES1   0.0000
    53 C20      2.9062  10.4356   0.2039   C.3       1 RES1   0.0000
    54 H34      2.4602   9.8393  -0.4182   H         1 RES1   0.0000
    55 H35      2.5839  11.3474   0.1192   H         1 RES1   0.0000
    56 C21      0.7313   7.3524   3.6011   C.2       1 RES1   0.0000
    57 C22      0.7095   6.2907   2.5332   C.ar      1 RES1   0.0000
    58 C23     -0.3493   6.1656   1.6813   C.ar      1 RES1   0.0000
    59 H36     -1.0588   6.7641   1.7505   H         1 RES1   0.0000
    60 C24     -0.3949   5.1781   0.7275   C.ar      1 RES1   0.0000
    61 H37     -1.1455   5.0762   0.1866   H         1 RES1   0.0000
    62 C25      0.7028   4.3324   0.5806   C.ar      1 RES1   0.0000
    63 H38      0.7017   3.6833  -0.0847   H         1 RES1   0.0000
    64 C26      1.7980   4.4534   1.4273   C.ar      1 RES1   0.0000
    65 H39      2.5291   3.8888   1.3219   H         1 RES1   0.0000
    66 C27      1.8045   5.4208   2.4330   C.ar      1 RES1   0.0000
    67 H40      2.5196   5.4870   3.0240   H         1 RES1   0.0000
    68 C28      4.8541   8.5665   5.9046   C.2       1 RES1   0.0000
    69 C29      6.0375   8.0049   5.1736   C.ar      1 RES1   0.0000
    70 C30      5.8856   6.8972   4.3632   C.ar      1 RES1   0.0000
    71 H41      5.0531   6.4895   4.2889   H         1 RES1   0.0000
    72 C31      6.9636   6.3909   3.6634   C.ar      1 RES1   0.0000
    73 H42      6.8626   5.6357   3.1294   H         1 RES1   0.0000
    74 C32      8.1821   7.0112   3.7584   C.ar      1 RES1   0.0000
    75 H43      8.8965   6.7109   3.2452   H         1 RES1   0.0000
    76 C33      8.3451   8.0621   4.5982   C.ar      1 RES1   0.0000
    77 H44      9.1894   8.4392   4.7019   H         1 RES1   0.0000
    78 C34      7.2708   8.5847   5.3084   C.ar      1 RES1   0.0000
    79 H45      7.3872   9.3166   5.8700   H         1 RES1   0.0000
    80 C35      1.4406   6.1412   8.1579   C.2       1 RES1   0.0000
    81 C36      1.3592   4.6553   8.2788   C.ar      1 RES1   0.0000
    82 C37      1.8716   3.8507   7.2783   C.ar      1 RES1   0.0000
    83 H46      2.2100   4.2414   6.5042   H         1 RES1   0.0000
    84 C38      1.8880   2.4825   7.4097   C.ar      1 RES1   0.0000
    85 H47      2.2878   1.9503   6.7599   H         1 RES1   0.0000
    86 C39      1.3037   1.9109   8.5173   C.ar      1 RES1   0.0000
    87 H48      1.3279   0.9875   8.6227   H         1 RES1   0.0000
    88 C40      0.6716   2.7051   9.4919   C.ar      1 RES1   0.0000
    89 H49      0.2112   2.3233  10.2038   H         1 RES1   0.0000
    90 C41      0.7597   4.0595   9.3485   C.ar      1 RES1   0.0000
    91 H50      0.3936   4.6014  10.0120   H         1 RES1   0.0000
    92 C42      6.0492  12.5127   8.6348   C.2       1 RES1   0.0000
    93 C43      7.3224  13.2437   8.2978   C.ar      1 RES1   0.0000
    94 C44      8.0970  12.8879   7.1850   C.ar      1 RES1   0.0000
    95 H51      7.8002  12.2233   6.6061   H         1 RES1   0.0000
    96 C45      9.2753  13.5139   6.9569   C.ar      1 RES1   0.0000
    97 H52      9.8054  13.2582   6.2363   H         1 RES1   0.0000
    98 C46      9.6878  14.5239   7.7898   C.ar      1 RES1   0.0000
    99 H53     10.5100  14.9314   7.6378   H         1 RES1   0.0000
   100 C47      8.9242  14.9418   8.8283   C.ar      1 RES1   0.0000
   101 H54      9.1752  15.6833   9.3295   H         1 RES1   0.0000
   102 C48      7.7748  14.2545   9.1290   C.ar      1 RES1   0.0000
   103 H55      7.2957  14.4672   9.8980   H         1 RES1   0.0000
   104 C49      4.9317  14.0804  13.1017   C.2       1 RES1   0.0000
   105 C50      6.0477  14.3912  14.0469   C.ar      1 RES1   0.0000
   106 C51      7.2166  13.6666  13.9812   C.ar      1 RES1   0.0000
   107 H56      7.3064  12.9968  13.3419   H         1 RES1   0.0000
   108 C52      8.2534  13.9274  14.8504   C.ar      1 RES1   0.0000
   109 H57      9.0371  13.4294  14.7969   H         1 RES1   0.0000
   110 C53      8.1408  14.8858  15.7663   C.ar      1 RES1   0.0000
   111 H58      8.8365  15.0461  16.3624   H         1 RES1   0.0000
   112 C54      6.9774  15.6456  15.8302   C.ar      1 RES1   0.0000
   113 H59      6.9002  16.3170  16.4696   H         1 RES1   0.0000
   114 C55      5.9374  15.4102  14.9593   C.ar      1 RES1   0.0000
   115 H60      5.1698  15.9363  14.9887   H         1 RES1   0.0000
   116 C56     -0.6127  12.0378   2.4157   C.2       1 RES1   0.0000
   117 C57     -0.7577  12.2786   0.9763   C.ar      1 RES1   0.0000
   118 C58     -1.0981  13.5453   0.5132   C.ar      1 RES1   0.0000
   119 H61     -1.2370  14.2326   1.1232   H         1 RES1   0.0000
   120 C59     -1.2319  13.7935  -0.8329   C.ar      1 RES1   0.0000
   121 H62     -1.4738  14.6411  -1.1336   H         1 RES1   0.0000
   122 C60     -1.0006  12.7710  -1.7349   C.ar      1 RES1   0.0000
   123 H63     -1.0570  12.9257  -2.6507   H         1 RES1   0.0000
   124 C61     -0.5677  11.2677   0.0639   C.ar      1 RES1   0.0000
   125 H64     -0.3587  10.4112   0.3560   H         1 RES1   0.0000
   126 C62      0.8519   8.3537  12.3949   C.2       1 RES1   0.0000
   127 C63      1.0547   7.0821  13.2002   C.ar      1 RES1   0.0000
   128 C64      1.2020   7.0923  14.5705   C.ar      1 RES1   0.0000
   129 H65      1.2535   7.9006  15.0284   H         1 RES1   0.0000
   130 C65      1.3243   4.6843  14.5670   C.ar      1 RES1   0.0000
   131 H66      1.3176   3.8640  15.0042   H         1 RES1   0.0000
   132 C66      1.3872   4.7571  13.2417   C.ar      1 RES1   0.0000
   133 H67      1.5326   3.9578  12.7889   H         1 RES1   0.0000
   134 C67      1.2692   5.8070  12.5193   C.ar      1 RES1   0.0000
   135 H68      1.3187   5.7596  11.5914   H         1 RES1   0.0000
   136 C68      6.6613   8.8731  14.9299   C.3       1 RES1   0.0000
   137 H69      7.3116   8.8400  14.2162   H         1 RES1   0.0000
   138 H70      7.1363   9.1198  15.7334   H         1 RES1   0.0000
   139 C69      6.3647   6.9302  13.8223   C.3       1 RES1   0.0000
   140 C70      5.8653   5.8176  13.5233   C.3       1 RES1   0.0000
   141 H71      5.0493   5.6908  14.0123   H         1 RES1   0.0000
   142 H72      5.6804   5.7916  12.5816   H         1 RES1   0.0000
   143 H73      6.4844   5.1172  13.7462   H         1 RES1   0.0000
   144 C71     -2.7636   5.1032   6.0964   C.3       1 RES1   0.0000
   145 C72     -2.5435   4.3058   7.3595   C.3       1 RES1   0.0000
   146 H74     -3.1095   4.6452   8.0559   H         1 RES1   0.0000
   147 H75     -1.6256   4.3801   7.6291   H         1 RES1   0.0000
   148 H76     -2.7548   3.3833   7.1954   H         1 RES1   0.0000
   149 C73      2.9688   9.9198   1.6330   C.3       1 RES1   0.0000
   150 C74      4.3538  10.3093   0.2246   C.3       1 RES1   0.0000
   151 H77      4.8220  10.3808  -0.6342   H         1 RES1   0.0000
   152 C75      4.9147  11.2368   1.4653   C.3       1 RES1   0.0000
   153 C76      6.1612  10.7727   2.1306   C.3       1 RES1   0.0000
   154 H78      6.9179  11.2176   1.7487   H         1 RES1   0.0000
   155 H79      6.2561   9.8204   2.0045   H         1 RES1   0.0000
   156 H80      6.1149  10.9615   3.0707   H         1 RES1   0.0000
   157 C77      4.9663  12.2723   0.4510   C.3       1 RES1   0.0000
   158 H81      5.5798  12.9548   0.7188   H         1 RES1   0.0000
   159 H82      4.0865  12.6564   0.3473   H         1 RES1   0.0000
   160 H83      5.2438  11.8909  -0.3819   H         1 RES1   0.0000
   161 C78     -0.6838  11.5164  -1.2528   C.ar      1 RES1   0.0000
   162 H84     -0.5472  10.8234  -1.8576   H         1 RES1   0.0000
   163 C79      1.2692   5.8805  15.2755   C.ar      1 RES1   0.0000
   164 H85      1.2790   5.8779  16.2052   H         1 RES1   0.0000
   165 Fe1      1.3407   8.8326   9.5194   Fe        1 RES1   0.0000
   166 Fe2      3.9407  12.7085  10.7029   Fe        1 RES1   0.0000
   167 Fe3      3.8323  10.6062   7.8678   Fe        1 RES1   0.0000
   168 Fe4     -0.1415  13.2168   5.0914   Fe        1 RES1   0.0000
   169 Fe5      1.8697   8.4150   6.2460   Fe        1 RES1   0.0000
   170 Fe6     -0.3967   9.9450   4.5339   Fe        1 RES1   0.0000
   171 O1       1.7269   6.6026   7.0243   O.co2     1 RES1   0.0000
   172 O2       3.7389   8.0762   5.6557   O.co2     1 RES1   0.0000
   173 O3      -0.1104   8.2937   3.4387   O.co2     1 RES1   0.0000
   174 O4       1.5564   7.2558   4.5256   O.co2     1 RES1   0.0000
   175 O5       1.6609  10.0542   4.9473   O.co2     1 RES1   0.0000
   176 O6       1.6396  12.5612   4.5360   O.co2     1 RES1   0.0000
   177 O7      -0.4576   9.1084   8.7316   O.co2     1 RES1   0.0000
   178 O8       1.1960   6.8400   9.1774   O.co2     1 RES1   0.0000
   179 O9       2.2971   9.3206   7.8762   O.3       1 RES1   0.0000
   180 O10      2.9694   8.4965  10.6168   O.co2     1 RES1   0.0000
   181 O11      0.3028   8.2292  11.2406   O.co2     1 RES1   0.0000
   182 O12      0.2567  15.0485   4.3822   O.co2     1 RES1   0.0000
   183 O13      3.1051  11.5885   6.3176   O.co2     1 RES1   0.0000
   184 O14      5.0800   9.5172   6.6977   O.co2     1 RES1   0.0000
   185 O15      4.7293   9.7926   9.4090   O.co2     1 RES1   0.0000
   186 O16      5.4377  11.9302   7.6965   O.co2     1 RES1   0.0000
   187 O17      5.7104  12.4952   9.8358   O.co2     1 RES1   0.0000
   188 O18      3.0116  12.0439   9.0357   O.3       1 RES1   0.0000
   189 O19      3.8824  14.5903  10.1140   O.co2     1 RES1   0.0000
   190 O20     -0.2078   8.7260   6.2484   O.co2     1 RES1   0.0000
   191 O21     -0.7259  11.4510   5.5693   O.3       1 RES1   0.0000
   192 O22      5.0871  13.1166  12.3189   O.co2     1 RES1   0.0000
   193 O23     -2.3339   9.5515   4.1247   O.co2     1 RES1   0.0000
   194 O24     -2.0887  13.6341   5.7974   O.co2     1 RES1   0.0000
   195 O25      0.4625  13.7113   6.9448   O.3       1 RES1   0.0000
   196 O26     -0.8561  12.9910   3.2003   O.co2     1 RES1   0.0000
   197 O27     -0.2161  10.8794   2.7665   O.co2     1 RES1   0.0000
   198 P1      -1.1987   8.7929   7.4428   P.3       1 RES1   0.0000
   199 P2       2.4935  11.3638   4.9500   P.3       1 RES1   0.0000
   200 P3       4.1312   9.4512  10.7542   P.3       1 RES1   0.0000
   201 C1A     -3.0340  15.2765  16.2449   C.3       1 RES1   0.0000
   202 H1A     -3.3451  15.9687  16.8480   H         1 RES1   0.0000
   203 H2A     -3.7720  15.0662  15.6505   H         1 RES1   0.0000
   204 C2A     -2.0574  15.8126  15.4915   C.3       1 RES1   0.0000
   205 H3A     -2.3218  16.0270  14.5843   H         1 RES1   0.0000
   206 H4A     -1.5838  16.5476  15.9114   H         1 RES1   0.0000
   207 C3A      6.7896  19.1738  10.7948   C.3       1 RES1   0.0000
   208 H5A      7.6021  19.0198  11.3028   H         1 RES1   0.0000
   209 H6A      6.9386  19.9180  10.1900   H         1 RES1   0.0000
   210 C4A      6.4301  18.0153  10.0725   C.3       1 RES1   0.0000
   211 H7A      5.9224  18.2041   9.2690   H         1 RES1   0.0000
   212 H8A      7.1829  17.4369   9.8738   H         1 RES1   0.0000
   213 C5A     -3.8585  15.6557   5.5642   C.3       1 RES1   0.0000
   214 H9A     -4.4677  14.9445   5.3084   H         1 RES1   0.0000
   215 H10A    -4.3500  16.2648   6.1361   H         1 RES1   0.0000
   216 C6A     -3.3937  16.5386   4.0902   C.3       1 RES1   0.0000
   217 H11A    -2.5784  17.0746   4.1904   H         1 RES1   0.0000
   218 C7A     -3.2504  15.5915   3.4318   C.3       1 RES1   0.0000
   219 H12A    -2.3739  15.1928   3.6098   H         1 RES1   0.0000
   220 C8A     -3.1515  16.6572   2.0235   C.3       1 RES1   0.0000
   221 H13A    -2.6539  17.4758   2.1756   H         1 RES1   0.0000
   222 H14A    -2.8678  16.2150   1.2079   H         1 RES1   0.0000
   223 C9A     -4.6376  16.8031   2.1617   C.3       1 RES1   0.0000
   224 H15A    -5.0728  17.2737   1.4187   H         1 RES1   0.0000
   225 C10A    -4.2663  14.4428   2.6421   C.3       1 RES1   0.0000
   226 H16A    -3.8653  14.0207   1.8662   H         1 RES1   0.0000
   227 H17A    -4.6667  13.7878   3.2348   H         1 RES1   0.0000
   228 C11A    -6.0426  16.8305   4.2077   C.3       1 RES1   0.0000
   229 H18A    -6.0680  17.1506   5.1131   H         1 RES1   0.0000
   230 H19A    -5.9711  15.8720   4.2094   H         1 RES1   0.0000
   231 H20A    -6.8459  17.0912   3.7532   H         1 RES1   0.0000
   232 C12A     3.5286  17.1934   9.6699   C.3       1 RES1   0.0000
   233 H21A     2.8528  17.8265   9.3830   H         1 RES1   0.0000
   234 H22A     4.2081  17.1519   8.9770   H         1 RES1   0.0000
   235 C13A     4.1798  17.7125  10.9797   C.3       1 RES1   0.0000
   236 H23A     3.6896  17.3441  11.7452   H         1 RES1   0.0000
   237 C14A     5.5944  17.5205  11.1974   C.3       1 RES1   0.0000
   238 H24A     5.7214  16.5546  11.2043   H         1 RES1   0.0000
   239 C15A     5.9426  17.9291  12.4347   C.3       1 RES1   0.0000
   240 H25A     5.3351  17.6626  13.1414   H         1 RES1   0.0000
   241 H26A     6.8705  17.7737  12.6714   H         1 RES1   0.0000
   242 C16A     5.6156  19.4674  11.7314   C.3       1 RES1   0.0000
   243 H27A     5.7211  20.2424  12.3224   H         1 RES1   0.0000
   244 C17A     3.3501  19.4598  12.0891   C.3       1 RES1   0.0000
   245 H28A     3.0013  20.3527  12.0096   H         1 RES1   0.0000
   246 H29A     2.6489  18.8271  11.9215   H         1 RES1   0.0000
   247 H30A     3.6952  19.3291  12.9755   H         1 RES1   0.0000
   248 C18A    -2.2561  13.2171  13.4957   C.3       1 RES1   0.0000
   249 H31A    -2.8324  12.4386  13.4231   H         1 RES1   0.0000
   250 H32A    -2.7777  13.9892  13.2261   H         1 RES1   0.0000
   251 C19A    -1.8851  13.3855  14.9351   C.3       1 RES1   0.0000
   252 H33A    -1.3061  12.6270  15.1563   H         1 RES1   0.0000
   253 C20A    -1.3210  13.9497  17.0761   C.3       1 RES1   0.0000
   254 H34A    -0.8749  14.5460  17.6982   H         1 RES1   0.0000
   255 H35A    -0.9987  13.0378  17.1608   H         1 RES1   0.0000
   256 C21A     0.8539  17.0328  13.6788   C.2       1 RES1   0.0000
   257 C22A     0.8757  18.0946  14.7467   C.ar      1 RES1   0.0000
   258 C23A     1.9346  18.2196  15.5986   C.ar      1 RES1   0.0000
   259 H36A     2.6441  17.6211  15.5295   H         1 RES1   0.0000
   260 C24A     1.9802  19.2072  16.5525   C.ar      1 RES1   0.0000
   261 H37A     2.7308  19.3091  17.0934   H         1 RES1   0.0000
   262 C25A     0.8824  20.0529  16.6994   C.ar      1 RES1   0.0000
   263 H38A     0.8836  20.7020  17.3647   H         1 RES1   0.0000
   264 C26A    -0.2127  19.9319  15.8527   C.ar      1 RES1   0.0000
   265 H39A    -0.9438  20.4964  15.9581   H         1 RES1   0.0000
   266 C27A    -0.2192  18.9645  14.8470   C.ar      1 RES1   0.0000
   267 H40A    -0.9343  18.8983  14.2560   H         1 RES1   0.0000
   268 C28A    -3.2688  15.8187  11.3754   C.2       1 RES1   0.0000
   269 C29A    -4.4522  16.3804  12.1064   C.ar      1 RES1   0.0000
   270 C30A    -4.3003  17.4881  12.9168   C.ar      1 RES1   0.0000
   271 H41A    -3.4678  17.8958  12.9911   H         1 RES1   0.0000
   272 C31A    -5.3784  17.9944  13.6166   C.ar      1 RES1   0.0000
   273 H42A    -5.2773  18.7495  14.1506   H         1 RES1   0.0000
   274 C32A    -6.5968  17.3741  13.5216   C.ar      1 RES1   0.0000
   275 H43A    -7.3113  17.6743  14.0348   H         1 RES1   0.0000
   276 C33A    -6.7598  16.3232  12.6818   C.ar      1 RES1   0.0000
   277 H44A    -7.6041  15.9460  12.5781   H         1 RES1   0.0000
   278 C34A    -5.6856  15.8006  11.9716   C.ar      1 RES1   0.0000
   279 H45A    -5.8020  15.0686  11.4100   H         1 RES1   0.0000
   280 C35A     0.1447  18.2440   9.1221   C.2       1 RES1   0.0000
   281 C36A     0.2260  19.7300   9.0011   C.ar      1 RES1   0.0000
   282 C37A    -0.2863  20.5345  10.0017   C.ar      1 RES1   0.0000
   283 H46A    -0.6248  20.1439  10.7758   H         1 RES1   0.0000
   284 C38A    -0.3028  21.9027   9.8703   C.ar      1 RES1   0.0000
   285 H47A    -0.7025  22.4349  10.5201   H         1 RES1   0.0000
   286 C39A     0.2816  22.4743   8.7627   C.ar      1 RES1   0.0000
   287 H48A     0.2574  23.3978   8.6573   H         1 RES1   0.0000
   288 C40A     0.9137  21.6801   7.7881   C.ar      1 RES1   0.0000
   289 H49A     1.3741  22.0620   7.0762   H         1 RES1   0.0000
   290 C41A     0.8255  20.3257   7.9315   C.ar      1 RES1   0.0000
   291 H50A     1.1917  19.7839   7.2680   H         1 RES1   0.0000
   292 C42A    -4.4639  11.8725   8.6452   C.2       1 RES1   0.0000
   293 C43A    -5.7371  11.1416   8.9821   C.ar      1 RES1   0.0000
   294 C44A    -6.5118  11.4973  10.0950   C.ar      1 RES1   0.0000
   295 H51A    -6.2150  12.1620  10.6738   H         1 RES1   0.0000
   296 C45A    -7.6900  10.8714  10.3231   C.ar      1 RES1   0.0000
   297 H52A    -8.2201  11.1270  11.0436   H         1 RES1   0.0000
   298 C46A    -8.1025   9.8613   9.4902   C.ar      1 RES1   0.0000
   299 H53A    -8.9247   9.4539   9.6422   H         1 RES1   0.0000
   300 C47A    -7.3389   9.4435   8.4516   C.ar      1 RES1   0.0000
   301 H54A    -7.5900   8.7019   7.9505   H         1 RES1   0.0000
   302 C48A    -6.1895  10.1307   8.1510   C.ar      1 RES1   0.0000
   303 H55A    -5.7104   9.9181   7.3820   H         1 RES1   0.0000
   304 C49A    -3.3464  10.3048   4.1783   C.2       1 RES1   0.0000
   305 C50A    -4.4624   9.9941   3.2331   C.ar      1 RES1   0.0000
   306 C51A    -5.6313  10.7186   3.2987   C.ar      1 RES1   0.0000
   307 H56A    -5.7212  11.3884   3.9381   H         1 RES1   0.0000
   308 C52A    -6.6681  10.4579   2.4296   C.ar      1 RES1   0.0000
   309 H57A    -7.4518  10.9558   2.4831   H         1 RES1   0.0000
   310 C53A    -6.5556   9.4994   1.5137   C.ar      1 RES1   0.0000
   311 H58A    -7.2513   9.3391   0.9176   H         1 RES1   0.0000
   312 C54A    -5.3921   8.7397   1.4498   C.ar      1 RES1   0.0000
   313 H59A    -5.3149   8.0682   0.8104   H         1 RES1   0.0000
   314 C55A    -4.3521   8.9750   2.3207   C.ar      1 RES1   0.0000
   315 H60A    -3.5846   8.4490   2.2913   H         1 RES1   0.0000
   316 C56A     2.1980  12.3475  14.8642   C.2       1 RES1   0.0000
   317 C57A     2.3430  12.1066  16.3037   C.ar      1 RES1   0.0000
   318 C58A     2.6834  10.8399  16.7668   C.ar      1 RES1   0.0000
   319 H61A     2.8223  10.1527  16.1568   H         1 RES1   0.0000
   320 C59A     2.8171  10.5918  18.1129   C.ar      1 RES1   0.0000
   321 H62A     3.0590   9.7441  18.4136   H         1 RES1   0.0000
   322 C60A     2.5859  11.6142  19.0149   C.ar      1 RES1   0.0000
   323 H63A     2.6423  11.4595  19.9307   H         1 RES1   0.0000
   324 C61A     2.1530  13.1175  17.2160   C.ar      1 RES1   0.0000
   325 H64A     1.9440  13.9741  16.9240   H         1 RES1   0.0000
   326 C62A     0.7334  16.0315   4.8851   C.2       1 RES1   0.0000
   327 C63A     0.5305  17.3032   4.0798   C.ar      1 RES1   0.0000
   328 C64A     0.3832  17.2929   2.7095   C.ar      1 RES1   0.0000
   329 H65A     0.3318  16.4847   2.2516   H         1 RES1   0.0000
   330 C65A     0.2610  19.7010   2.7130   C.ar      1 RES1   0.0000
   331 H66A     0.2677  20.5213   2.2758   H         1 RES1   0.0000
   332 C66A     0.1981  19.6282   4.0383   C.ar      1 RES1   0.0000
   333 H67A     0.0526  20.4275   4.4911   H         1 RES1   0.0000
   334 C67A     0.3161  18.5783   4.7606   C.ar      1 RES1   0.0000
   335 H68A     0.2665  18.6256   5.6886   H         1 RES1   0.0000
   336 C68A    -5.0760  15.5121   2.3501   C.3       1 RES1   0.0000
   337 H69A    -5.7264  15.5452   3.0637   H         1 RES1   0.0000
   338 H70A    -5.5510  15.2655   1.5466   H         1 RES1   0.0000
   339 C69A    -4.7794  17.4550   3.4577   C.3       1 RES1   0.0000
   340 C70A    -4.2800  18.5677   3.7567   C.3       1 RES1   0.0000
   341 H71A    -3.4640  18.6945   3.2676   H         1 RES1   0.0000
   342 H72A    -4.0951  18.5936   4.6984   H         1 RES1   0.0000
   343 H73A    -4.8991  19.2681   3.5338   H         1 RES1   0.0000
   344 C71A     4.3489  19.2821  11.1836   C.3       1 RES1   0.0000
   345 C72A     4.1288  20.0794   9.9204   C.3       1 RES1   0.0000
   346 H74A     4.6948  19.7401   9.2241   H         1 RES1   0.0000
   347 H75A     3.2109  20.0052   9.6509   H         1 RES1   0.0000
   348 H76A     4.3401  21.0019  10.0846   H         1 RES1   0.0000
   349 C73A    -1.3836  14.4655  15.6470   C.3       1 RES1   0.0000
   350 C74A    -2.7686  14.0759  17.0553   C.3       1 RES1   0.0000
   351 H77A    -3.2368  14.0045  17.9142   H         1 RES1   0.0000
   352 C75A    -3.3295  13.1485  15.8146   C.3       1 RES1   0.0000
   353 C76A    -4.5759  13.6126  15.1494   C.3       1 RES1   0.0000
   354 H78A    -5.3327  13.1676  15.5313   H         1 RES1   0.0000
   355 H79A    -4.6708  14.5649  15.2755   H         1 RES1   0.0000
   356 H80A    -4.5296  13.4237  14.2093   H         1 RES1   0.0000
   357 C77A    -3.3810  12.1129  16.8290   C.3       1 RES1   0.0000
   358 H81A    -3.9946  11.4305  16.5611   H         1 RES1   0.0000
   359 H82A    -2.5012  11.7288  16.9327   H         1 RES1   0.0000
   360 H83A    -3.6585  12.4943  17.6619   H         1 RES1   0.0000
   361 C78A     2.2690  12.8688  18.5328   C.ar      1 RES1   0.0000
   362 H84A     2.1325  13.5619  19.1376   H         1 RES1   0.0000
   363 C79A     0.3161  18.5047   2.0045   C.ar      1 RES1   0.0000
   364 H85A     0.3062  18.5073   1.0748   H         1 RES1   0.0000
   365 Fe1A     0.2445  15.5527   7.7606   Fe        1 RES1   0.0000
   366 Fe2A    -2.3554  11.6768   6.5771   Fe        1 RES1   0.0000
   367 Fe3A    -2.2471  13.7791   9.4122   Fe        1 RES1   0.0000
   368 Fe4A     1.7268  11.1685  12.1886   Fe        1 RES1   0.0000
   369 Fe5A    -0.2844  15.9702  11.0340   Fe        1 RES1   0.0000
   370 Fe6A     1.9820  14.4403  12.7461   Fe        1 RES1   0.0000
   371 O1A     -0.1417  17.7827  10.2557   O.co2     1 RES1   0.0000
   372 O2A     -2.1536  16.3090  11.6242   O.co2     1 RES1   0.0000
   373 O3A      1.6957  16.0916  13.8413   O.co2     1 RES1   0.0000
   374 O4A      0.0288  17.1295  12.7544   O.co2     1 RES1   0.0000
   375 O5A     -0.0756  14.3311  12.3327   O.co2     1 RES1   0.0000
   376 O6A     -0.0543  11.8241  12.7440   O.co2     1 RES1   0.0000
   377 O7A      2.0429  15.2768   8.5484   O.co2     1 RES1   0.0000
   378 O8A      0.3893  17.5452   8.1026   O.co2     1 RES1   0.0000
   379 O9A     -0.7118  15.0646   9.4038   O.3       1 RES1   0.0000
   380 O10A    -1.3841  15.8888   6.6632   O.co2     1 RES1   0.0000
   381 O11A     1.2825  16.1560   6.0394   O.co2     1 RES1   0.0000
   382 O12A     1.3285   9.3367  12.8978   O.co2     1 RES1   0.0000
   383 O13A    -1.5198  12.7968  10.9624   O.co2     1 RES1   0.0000
   384 O14A    -3.4948  14.8681  10.5823   O.co2     1 RES1   0.0000
   385 O15A    -3.1441  14.5927   7.8710   O.co2     1 RES1   0.0000
   386 O16A    -3.8525  12.4551   9.5835   O.co2     1 RES1   0.0000
   387 O17A    -4.1251  11.8901   7.4442   O.co2     1 RES1   0.0000
   388 O18A    -1.4263  12.3414   8.2443   O.3       1 RES1   0.0000
   389 O19A    -2.2971   9.7950   7.1660   O.co2     1 RES1   0.0000
   390 O20A     1.7931  15.6592  11.0315   O.co2     1 RES1   0.0000
   391 O21A     2.3112  12.9343  11.7106   O.3       1 RES1   0.0000
   392 O22A    -3.5018  11.2687   4.9611   O.co2     1 RES1   0.0000
   393 O23A     3.9192  14.8337  13.1553   O.co2     1 RES1   0.0000
   394 O24A     3.6740  10.7511  11.4826   O.co2     1 RES1   0.0000
   395 O25A     1.1228  10.6740  10.3352   O.3       1 RES1   0.0000
   396 O26A     2.4413  11.3943  14.0797   O.co2     1 RES1   0.0000
   397 O27A     1.8014  13.5059  14.5135   O.co2     1 RES1   0.0000
   398 P1A      2.7839  15.5924   9.8372   P.3       1 RES1   0.0000
   399 P2A     -0.9082  13.0215  12.3300   P.3       1 RES1   0.0000
   400 P3A     -2.5460  14.9341   6.5258   P.3       1 RES1   0.0000
   401 O28     -3.0544   9.5752  11.0367   O.3       2 RES2   0.0000
   402 H86     -2.6314   8.8014  11.3979   H         2 RES2   0.0000
   403 H87     -3.5690   9.3071  10.2470   H         2 RES2   0.0000
   404 O29     -1.2937  10.7060  10.0794   O.3       3 RES3   0.0000
   405 H88     -1.6378  11.4169   9.5299   H         3 RES3   0.0000
   406 H89     -0.7649  10.1139   9.5265   H         3 RES3   0.0000
@<TRIPOS>BOND
     1     1     2    1
     2     3     1    1
     3     4     1    1
     4     5     4    1
     5     6     4    1
     6     7     8    1
     7     9     7    1
     8    10     7    1
     9    11    10    1
    10    12    10    1
    11    13    14    1
    12    15    13    1
    13    16    13    1
    14    17    16    1
    15    18    16    1
    16    19    18    1
    17    20    18    1
    18    21    20    1
    19    22    20    1
    20    23    20    1
    21    24    23    1
    22    25    18    1
    23    26    25    1
    24    27    25    1
    25    28    29    1
    26    30    28    1
    27    31    28    1
    28    32    33    1
    29    34    32    1
    30    35    32    1
    31    36    35    1
    32    37    10    1
    33    38    37    1
    34    39    37    1
    35    40    39    1
    36    41    39    1
    37    42     7    1
    38    43    42    1
    39    44    45    1
    40    46    44    1
    41    47    44    1
    42    48    49    1
    43    50    48    1
    44    51    48    1
    45    52    51    1
    46    53    54    1
    47    55    53    1
    48    56    57    1
    49    57    58   ar
    50    58    59    1
    51    60    58   ar
    52    61    60    1
    53    62    60   ar
    54    63    62    1
    55    64    62   ar
    56    65    64    1
    57    66    57   ar
    58    67    66    1
    59    68    69    1
    60    69    70   ar
    61    70    71    1
    62    72    70   ar
    63    73    72    1
    64    74    72   ar
    65    75    74    1
    66    76    74   ar
    67    77    76    1
    68    78    69   ar
    69    79    78    1
    70    80    81    1
    71    81    82   ar
    72    82    83    1
    73    84    82   ar
    74    85    84    1
    75    86    84   ar
    76    87    86    1
    77    88    86   ar
    78    89    88    1
    79    90    81   ar
    80    91    90    1
    81    92    93    1
    82    93    94   ar
    83    94    95    1
    84    96    94   ar
    85    97    96    1
    86    98    96   ar
    87    99    98    1
    88   100    98   ar
    89   101   100    1
    90   102    93   ar
    91   103   102    1
    92   104   105    1
    93   105   106   ar
    94   106   107    1
    95   108   106   ar
    96   109   108    1
    97   110   108   ar
    98   111   110    1
    99   112   110   ar
   100   113   112    1
   101   114   105   ar
   102   115   114    1
   103   116   117    1
   104   117   118   ar
   105   118   119    1
   106   120   118   ar
   107   121   120    1
   108   122   120   ar
   109   123   122    1
   110   124   117   ar
   111   125   124    1
   112   126   127    1
   113   127   128   ar
   114   128   129    1
   115   130   131    1
   116   132   130   ar
   117   133   132    1
   118   134   127   ar
   119   135   134    1
   120   136    23    1
   121   137   136    1
   122   138   136    1
   123   139    16    1
   124   140   139    1
   125   141   140    1
   126   142   140    1
   127   143   140    1
   128   144    35    1
   129   145   144    1
   130   146   145    1
   131   147   145    1
   132   148   145    1
   133   149     4    1
   134   150     1    1
   135   151   150    1
   136   152    51    1
   137   153   152    1
   138   154   153    1
   139   155   153    1
   140   156   153    1
   141   157   152    1
   142   158   157    1
   143   159   157    1
   144   160   157    1
   145   161   122   ar
   146   162   161    1
   147   163   128   ar
   148   164   163    1
   149   165   177    1
   150   166   187    1
   151   167   179    1
   152   168   176    1
   153   169   171    1
   154   170   173    1
   155   171    80   un
   156   172    68   un
   157   173    56   un
   158   174    56   un
   159   175   169    1
   160   176   199    1
   161   177   198    1
   162   178    80   un
   163   179   165    1
   164   180   165    1
   165   181   126   un
   166   182   168    1
   167   183   167    1
   168   184    68   un
   169   185   167    1
   170   186    92   un
   171   187    92   un
   172   188   166    1
   173   189   166    1
   174   190   169    1
   175   191   168    1
   176   192   104   un
   177   193   170    1
   178   194   168    1
   179   195   168    1
   180   196   116   un
   181   197   116   un
   182   198    32    1
   183   199    48    1
   184   200    13    1
   185   201   202    1
   186   203   201    1
   187   204   201    1
   188   205   204    1
   189   206   204    1
   190   207   208    1
   191   209   207    1
   192   210   207    1
   193   211   210    1
   194   212   210    1
   195   213   214    1
   196   215   213    1
   197   216   213    1
   198   217   216    1
   199   218   216    1
   200   219   218    1
   201   220   218    1
   202   221   220    1
   203   222   220    1
   204   223   220    1
   205   224   223    1
   206   225   218    1
   207   226   225    1
   208   227   225    1
   209   228   229    1
   210   230   228    1
   211   231   228    1
   212   232   233    1
   213   234   232    1
   214   235   232    1
   215   236   235    1
   216   237   210    1
   217   238   237    1
   218   239   237    1
   219   240   239    1
   220   241   239    1
   221   242   207    1
   222   243   242    1
   223   244   245    1
   224   246   244    1
   225   247   244    1
   226   248   249    1
   227   250   248    1
   228   251   248    1
   229   252   251    1
   230   253   254    1
   231   255   253    1
   232   256   257    1
   233   257   258   ar
   234   258   259    1
   235   260   258   ar
   236   261   260    1
   237   262   260   ar
   238   263   262    1
   239   264   262   ar
   240   265   264    1
   241   266   257   ar
   242   267   266    1
   243   268   269    1
   244   269   270   ar
   245   270   271    1
   246   272   270   ar
   247   273   272    1
   248   274   272   ar
   249   275   274    1
   250   276   274   ar
   251   277   276    1
   252   278   269   ar
   253   279   278    1
   254   280   281    1
   255   281   282   ar
   256   282   283    1
   257   284   282   ar
   258   285   284    1
   259   286   284   ar
   260   287   286    1
   261   288   286   ar
   262   289   288    1
   263   290   281   ar
   264   291   290    1
   265   292   293    1
   266   293   294   ar
   267   294   295    1
   268   296   294   ar
   269   297   296    1
   270   298   296   ar
   271   299   298    1
   272   300   298   ar
   273   301   300    1
   274   302   293   ar
   275   303   302    1
   276   304   193   un
   277   305   304    1
   278   306   305   ar
   279   307   306    1
   280   308   306   ar
   281   309   308    1
   282   310   308   ar
   283   311   310    1
   284   312   310   ar
   285   313   312    1
   286   314   305   ar
   287   315   314    1
   288   316   317    1
   289   317   318   ar
   290   318   319    1
   291   320   318   ar
   292   321   320    1
   293   322   320   ar
   294   323   322    1
   295   324   317   ar
   296   325   324    1
   297   326   182   un
   298   327   326    1
   299   328   327   ar
   300   329   328    1
   301   330   331    1
   302   332   330   ar
   303   333   332    1
   304   334   327   ar
   305   335   334    1
   306   336   223    1
   307   337   336    1
   308   338   336    1
   309   339   216    1
   310   340   339    1
   311   341   340    1
   312   342   340    1
   313   343   340    1
   314   344   235    1
   315   345   344    1
   316   346   345    1
   317   347   345    1
   318   348   345    1
   319   349   204    1
   320   350   201    1
   321   351   350    1
   322   352   251    1
   323   353   352    1
   324   354   353    1
   325   355   353    1
   326   356   353    1
   327   357   352    1
   328   358   357    1
   329   359   357    1
   330   360   357    1
   331   361   322   ar
   332   362   361    1
   333   363   328   ar
   334   364   363    1
   335   365   195    1
   336   366   191    1
   337   367   379    1
   338   368   376    1
   339   369   371    1
   340   370   373    1
   341   371   280   un
   342   372   268   un
   343   373   256   un
   344   374   256   un
   345   375   369    1
   346   376   399    1
   347   377   365    1
   348   378   280   un
   349   379   365    1
   350   380   365    1
   351   381   326   un
   352   382   126   un
   353   383   367    1
   354   384   268   un
   355   385   367    1
   356   386   292   un
   357   387   292   un
   358   388   366    1
   359   389   198    2
   360   390   369    1
   361   391   166    1
   362   392   304   un
   363   393   104   un
   364   394   166    1
   365   395   165    1
   366   396   316   un
   367   397   316   un
   368   398   189    2
   369   399   248    1
   370   400   194    1
   371    23   139    1
   372    25   136    1
   373    28   139    1
   374    35    37    1
   375    39    42    1
   376    42   144    1
   377    44   144    1
   378    51   149    1
   379    53   149    1
   380    53   150    1
   381    64    66   ar
   382    76    78   ar
   383    88    90   ar
   384   100   102   ar
   385   112   114   ar
   386   124   161   ar
   387   130   163   ar
   388   132   134   ar
   389   150   152    1
   390   165   178    1
   391   165   181    1
   392   166   192    1
   393   167   184    1
   394   167   186    1
   395   167   188    1
   396   168   196    1
   397   169   172    1
   398   169   174    1
   399   169   179    1
   400   170   175    1
   401   170   190    1
   402   170   191    1
   403   170   197    1
   404   175   199    1
   405   180   200    1
   406   183   199    2
   407   185   200    2
   408   190   198    1
   409   194   366    1
   410   200   394    1
   411   213   400    1
   412   223   339    1
   413   225   336    1
   414   228   339    1
   415   232   398    1
   416   235   237    1
   417   239   242    1
   418   242   344    1
   419   244   344    1
   420   251   349    1
   421   253   349    1
   422   253   350    1
   423   264   266   ar
   424   276   278   ar
   425   288   290   ar
   426   300   302   ar
   427   312   314   ar
   428   324   361   ar
   429   330   363   ar
   430   332   334   ar
   431   350   352    1
   432   365   378    1
   433   365   381    1
   434   366   387    1
   435   366   389    1
   436   366   392    1
   437   367   384    1
   438   367   386    1
   439   367   388    1
   440   368   382    1
   441   368   391    1
   442   368   394    1
   443   368   395    1
   444   368   396    1
   445   369   372    1
   446   369   374    1
   447   369   379    1
   448   370   375    1
   449   370   390    1
   450   370   391    1
   451   370   393    1
   452   370   397    1
   453   375   399    1
   454   377   398    1
   455   380   400    1
   456   383   399    2
   457   385   400    2
   458   390   398    1
   459   401   402    1
   460   403   401    1
   461   404   405    1
   462   406   404    1
@<TRIPOS>SUBSTRUCTURE
     1 RES1        1 GROUP             0 ****  ****    0  
     2 RES2      401 GROUP             0 ****  ****    0  
     3 RES3      404 GROUP             0 ****  ****    0  
@<TRIPOS>CRYSIN
   16.4080   17.0260   19.9560  109.1050  105.8860  105.9550     2     1
