@<TRIPOS>MOLECULE
IGIGIQ
   123   128     2     0     0
SMALL
USER_CHARGES
****
Generated from the CSD

@<TRIPOS>ATOM
     1 Fe1      1.2380   5.8951  13.4599   Fe        1 RES1   1.0000
     2 H1      -0.0206   5.1927  13.8342   H         1 RES1   0.0000
     3 P1       0.1550   5.9519  11.4950   P.3       1 RES1   0.0000
     4 P2       2.0106   5.1219  15.4218   P.3       1 RES1   0.0000
     5 O1      -0.0608   8.2110  14.6256   O.2       1 RES1   0.0000
     6 N1       1.8863   4.1054  12.8123   N.ar      1 RES1   0.0000
     7 N2       2.8412   1.6413  11.8961   N.ar      1 RES1   0.0000
     8 N3       2.9681   6.7067  12.9521   N.1       1 RES1   0.0000
     9 C1       3.3665   4.0538  14.7424   C.3       1 RES1   0.0000
    10 H2       4.1759   4.5983  14.5695   H         1 RES1   0.0000
    11 H3       3.5987   3.3427  15.3917   H         1 RES1   0.0000
    12 C2       2.8712   3.4454  13.4664   C.ar      1 RES1   0.0000
    13 C3       3.3308   2.2239  12.9838   C.ar      1 RES1   0.0000
    14 H4       4.0291   1.7864  13.4557   H         1 RES1   0.0000
    15 C4       1.8220   2.2744  11.3073   C.ar      1 RES1   0.0000
    16 H5       1.4204   1.8723  10.5473   H         1 RES1   0.0000
    17 C5       1.3212   3.4913  11.7514   C.ar      1 RES1   0.0000
    18 C6       0.1228   4.1406  11.1445   C.3       1 RES1   0.0000
    19 H6      -0.7006   3.7412  11.5216   H         1 RES1   0.0000
    20 H7       0.1204   3.9885  10.1670   H         1 RES1   0.0000
    21 C7      -1.6721   6.4368  11.4560   C.3       1 RES1   0.0000
    22 C8      -2.4584   5.7719  10.3135   C.3       1 RES1   0.0000
    23 H8      -2.4016   4.7976  10.4024   H         1 RES1   0.0000
    24 H9      -2.0770   6.0447   9.4534   H         1 RES1   0.0000
    25 H10     -3.3975   6.0498  10.3571   H         1 RES1   0.0000
    26 C9      -1.7808   7.9651  11.3417   C.3       1 RES1   0.0000
    27 H11     -2.7071   8.2399  11.5035   H         1 RES1   0.0000
    28 H12     -1.5085   8.2451  10.4440   H         1 RES1   0.0000
    29 H13     -1.1956   8.3842  12.0069   H         1 RES1   0.0000
    30 C10     -2.3314   6.0050  12.7704   C.3       1 RES1   0.0000
    31 H14     -3.2873   6.2181  12.7422   H         1 RES1   0.0000
    32 H15     -1.9124   6.4810  13.5173   H         1 RES1   0.0000
    33 H16     -2.2150   5.0398  12.8925   H         1 RES1   0.0000
    34 C11      1.0568   6.6618   9.9920   C.3       1 RES1   0.0000
    35 C12      1.4376   8.1260  10.2849   C.3       1 RES1   0.0000
    36 H17      2.0960   8.4306   9.6273   H         1 RES1   0.0000
    37 H18      1.8214   8.1901  11.1847   H         1 RES1   0.0000
    38 H19      0.6375   8.6882  10.2303   H         1 RES1   0.0000
    39 C13      0.2892   6.5892   8.6734   C.3       1 RES1   0.0000
    40 H20      0.8637   6.9035   7.9430   H         1 RES1   0.0000
    41 H21     -0.5082   7.1560   8.7290   H         1 RES1   0.0000
    42 H22      0.0206   5.6616   8.5026   H         1 RES1   0.0000
    43 C14      2.3478   5.8413   9.8144   C.3       1 RES1   0.0000
    44 H23      2.1225   4.9402   9.5023   H         1 RES1   0.0000
    45 H24      2.8173   5.7818  10.6722   H         1 RES1   0.0000
    46 H25      2.9259   6.2800   9.1564   H         1 RES1   0.0000
    47 C15      0.8428   3.9313  16.3057   C.3       1 RES1   0.0000
    48 C16      1.4283   3.3288  17.5873   C.3       1 RES1   0.0000
    49 H26      1.5584   4.0366  18.2513   H         1 RES1   0.0000
    50 H27      2.2899   2.9081  17.3856   H         1 RES1   0.0000
    51 H28      0.8108   2.6556  17.9434   H         1 RES1   0.0000
    52 C17     -0.4780   4.6461  16.6114   C.3       1 RES1   0.0000
    53 H29     -1.1002   4.0160  17.0325   H         1 RES1   0.0000
    54 H30     -0.8681   4.9831  15.7774   H         1 RES1   0.0000
    55 H31     -0.3099   5.3954  17.2190   H         1 RES1   0.0000
    56 C18      0.5213   2.7693  15.3587   C.3       1 RES1   0.0000
    57 H32      1.3440   2.2760  15.1563   H         1 RES1   0.0000
    58 H33      0.1381   3.1211  14.5278   H         1 RES1   0.0000
    59 H34     -0.1234   2.1678  15.7865   H         1 RES1   0.0000
    60 C19      2.8814   6.2207  16.6958   C.3       1 RES1   0.0000
    61 C20      3.9373   5.4814  17.5296   C.3       1 RES1   0.0000
    62 H35      4.3595   6.1082  18.1535   H         1 RES1   0.0000
    63 H36      4.6181   5.1051  16.9347   H         1 RES1   0.0000
    64 H37      3.5076   4.7598  18.0339   H         1 RES1   0.0000
    65 C21      3.6072   7.3467  15.9422   C.3       1 RES1   0.0000
    66 H38      4.0261   7.9548  16.5869   H         1 RES1   0.0000
    67 H39      2.9627   7.8431  15.3971   H         1 RES1   0.0000
    68 H40      4.2964   6.9602  15.3627   H         1 RES1   0.0000
    69 C22      1.8524   6.8896  17.6256   C.3       1 RES1   0.0000
    70 H41      1.4380   6.2096  18.1969   H         1 RES1   0.0000
    71 H42      1.1619   7.3295  17.0868   H         1 RES1   0.0000
    72 H43      2.3032   7.5563  18.1861   H         1 RES1   0.0000
    73 C23      3.9624   7.2285  12.7556   C.1       1 RES1   0.0000
    74 C24      5.2319   7.9292  12.5665   C.3       1 RES1   0.0000
    75 H44      5.2952   8.6676  13.2076   H         1 RES1   0.0000
    76 H45      5.2776   8.2828  11.6538   H         1 RES1   0.0000
    77 H46      5.9738   7.3055  12.7132   H         1 RES1   0.0000
    78 C25      0.4909   7.3077  14.1379   C.1       1 RES1   0.0000
    79 B1       8.1960   3.9843  13.8965   B         2 RES2  -1.0000
    80 C26      9.9415   7.1129  15.6574   C.ar      2 RES2   0.0000
    81 H47     10.8240   7.4154  15.8390   H         2 RES2   0.0000
    82 C27      9.7399   5.8583  15.0784   C.ar      2 RES2   0.0000
    83 H48     10.4979   5.3198  14.8864   H         2 RES2   0.0000
    84 C28      8.4667   5.3605  14.7691   C.ar      2 RES2   0.0000
    85 C29      8.8635   7.9096  15.9649   C.ar      2 RES2   0.0000
    86 H49      8.9938   8.7724  16.3388   H         2 RES2   0.0000
    87 C30      7.3968   6.1963  15.1307   C.ar      2 RES2   0.0000
    88 H50      6.5099   5.8987  14.9625   H         2 RES2   0.0000
    89 C31      7.5801   7.4355  15.7207   C.ar      2 RES2   0.0000
    90 H51      6.8272   7.9633  15.9585   H         2 RES2   0.0000
    91 C32     12.1157   1.9178  13.2152   C.ar      2 RES2   0.0000
    92 H52     12.9582   1.4979  13.0899   H         2 RES2   0.0000
    93 C33     11.6246   2.1537  14.4896   C.ar      2 RES2   0.0000
    94 H53     12.1298   1.8843  15.2468   H         2 RES2   0.0000
    95 C34     10.4005   2.7801  14.6651   C.ar      2 RES2   0.0000
    96 H54     10.0778   2.9098  15.5492   H         2 RES2   0.0000
    97 C35      9.6186   3.2315  13.5887   C.ar      2 RES2   0.0000
    98 C36     10.1405   2.9548  12.3193   C.ar      2 RES2   0.0000
    99 H55      9.6445   3.2224  11.5542   H         2 RES2   0.0000
   100 C37     11.3567   2.3041  12.1332   C.ar      2 RES2   0.0000
   101 H56     11.6656   2.1248  11.2536   H         2 RES2   0.0000
   102 C38      7.4785   4.5147  12.5160   C.ar      2 RES2   0.0000
   103 C39      8.0929   5.4775  11.7034   C.ar      2 RES2   0.0000
   104 H57      8.9615   5.7818  11.9381   H         2 RES2   0.0000
   105 C40      7.4876   6.0089  10.5670   C.ar      2 RES2   0.0000
   106 H58      7.9494   6.6493  10.0384   H         2 RES2   0.0000
   107 C41      6.2081   5.6041  10.2037   C.ar      2 RES2   0.0000
   108 H59      5.7785   5.9742   9.4407   H         2 RES2   0.0000
   109 C42      5.5743   4.6495  10.9772   C.ar      2 RES2   0.0000
   110 H60      4.7062   4.3493  10.7374   H         2 RES2   0.0000
   111 C43      6.1944   4.1272  12.0987   C.ar      2 RES2   0.0000
   112 H61      5.7300   3.4749  12.6100   H         2 RES2   0.0000
   113 C44      7.2502   2.8861  14.6724   C.ar      2 RES2   0.0000
   114 C45      6.6886   3.0441  15.9401   C.ar      2 RES2   0.0000
   115 H62      6.8419   3.8563  16.4077   H         2 RES2   0.0000
   116 C46      5.9120   2.0590  16.5487   C.ar      2 RES2   0.0000
   117 H63      5.5405   2.2141  17.4091   H         2 RES2   0.0000
   118 C47      5.6815   0.8595  15.9069   C.ar      2 RES2   0.0000
   119 H64      5.1601   0.1838  16.3225   H         2 RES2   0.0000
   120 C48      6.2219   0.6529  14.6450   C.ar      2 RES2   0.0000
   121 H65      6.0737  -0.1683  14.1910   H         2 RES2   0.0000
   122 C49      6.9810   1.6533  14.0508   C.ar      2 RES2   0.0000
   123 H66      7.3354   1.4979  13.1823   H         2 RES2   0.0000
@<TRIPOS>BOND
     1     1     2    1
     2     3     1    1
     3     4     1    1
     4     5    78    3
     5     6     1    1
     6     7    13   ar
     7     8     1    1
     8     9     4    1
     9    10     9    1
    10    11     9    1
    11    12     6   ar
    12    13    12   ar
    13    14    13    1
    14    15     7   ar
    15    16    15    1
    16    17     6   ar
    17    18     3    1
    18    19    18    1
    19    20    18    1
    20    21     3    1
    21    22    21    1
    22    23    22    1
    23    24    22    1
    24    25    22    1
    25    26    21    1
    26    27    26    1
    27    28    26    1
    28    29    26    1
    29    30    21    1
    30    31    30    1
    31    32    30    1
    32    33    30    1
    33    34     3    1
    34    35    34    1
    35    36    35    1
    36    37    35    1
    37    38    35    1
    38    39    34    1
    39    40    39    1
    40    41    39    1
    41    42    39    1
    42    43    34    1
    43    44    43    1
    44    45    43    1
    45    46    43    1
    46    47     4    1
    47    48    47    1
    48    49    48    1
    49    50    48    1
    50    51    48    1
    51    52    47    1
    52    53    52    1
    53    54    52    1
    54    55    52    1
    55    56    47    1
    56    57    56    1
    57    58    56    1
    58    59    56    1
    59    60     4    1
    60    61    60    1
    61    62    61    1
    62    63    61    1
    63    64    61    1
    64    65    60    1
    65    66    65    1
    66    67    65    1
    67    68    65    1
    68    69    60    1
    69    70    69    1
    70    71    69    1
    71    72    69    1
    72    73     8    3
    73    74    73    1
    74    75    74    1
    75    76    74    1
    76    77    74    1
    77    78     1    1
    78     9    12    1
    79    15    17   ar
    80    17    18    1
    81    79    84    1
    82    80    81    1
    83    82    80   ar
    84    83    82    1
    85    84    82   ar
    86    85    80   ar
    87    86    85    1
    88    87    84   ar
    89    88    87    1
    90    89    85   ar
    91    90    89    1
    92    91    92    1
    93    93    91   ar
    94    94    93    1
    95    95    93   ar
    96    96    95    1
    97    97    79    1
    98    98    97   ar
    99    99    98    1
   100   100    91   ar
   101   101   100    1
   102   102    79    1
   103   103   102   ar
   104   104   103    1
   105   105   103   ar
   106   106   105    1
   107   107   105   ar
   108   108   107    1
   109   109   107   ar
   110   110   109    1
   111   111   102   ar
   112   112   111    1
   113   113    79    1
   114   114   113   ar
   115   115   114    1
   116   116   114   ar
   117   117   116    1
   118   118   116   ar
   119   119   118    1
   120   120   118   ar
   121   121   120    1
   122   122   113   ar
   123   123   122    1
   124    87    89   ar
   125    95    97   ar
   126    98   100   ar
   127   109   111   ar
   128   120   122   ar
@<TRIPOS>SUBSTRUCTURE
     1 RES1        1 GROUP             0 ****  ****    0  
     2 RES2       79 GROUP             0 ****  ****    0  
@<TRIPOS>CRYSIN
   14.6885   17.1772   18.1100   90.0000   90.0000   90.0000    19     1
