@<TRIPOS>MOLECULE
IGUVAK01
   110   116     4     0     0
SMALL
USER_CHARGES
****
Generated from the CSD

@<TRIPOS>ATOM
     1 Fe1      5.4413   8.8553   9.4762   Fe        1 RES1   1.0000
     2 O1       4.7825  10.1559  10.6231   O.3       1 RES1   0.0000
     3 C1       3.5414  10.6408  10.5996   C.ar      1 RES1   0.0000
     4 C2       2.6893  10.5489   9.4830   C.ar      1 RES1   0.0000
     5 C3       1.4042  11.1442   9.5524   C.ar      1 RES1   0.0000
     6 H1       0.8318  11.1157   8.7949   H         1 RES1   0.0000
     7 C4       0.9807  11.7579  10.7015   C.ar      1 RES1   0.0000
     8 C5       1.8186  11.8181  11.8148   C.ar      1 RES1   0.0000
     9 H2       1.5172  12.2321  12.6155   H         1 RES1   0.0000
    10 C6       3.0721  11.2813  11.7532   C.ar      1 RES1   0.0000
    11 H3       3.6406  11.3424  12.5115   H         1 RES1   0.0000
    12 Cl1     -0.6191  12.4491  10.7515   Cl        1 RES1   0.0000
    13 C7       3.0611   9.9034   8.2734   C.2       1 RES1   0.0000
    14 H4       2.4649   9.9685   7.5370   H         1 RES1   0.0000
    15 N1       4.1342   9.2445   8.1065   N.2       1 RES1   0.0000
    16 C8       4.3997   8.5488   6.8499   C.3       1 RES1   0.0000
    17 H5       5.0321   9.0704   6.2949   H         1 RES1   0.0000
    18 H6       3.5599   8.4258   6.3403   H         1 RES1   0.0000
    19 C9       4.9960   7.2126   7.2105   C.3       1 RES1   0.0000
    20 H7       4.3236   6.6452   7.6646   H         1 RES1   0.0000
    21 H8       5.3084   6.7429   6.3967   H         1 RES1   0.0000
    22 N2       6.1323   7.4919   8.1143   N.3       1 RES1   0.0000
    23 H9       6.8487   7.9345   7.5756   H         1 RES1   0.0000
    24 C10      6.6939   6.2494   8.6743   C.3       1 RES1   0.0000
    25 H10      7.5501   6.4452   9.1092   H         1 RES1   0.0000
    26 H11      6.8340   5.6002   7.9541   H         1 RES1   0.0000
    27 H12      6.0709   5.8772   9.3332   H         1 RES1   0.0000
    28 O2       4.2348   7.5621  10.0933   O.3       1 RES1   0.0000
    29 C11      4.2166   7.0839  11.3164   C.ar      1 RES1   0.0000
    30 C12      5.3013   7.1207  12.2101   C.ar      1 RES1   0.0000
    31 C13      5.1997   6.5036  13.4724   C.ar      1 RES1   0.0000
    32 H13      5.9391   6.5112  14.0680   H         1 RES1   0.0000
    33 C14      4.0369   5.8982  13.8330   C.ar      1 RES1   0.0000
    34 C15      2.9446   5.8430  12.9728   C.ar      1 RES1   0.0000
    35 H14      2.1397   5.4176  13.2445   H         1 RES1   0.0000
    36 C16      3.0446   6.4099  11.7330   C.ar      1 RES1   0.0000
    37 H15      2.3079   6.3493  11.1357   H         1 RES1   0.0000
    38 Cl2      3.9249   5.0993  15.3901   Cl        1 RES1   0.0000
    39 C17      6.5580   7.7411  11.8753   C.2       1 RES1   0.0000
    40 H16      7.2807   7.6344  12.4818   H         1 RES1   0.0000
    41 N3       6.7679   8.4368  10.7989   N.2       1 RES1   0.0000
    42 C18      8.0690   9.0873  10.5772   C.3       1 RES1   0.0000
    43 H17      8.6233   8.5596   9.9489   H         1 RES1   0.0000
    44 H18      8.5612   9.1906  11.4295   H         1 RES1   0.0000
    45 C19      7.7287  10.4385   9.9869   C.3       1 RES1   0.0000
    46 H19      7.2645  11.0005  10.6568   H         1 RES1   0.0000
    47 H20      8.5518  10.9063   9.6980   H         1 RES1   0.0000
    48 N4       6.8517  10.1893   8.8334   N.3       1 RES1   0.0000
    49 H21      7.3940   9.7485   8.1180   H         1 RES1   0.0000
    50 C20      6.3287  11.4720   8.2958   C.3       1 RES1   0.0000
    51 H22      5.8712  11.3072   7.4445   H         1 RES1   0.0000
    52 H23      7.0727  12.0930   8.1514   H         1 RES1   0.0000
    53 H24      5.6971  11.8614   8.9357   H         1 RES1   0.0000
    54 B1       1.6564   8.8782   3.3689   B         2 RES2  -1.0000
    55 C21      0.3890   9.9034   3.1214   C.ar      2 RES2   0.0000
    56 C22     -0.9231   9.4552   3.2289   C.ar      2 RES2   0.0000
    57 H25     -1.0754   8.5767   3.5593   H         2 RES2   0.0000
    58 C23     -2.0309  10.2328   2.8739   C.ar      2 RES2   0.0000
    59 H26     -2.9088   9.8772   2.9437   H         2 RES2   0.0000
    60 C24     -1.8355  11.5272   2.4203   C.ar      2 RES2   0.0000
    61 H27     -2.5765  12.0789   2.1999   H         2 RES2   0.0000
    62 C25     -0.5504  11.9988   2.2949   C.ar      2 RES2   0.0000
    63 H28     -0.3987  12.8806   1.9756   H         2 RES2   0.0000
    64 C26      0.5233  11.1944   2.6331   C.ar      2 RES2   0.0000
    65 H29      1.3996  11.5447   2.5249   H         2 RES2   0.0000
    66 C27      1.7370   8.0137   1.9813   C.ar      2 RES2   0.0000
    67 C28      2.3993   8.5672   0.8512   C.ar      2 RES2   0.0000
    68 H30      2.8123   9.4186   0.9405   H         2 RES2   0.0000
    69 C29      2.4679   7.9334  -0.3562   C.ar      2 RES2   0.0000
    70 H31      2.9399   8.3382  -1.0743   H         2 RES2   0.0000
    71 C30      1.8556   6.7009  -0.5443   C.ar      2 RES2   0.0000
    72 H32      1.9004   6.2583  -1.3838   H         2 RES2   0.0000
    73 C31      1.1783   6.1357   0.5253   C.ar      2 RES2   0.0000
    74 H33      0.7586   5.2895   0.4224   H         2 RES2   0.0000
    75 C32      1.1076   6.7895   1.7371   C.ar      2 RES2   0.0000
    76 H34      0.6074   6.3894   2.4386   H         2 RES2   0.0000
    77 C33      3.0753   9.6157   3.6713   C.ar      2 RES2   0.0000
    78 C34      4.2862   9.0170   3.3264   C.ar      2 RES2   0.0000
    79 H35      4.2553   8.1891   2.8609   H         2 RES2   0.0000
    80 C35      5.5222   9.5472   3.6164   C.ar      2 RES2   0.0000
    81 H36      6.3092   9.0797   3.3633   H         2 RES2   0.0000
    82 C36      5.6224  10.7663   4.2795   C.ar      2 RES2   0.0000
    83 H37      6.4689  11.1601   4.4589   H         2 RES2   0.0000
    84 C37      4.4385  11.3934   4.6726   C.ar      2 RES2   0.0000
    85 H38      4.4756  12.2165   5.1450   H         2 RES2   0.0000
    86 C38      3.1926  10.8181   4.3758   C.ar      2 RES2   0.0000
    87 H39      2.4024  11.2602   4.6626   H         2 RES2   0.0000
    88 C39      1.3942   7.9117   4.6771   C.ar      2 RES2   0.0000
    89 C40      0.6630   8.3498   5.7971   C.ar      2 RES2   0.0000
    90 H40      0.2146   9.1857   5.7517   H         2 RES2   0.0000
    91 C41      0.5726   7.6123   6.9540   C.ar      2 RES2   0.0000
    92 H41      0.0777   7.9515   7.6903   H         2 RES2   0.0000
    93 C42      1.1963   6.3848   7.0559   C.ar      2 RES2   0.0000
    94 H42      1.1341   5.8778   7.8571   H         2 RES2   0.0000
    95 C43      1.9067   5.9066   5.9819   C.ar      2 RES2   0.0000
    96 H43      2.3226   5.0535   6.0323   H         2 RES2   0.0000
    97 C44      2.0218   6.6608   4.8227   C.ar      2 RES2   0.0000
    98 H44      2.5418   6.3227   4.1029   H         2 RES2   0.0000
    99 O3       8.5240   8.7595   6.8163   O.3       3 RES3   0.0000
   100 H45      8.8444   9.4597   6.4817   H         3 RES3   0.0000
   101 C45      8.5819   7.7093   5.8643   C.3       3 RES3   0.0000
   102 H46      8.0906   7.9730   5.0582   H         3 RES3   0.0000
   103 H47      8.1786   6.9016   6.2438   H         3 RES3   0.0000
   104 H48      9.5172   7.5307   5.6326   H         3 RES3   0.0000
   105 O4       9.3846  11.1843   5.8643   O.3       4 RES4   0.0000
   106 H49      9.6237  11.0915   5.0644   H         4 RES4   0.0000
   107 C46     10.0988  12.2529   6.4489   C.3       4 RES4   0.0000
   108 H50      9.7745  13.1014   6.0821   H         4 RES4   0.0000
   109 H51     11.0535  12.1544   6.2502   H         4 RES4   0.0000
   110 H52      9.9643  12.2431   7.4194   H         4 RES4   0.0000
@<TRIPOS>BOND
     1     1     2    1
     2     2     3    1
     3     3     4   ar
     4     4     5   ar
     5     5     6    1
     6     7     5   ar
     7     8     7   ar
     8     9     8    1
     9    10     3   ar
    10    11    10    1
    11    12     7    1
    12    13     4    1
    13    14    13    1
    14    15     1    1
    15    16    15    1
    16    17    16    1
    17    18    16    1
    18    19    16    1
    19    20    19    1
    20    21    19    1
    21    22     1    1
    22    23    22    1
    23    24    22    1
    24    25    24    1
    25    26    24    1
    26    27    24    1
    27    28     1    1
    28    29    28    1
    29    30    29   ar
    30    31    30   ar
    31    32    31    1
    32    33    31   ar
    33    34    33   ar
    34    35    34    1
    35    36    29   ar
    36    37    36    1
    37    38    33    1
    38    39    30    1
    39    40    39    1
    40    41     1    1
    41    42    41    1
    42    43    42    1
    43    44    42    1
    44    45    42    1
    45    46    45    1
    46    47    45    1
    47    48     1    1
    48    49    48    1
    49    50    48    1
    50    51    50    1
    51    52    50    1
    52    53    50    1
    53     8    10   ar
    54    13    15    2
    55    19    22    1
    56    34    36   ar
    57    39    41    2
    58    45    48    1
    59    54    55    1
    60    55    56   ar
    61    56    57    1
    62    58    56   ar
    63    59    58    1
    64    60    58   ar
    65    61    60    1
    66    62    60   ar
    67    63    62    1
    68    64    55   ar
    69    65    64    1
    70    66    54    1
    71    67    66   ar
    72    68    67    1
    73    69    67   ar
    74    70    69    1
    75    71    69   ar
    76    72    71    1
    77    73    71   ar
    78    74    73    1
    79    75    66   ar
    80    76    75    1
    81    77    54    1
    82    78    77   ar
    83    79    78    1
    84    80    78   ar
    85    81    80    1
    86    82    80   ar
    87    83    82    1
    88    84    82   ar
    89    85    84    1
    90    86    77   ar
    91    87    86    1
    92    88    54    1
    93    89    88   ar
    94    90    89    1
    95    91    89   ar
    96    92    91    1
    97    93    91   ar
    98    94    93    1
    99    95    93   ar
   100    96    95    1
   101    97    88   ar
   102    98    97    1
   103    62    64   ar
   104    73    75   ar
   105    84    86   ar
   106    95    97   ar
   107    99   100    1
   108   101    99    1
   109   102   101    1
   110   103   101    1
   111   104   101    1
   112   105   106    1
   113   107   105    1
   114   108   107    1
   115   109   107    1
   116   110   107    1
@<TRIPOS>SUBSTRUCTURE
     1 RES1        1 GROUP             0 ****  ****    0  
     2 RES2       54 GROUP             0 ****  ****    0  
     3 RES3       99 GROUP             0 ****  ****    0  
     4 RES4      105 GROUP             0 ****  ****    0  
@<TRIPOS>CRYSIN
   11.4670   16.7230   11.4820   90.0000  102.7270   90.0000     4     1
