@<TRIPOS>MOLECULE
IHITOK02
   145   152     1     0     0
SMALL
NO_CHARGES
****
Generated from the CSD

@<TRIPOS>ATOM
     1 Se1      7.9805  -3.2541  12.1594   Se        1 RES1   0.0000
     2 Fe1     10.7298   0.7896  13.3612   Fe        1 RES1   0.0000
     3 N1       9.3484  -0.7509  12.8706   N.2       1 RES1   0.0000
     4 C1       8.8173  -1.7309  12.6103   C.1       1 RES1   0.0000
     5 N2      11.4577   0.9636  11.3157   N.ar      1 RES1   0.0000
     6 C2       7.9840   2.1511  13.0763   C.ar      1 RES1   0.0000
     7 H1       7.7920   1.4935  13.7353   H         1 RES1   0.0000
     8 N3       9.2549   2.2698  12.6366   N.ar      1 RES1   0.0000
     9 C3       6.9561   2.9366  12.6158   C.ar      1 RES1   0.0000
    10 H2       6.0752   2.8313  12.9550   H         1 RES1   0.0000
    11 N4      10.8427   3.2434  11.2211   N.pl3     1 RES1   0.0000
    12 C4       7.2269   3.8833  11.6506   C.ar      1 RES1   0.0000
    13 H3       6.5366   4.4464  11.3214   H         1 RES1   0.0000
    14 N5      12.8725   4.2960  11.0477   N.ar      1 RES1   0.0000
    15 C5       8.5051   4.0006  11.1714   C.ar      1 RES1   0.0000
    16 H4       8.7105   4.6318  10.4912   H         1 RES1   0.0000
    17 N6      10.8920   5.5601  11.4274   N.ar      1 RES1   0.0000
    18 C6       9.4942   3.1826  11.6953   C.ar      1 RES1   0.0000
    19 N7      13.0107   6.6743  11.2827   N.ar      1 RES1   0.0000
    20 C7      11.4244   2.0949  10.6013   C.ar      1 RES1   0.0000
    21 N8      14.8887   5.3689  10.9097   N.pl3     1 RES1   0.0000
    22 C8      11.8959   2.1738   9.3017   C.ar      1 RES1   0.0000
    23 H5      11.8414   2.9900   8.8184   H         1 RES1   0.0000
    24 N9      11.0498   7.8457  11.6137   N.pl3     1 RES1   0.0000
    25 C9      12.4416   1.0572   8.7240   C.ar      1 RES1   0.0000
    26 H6      12.7856   1.0931   7.8386   H         1 RES1   0.0000
    27 C10     12.4852  -0.1215   9.4447   C.ar      1 RES1   0.0000
    28 H7      12.8650  -0.9077   9.0678   H         1 RES1   0.0000
    29 C11     11.9708  -0.1314  10.7117   C.ar      1 RES1   0.0000
    30 H8      11.9745  -0.9507  11.1931   H         1 RES1   0.0000
    31 C12     11.5691   4.4433  11.2286   C.ar      1 RES1   0.0000
    32 C13     11.6792   6.6626  11.4446   C.ar      1 RES1   0.0000
    33 C14     13.5492   5.4638  11.0873   C.ar      1 RES1   0.0000
    34 C15     15.7419   6.5502  10.8054   C.3       1 RES1   0.0000
    35 H9      15.1698   7.3503  10.6943   H         1 RES1   0.0000
    36 H10     16.3072   6.4679   9.9959   H         1 RES1   0.0000
    37 C16     16.6361   6.7512  12.0108   C.3       1 RES1   0.0000
    38 H11     17.1655   5.9280  12.1587   H         1 RES1   0.0000
    39 H12     17.2707   7.4868  11.8202   H         1 RES1   0.0000
    40 C17     15.8780   7.0745  13.2668   C.3       1 RES1   0.0000
    41 H13     15.2063   6.3804  13.4307   H         1 RES1   0.0000
    42 H14     15.4337   7.9421  13.1670   H         1 RES1   0.0000
    43 H15     16.5003   7.1116  14.0239   H         1 RES1   0.0000
    44 C18     15.4960   4.0731  10.6302   C.3       1 RES1   0.0000
    45 H16     15.0518   3.3845  11.1860   H         1 RES1   0.0000
    46 H17     16.4509   4.1038  10.8920   H         1 RES1   0.0000
    47 C19     15.4003   3.6608   9.1699   C.3       1 RES1   0.0000
    48 H18     14.4595   3.7389   8.8683   H         1 RES1   0.0000
    49 H19     15.9488   4.2744   8.6188   H         1 RES1   0.0000
    50 C20     15.8782   2.2365   8.9627   C.3       1 RES1   0.0000
    51 H20     15.7406   1.9785   8.0256   H         1 RES1   0.0000
    52 H21     15.3694   1.6329   9.5434   H         1 RES1   0.0000
    53 H22     16.8308   2.1757   9.1818   H         1 RES1   0.0000
    54 C21      9.5892   7.9093  11.6693   C.3       1 RES1   0.0000
    55 H23      9.3242   8.6866  12.2210   H         1 RES1   0.0000
    56 H24      9.2512   7.0938  12.1159   H         1 RES1   0.0000
    57 C22      8.9353   8.0296  10.3077   C.3       1 RES1   0.0000
    58 H25      9.2555   7.2955   9.7252   H         1 RES1   0.0000
    59 H26      9.2040   8.8883   9.8926   H         1 RES1   0.0000
    60 C23      7.4235   7.9703  10.4021   C.3       1 RES1   0.0000
    61 H27      7.1525   7.1041  10.7709   H         1 RES1   0.0000
    62 H28      7.0366   8.0815   9.5096   H         1 RES1   0.0000
    63 H29      7.1053   8.6896  10.9882   H         1 RES1   0.0000
    64 C24     11.8017   9.0914  11.6449   C.3       1 RES1   0.0000
    65 H30     12.6397   8.9388  12.1480   H         1 RES1   0.0000
    66 H31     11.2727   9.7634  12.1444   H         1 RES1   0.0000
    67 C25     12.1554   9.6702  10.2877   C.3       1 RES1   0.0000
    68 H32     12.8328   9.0975   9.8499   H         1 RES1   0.0000
    69 H33     11.3478   9.6848   9.7145   H         1 RES1   0.0000
    70 C26     12.6994  11.0789  10.4324   C.3       1 RES1   0.0000
    71 H34     13.0195  11.3963   9.5630   H         1 RES1   0.0000
    72 H35     13.4401  11.0789  11.0737   H         1 RES1   0.0000
    73 H36     11.9895  11.6722  10.7566   H         1 RES1   0.0000
    74 Se1C    13.4791  -3.2541  14.5630   Se        1 RES1   0.0000
    75 N1C     12.1112  -0.7509  13.8518   N.2       1 RES1   0.0000
    76 C1C     12.6423  -1.7309  14.1121   C.1       1 RES1   0.0000
    77 N2C     10.0019   0.9636  15.4067   N.ar      1 RES1   0.0000
    78 C2C     13.4756   2.1511  13.6460   C.ar      1 RES1   0.0000
    79 H1C     13.6676   1.4935  12.9871   H         1 RES1   0.0000
    80 N3C     12.2047   2.2698  14.0857   N.ar      1 RES1   0.0000
    81 C3C     14.5035   2.9366  14.1066   C.ar      1 RES1   0.0000
    82 H2C     15.3844   2.8313  13.7674   H         1 RES1   0.0000
    83 N4C     10.6169   3.2434  15.5013   N.pl3     1 RES1   0.0000
    84 C4C     14.2327   3.8833  15.0718   C.ar      1 RES1   0.0000
    85 H3C     14.9230   4.4464  15.4010   H         1 RES1   0.0000
    86 N5C      8.5871   4.2960  15.6746   N.ar      1 RES1   0.0000
    87 C5C     12.9545   4.0006  15.5510   C.ar      1 RES1   0.0000
    88 H4C     12.7491   4.6318  16.2312   H         1 RES1   0.0000
    89 N6C     10.5676   5.5601  15.2950   N.ar      1 RES1   0.0000
    90 C6C     11.9654   3.1826  15.0270   C.ar      1 RES1   0.0000
    91 N7C      8.4489   6.6743  15.4396   N.ar      1 RES1   0.0000
    92 C7C     10.0352   2.0949  16.1211   C.ar      1 RES1   0.0000
    93 N8C      6.5709   5.3689  15.8127   N.pl3     1 RES1   0.0000
    94 C8C      9.5637   2.1738  17.4207   C.ar      1 RES1   0.0000
    95 H5C      9.6182   2.9900  17.9040   H         1 RES1   0.0000
    96 N9C     10.4098   7.8457  15.1086   N.pl3     1 RES1   0.0000
    97 C9C      9.0180   1.0572  17.9984   C.ar      1 RES1   0.0000
    98 H6C      8.6740   1.0931  18.8838   H         1 RES1   0.0000
    99 C10C     8.9744  -0.1215  17.2776   C.ar      1 RES1   0.0000
   100 H7C      8.5946  -0.9077  17.6546   H         1 RES1   0.0000
   101 C11C     9.4888  -0.1314  16.0106   C.ar      1 RES1   0.0000
   102 H8C      9.4851  -0.9507  15.5292   H         1 RES1   0.0000
   103 C12C     9.8905   4.4433  15.4938   C.ar      1 RES1   0.0000
   104 C13C     9.7804   6.6626  15.2777   C.ar      1 RES1   0.0000
   105 C14C     7.9104   5.4638  15.6351   C.ar      1 RES1   0.0000
   106 C15C     5.7177   6.5502  15.9169   C.3       1 RES1   0.0000
   107 H9C      6.2898   7.3503  16.0281   H         1 RES1   0.0000
   108 H10C     5.1524   6.4679  16.7264   H         1 RES1   0.0000
   109 C16C     4.8235   6.7512  14.7115   C.3       1 RES1   0.0000
   110 H11C     4.2941   5.9280  14.5637   H         1 RES1   0.0000
   111 H12C     4.1889   7.4868  14.9022   H         1 RES1   0.0000
   112 C17C     5.5816   7.0745  13.4556   C.3       1 RES1   0.0000
   113 H13C     6.2533   6.3804  13.2917   H         1 RES1   0.0000
   114 H14C     6.0259   7.9421  13.5554   H         1 RES1   0.0000
   115 H15C     4.9593   7.1116  12.6985   H         1 RES1   0.0000
   116 C18C     5.9636   4.0731  16.0922   C.3       1 RES1   0.0000
   117 H16C     6.4078   3.3845  15.5364   H         1 RES1   0.0000
   118 H17C     5.0087   4.1038  15.8303   H         1 RES1   0.0000
   119 C19C     6.0593   3.6608  17.5525   C.3       1 RES1   0.0000
   120 H18C     7.0001   3.7389  17.8541   H         1 RES1   0.0000
   121 H19C     5.5108   4.2744  18.1035   H         1 RES1   0.0000
   122 C20C     5.5814   2.2365  17.7597   C.3       1 RES1   0.0000
   123 H20C     5.7190   1.9785  18.6967   H         1 RES1   0.0000
   124 H21C     6.0902   1.6329  17.1789   H         1 RES1   0.0000
   125 H22C     4.6288   2.1757  17.5406   H         1 RES1   0.0000
   126 C21C    11.8704   7.9093  15.0531   C.3       1 RES1   0.0000
   127 H23C    12.1354   8.6866  14.5013   H         1 RES1   0.0000
   128 H24C    12.2084   7.0938  14.6064   H         1 RES1   0.0000
   129 C22C    12.5243   8.0296  16.4146   C.3       1 RES1   0.0000
   130 H25C    12.2041   7.2955  16.9972   H         1 RES1   0.0000
   131 H26C    12.2556   8.8883  16.8297   H         1 RES1   0.0000
   132 C23C    14.0361   7.9703  16.3202   C.3       1 RES1   0.0000
   133 H27C    14.3071   7.1041  15.9515   H         1 RES1   0.0000
   134 H28C    14.4230   8.0815  17.2128   H         1 RES1   0.0000
   135 H29C    14.3543   8.6896  15.7341   H         1 RES1   0.0000
   136 C24C     9.6579   9.0914  15.0775   C.3       1 RES1   0.0000
   137 H30C     8.8199   8.9388  14.5744   H         1 RES1   0.0000
   138 H31C    10.1869   9.7634  14.5779   H         1 RES1   0.0000
   139 C25C     9.3042   9.6702  16.4346   C.3       1 RES1   0.0000
   140 H32C     8.6268   9.0975  16.8725   H         1 RES1   0.0000
   141 H33C    10.1118   9.6848  17.0079   H         1 RES1   0.0000
   142 C26C     8.7602  11.0789  16.2899   C.3       1 RES1   0.0000
   143 H34C     8.4401  11.3963  17.1593   H         1 RES1   0.0000
   144 H35C     8.0195  11.0789  15.6486   H         1 RES1   0.0000
   145 H36C     9.4701  11.6722  15.9657   H         1 RES1   0.0000
@<TRIPOS>BOND
     1     1     4    2
     2     2     3    1
     3     3     4    2
     4     5     2    1
     5     6     7    1
     6     8     2    1
     7     9     6   ar
     8    10     9    1
     9    11    18    1
    10    12     9   ar
    11    13    12    1
    12    14    31   ar
    13    15    12   ar
    14    16    15    1
    15    17    31   ar
    16    18     8   ar
    17    19    32   ar
    18    20     5   ar
    19    21    33    1
    20    22    20   ar
    21    23    22    1
    22    24    32    1
    23    25    22   ar
    24    26    25    1
    25    27    25   ar
    26    28    27    1
    27    29     5   ar
    28    30    29    1
    29    31    11    1
    30    32    17   ar
    31    33    14   ar
    32    34    21    1
    33    35    34    1
    34    36    34    1
    35    37    34    1
    36    38    37    1
    37    39    37    1
    38    40    37    1
    39    41    40    1
    40    42    40    1
    41    43    40    1
    42    44    21    1
    43    45    44    1
    44    46    44    1
    45    47    44    1
    46    48    47    1
    47    49    47    1
    48    50    47    1
    49    51    50    1
    50    52    50    1
    51    53    50    1
    52    54    24    1
    53    55    54    1
    54    56    54    1
    55    57    54    1
    56    58    57    1
    57    59    57    1
    58    60    57    1
    59    61    60    1
    60    62    60    1
    61    63    60    1
    62    64    24    1
    63    65    64    1
    64    66    64    1
    65    67    64    1
    66    68    67    1
    67    69    67    1
    68    70    67    1
    69    71    70    1
    70    72    70    1
    71    73    70    1
    72    74    76    2
    73    75     2    1
    74    76    75    2
    75    77     2    1
    76    78    79    1
    77    80     2    1
    78    81    78   ar
    79    82    81    1
    80    83    90    1
    81    84    81   ar
    82    85    84    1
    83    86   103   ar
    84    87    84   ar
    85    88    87    1
    86    89   103   ar
    87    90    80   ar
    88    91   104   ar
    89    92    77   ar
    90    93   105    1
    91    94    92   ar
    92    95    94    1
    93    96   104    1
    94    97    94   ar
    95    98    97    1
    96    99    97   ar
    97   100    99    1
    98   101    77   ar
    99   102   101    1
   100   103    83    1
   101   104    89   ar
   102   105    86   ar
   103   106    93    1
   104   107   106    1
   105   108   106    1
   106   109   106    1
   107   110   109    1
   108   111   109    1
   109   112   109    1
   110   113   112    1
   111   114   112    1
   112   115   112    1
   113   116    93    1
   114   117   116    1
   115   118   116    1
   116   119   116    1
   117   120   119    1
   118   121   119    1
   119   122   119    1
   120   123   122    1
   121   124   122    1
   122   125   122    1
   123   126    96    1
   124   127   126    1
   125   128   126    1
   126   129   126    1
   127   130   129    1
   128   131   129    1
   129   132   129    1
   130   133   132    1
   131   134   132    1
   132   135   132    1
   133   136    96    1
   134   137   136    1
   135   138   136    1
   136   139   136    1
   137   140   139    1
   138   141   139    1
   139   142   139    1
   140   143   142    1
   141   144   142    1
   142   145   142    1
   143     6     8   ar
   144    11    20    1
   145    15    18   ar
   146    19    33   ar
   147    27    29   ar
   148    78    80   ar
   149    83    92    1
   150    87    90   ar
   151    91   105   ar
   152    99   101   ar
@<TRIPOS>SUBSTRUCTURE
     1 RES1        1 GROUP             0 ****  ****    0  
@<TRIPOS>CRYSIN
   21.4596   14.8312   17.8149   90.0000   90.0000   90.0000    60     1
