@<TRIPOS>MOLECULE
IHITOK01
   145   152     1     0     0
SMALL
NO_CHARGES
****
Generated from the CSD

@<TRIPOS>ATOM
     1 Se1      7.9772  -3.2011  12.1047   Se        1 RES1   0.0000
     2 Fe1     10.7142   0.8299  13.2603   Fe        1 RES1   0.0000
     3 N1       9.3567  -0.6892  12.7769   N.2       1 RES1   0.0000
     4 C1       8.8173  -1.6782  12.5328   C.1       1 RES1   0.0000
     5 N2      11.4226   0.9773  11.2530   N.ar      1 RES1   0.0000
     6 C2       7.9891   2.1524  13.0158   C.ar      1 RES1   0.0000
     7 H1       7.7978   1.4829  13.6616   H         1 RES1   0.0000
     8 N3       9.2566   2.2757  12.5766   N.ar      1 RES1   0.0000
     9 C3       6.9618   2.9486  12.5739   C.ar      1 RES1   0.0000
    10 H2       6.0835   2.8385  12.9191   H         1 RES1   0.0000
    11 N4      10.8367   3.2652  11.1570   N.pl3     1 RES1   0.0000
    12 C4       7.2246   3.9097  11.6242   C.ar      1 RES1   0.0000
    13 H3       6.5313   4.4768  11.3084   H         1 RES1   0.0000
    14 N5      12.8664   4.3104  10.9542   N.ar      1 RES1   0.0000
    15 C5       8.5081   4.0383  11.1390   C.ar      1 RES1   0.0000
    16 H4       8.7106   4.6825  10.4703   H         1 RES1   0.0000
    17 N6      10.8952   5.5789  11.3512   N.ar      1 RES1   0.0000
    18 C6       9.5005   3.2077  11.6450   C.ar      1 RES1   0.0000
    19 N7      13.0170   6.6866  11.1772   N.ar      1 RES1   0.0000
    20 C7      11.4039   2.1105  10.5453   C.ar      1 RES1   0.0000
    21 N8      14.8843   5.3770  10.7888   N.pl3     1 RES1   0.0000
    22 C8      11.8833   2.1830   9.2414   C.ar      1 RES1   0.0000
    23 H5      11.8370   2.9983   8.7571   H         1 RES1   0.0000
    24 N9      11.0630   7.8642  11.5250   N.pl3     1 RES1   0.0000
    25 C9      12.4241   1.0607   8.6625   C.ar      1 RES1   0.0000
    26 H6      12.7777   1.0937   7.7811   H         1 RES1   0.0000
    27 C10     12.4434  -0.1184   9.3862   C.ar      1 RES1   0.0000
    28 H7      12.8120  -0.9102   9.0117   H         1 RES1   0.0000
    29 C11     11.9210  -0.1246  10.6542   C.ar      1 RES1   0.0000
    30 H8      11.9098  -0.9442  11.1351   H         1 RES1   0.0000
    31 C12     11.5681   4.4629  11.1498   C.ar      1 RES1   0.0000
    32 C13     11.6801   6.6838  11.3466   C.ar      1 RES1   0.0000
    33 C14     13.5493   5.4734  10.9794   C.ar      1 RES1   0.0000
    34 C15     15.7427   6.5472  10.6694   C.3       1 RES1   0.0000
    35 H9      15.1777   7.3508  10.5464   H         1 RES1   0.0000
    36 H10     16.3091   6.4495   9.8621   H         1 RES1   0.0000
    37 C16     16.6401   6.7559  11.8809   C.3       1 RES1   0.0000
    38 H11     17.1684   5.9316  12.0333   H         1 RES1   0.0000
    39 H12     17.2755   7.4884  11.6867   H         1 RES1   0.0000
    40 C17     15.8818   7.0889  13.1394   C.3       1 RES1   0.0000
    41 H13     15.2205   6.3889  13.3169   H         1 RES1   0.0000
    42 H14     15.4262   7.9487  13.0269   H         1 RES1   0.0000
    43 H15     16.5062   7.1466  13.8915   H         1 RES1   0.0000
    44 C18     15.4832   4.0713  10.5062   C.3       1 RES1   0.0000
    45 H16     15.0362   3.3861  11.0626   H         1 RES1   0.0000
    46 H17     16.4398   4.0935  10.7638   H         1 RES1   0.0000
    47 C19     15.3761   3.6640   9.0412   C.3       1 RES1   0.0000
    48 H18     14.4362   3.7501   8.7430   H         1 RES1   0.0000
    49 H19     15.9298   4.2711   8.4884   H         1 RES1   0.0000
    50 C20     15.8411   2.2311   8.8386   C.3       1 RES1   0.0000
    51 H20     15.6919   1.9683   7.9067   H         1 RES1   0.0000
    52 H21     15.3341   1.6368   9.4307   H         1 RES1   0.0000
    53 H22     16.7955   2.1651   9.0488   H         1 RES1   0.0000
    54 C21      9.5997   7.9348  11.5989   C.3       1 RES1   0.0000
    55 H23      9.3449   8.7153  12.1517   H         1 RES1   0.0000
    56 H24      9.2613   7.1214  12.0510   H         1 RES1   0.0000
    57 C22      8.9335   8.0553  10.2401   C.3       1 RES1   0.0000
    58 H25      9.1863   8.9181   9.8250   H         1 RES1   0.0000
    59 H26      9.2527   7.3271   9.6517   H         1 RES1   0.0000
    60 C23      7.4223   7.9783  10.3646   C.3       1 RES1   0.0000
    61 H27      7.1699   7.1096  10.7408   H         1 RES1   0.0000
    62 H28      7.0156   8.0819   9.4785   H         1 RES1   0.0000
    63 H29      7.1056   8.6946  10.9548   H         1 RES1   0.0000
    64 C24     11.8094   9.1161  11.5257   C.3       1 RES1   0.0000
    65 H30     12.6427   8.9832  12.0439   H         1 RES1   0.0000
    66 H31     11.2713   9.8016  11.9962   H         1 RES1   0.0000
    67 C25     12.1786   9.6548  10.1524   C.3       1 RES1   0.0000
    68 H32     12.8720   9.0779   9.7437   H         1 RES1   0.0000
    69 H33     11.3827   9.6417   9.5651   H         1 RES1   0.0000
    70 C26     12.7003  11.0714  10.2705   C.3       1 RES1   0.0000
    71 H34     13.0584  11.3599   9.4042   H         1 RES1   0.0000
    72 H35     13.4098  11.1024  10.9442   H         1 RES1   0.0000
    73 H36     11.9698  11.6678  10.5358   H         1 RES1   0.0000
    74 Se1C    13.4511  -3.2011  14.4159   Se        1 RES1   0.0000
    75 N1C     12.0716  -0.6892  13.7437   N.2       1 RES1   0.0000
    76 C1C     12.6110  -1.6782  13.9878   C.1       1 RES1   0.0000
    77 N2C     10.0057   0.9773  15.2676   N.ar      1 RES1   0.0000
    78 C2C     13.4392   2.1524  13.5048   C.ar      1 RES1   0.0000
    79 H1C     13.6305   1.4829  12.8590   H         1 RES1   0.0000
    80 N3C     12.1717   2.2757  13.9440   N.ar      1 RES1   0.0000
    81 C3C     14.4665   2.9486  13.9467   C.ar      1 RES1   0.0000
    82 H2C     15.3448   2.8385  13.6015   H         1 RES1   0.0000
    83 N4C     10.5916   3.2652  15.3636   N.pl3     1 RES1   0.0000
    84 C4C     14.2037   3.9097  14.8964   C.ar      1 RES1   0.0000
    85 H3C     14.8970   4.4768  15.2122   H         1 RES1   0.0000
    86 N5C      8.5619   4.3104  15.5664   N.ar      1 RES1   0.0000
    87 C5C     12.9202   4.0383  15.3816   C.ar      1 RES1   0.0000
    88 H4C     12.7177   4.6825  16.0503   H         1 RES1   0.0000
    89 N6C     10.5331   5.5789  15.1694   N.ar      1 RES1   0.0000
    90 C6C     11.9278   3.2077  14.8756   C.ar      1 RES1   0.0000
    91 N7C      8.4113   6.6866  15.3434   N.ar      1 RES1   0.0000
    92 C7C     10.0244   2.1105  15.9753   C.ar      1 RES1   0.0000
    93 N8C      6.5440   5.3770  15.7318   N.pl3     1 RES1   0.0000
    94 C8C      9.5450   2.1830  17.2792   C.ar      1 RES1   0.0000
    95 H5C      9.5913   2.9983  17.7635   H         1 RES1   0.0000
    96 N9C     10.3653   7.8642  14.9956   N.pl3     1 RES1   0.0000
    97 C9C      9.0042   1.0607  17.8581   C.ar      1 RES1   0.0000
    98 H6C      8.6506   1.0937  18.7395   H         1 RES1   0.0000
    99 C10C     8.9849  -0.1184  17.1344   C.ar      1 RES1   0.0000
   100 H7C      8.6163  -0.9102  17.5089   H         1 RES1   0.0000
   101 C11C     9.5073  -0.1246  15.8664   C.ar      1 RES1   0.0000
   102 H8C      9.5185  -0.9442  15.3855   H         1 RES1   0.0000
   103 C12C     9.8602   4.4629  15.3708   C.ar      1 RES1   0.0000
   104 C13C     9.7482   6.6838  15.1740   C.ar      1 RES1   0.0000
   105 C14C     7.8790   5.4734  15.5412   C.ar      1 RES1   0.0000
   106 C15C     5.6856   6.5472  15.8512   C.3       1 RES1   0.0000
   107 H9C      6.2506   7.3508  15.9742   H         1 RES1   0.0000
   108 H10C     5.1192   6.4495  16.6585   H         1 RES1   0.0000
   109 C16C     4.7882   6.7559  14.6397   C.3       1 RES1   0.0000
   110 H11C     4.2599   5.9316  14.4873   H         1 RES1   0.0000
   111 H12C     4.1528   7.4884  14.8339   H         1 RES1   0.0000
   112 C17C     5.5465   7.0889  13.3812   C.3       1 RES1   0.0000
   113 H13C     6.2078   6.3889  13.2037   H         1 RES1   0.0000
   114 H14C     6.0021   7.9487  13.4937   H         1 RES1   0.0000
   115 H15C     4.9221   7.1466  12.6291   H         1 RES1   0.0000
   116 C18C     5.9451   4.0713  16.0144   C.3       1 RES1   0.0000
   117 H16C     6.3921   3.3861  15.4580   H         1 RES1   0.0000
   118 H17C     4.9885   4.0935  15.7568   H         1 RES1   0.0000
   119 C19C     6.0522   3.6640  17.4794   C.3       1 RES1   0.0000
   120 H18C     6.9921   3.7501  17.7776   H         1 RES1   0.0000
   121 H19C     5.4985   4.2711  18.0322   H         1 RES1   0.0000
   122 C20C     5.5872   2.2311  17.6820   C.3       1 RES1   0.0000
   123 H20C     5.7364   1.9683  18.6139   H         1 RES1   0.0000
   124 H21C     6.0942   1.6368  17.0899   H         1 RES1   0.0000
   125 H22C     4.6328   2.1651  17.4718   H         1 RES1   0.0000
   126 C21C    11.8286   7.9348  14.9217   C.3       1 RES1   0.0000
   127 H23C    12.0834   8.7153  14.3689   H         1 RES1   0.0000
   128 H24C    12.1670   7.1214  14.4696   H         1 RES1   0.0000
   129 C22C    12.4948   8.0553  16.2805   C.3       1 RES1   0.0000
   130 H25C    12.2420   8.9181  16.6956   H         1 RES1   0.0000
   131 H26C    12.1756   7.3271  16.8689   H         1 RES1   0.0000
   132 C23C    14.0060   7.9783  16.1560   C.3       1 RES1   0.0000
   133 H27C    14.2584   7.1096  15.7798   H         1 RES1   0.0000
   134 H28C    14.4127   8.0819  17.0421   H         1 RES1   0.0000
   135 H29C    14.3227   8.6946  15.5658   H         1 RES1   0.0000
   136 C24C     9.6189   9.1161  14.9949   C.3       1 RES1   0.0000
   137 H30C     8.7856   8.9832  14.4767   H         1 RES1   0.0000
   138 H31C    10.1570   9.8016  14.5244   H         1 RES1   0.0000
   139 C25C     9.2497   9.6548  16.3682   C.3       1 RES1   0.0000
   140 H32C     8.5563   9.0779  16.7769   H         1 RES1   0.0000
   141 H33C    10.0456   9.6417  16.9555   H         1 RES1   0.0000
   142 C26C     8.7280  11.0714  16.2501   C.3       1 RES1   0.0000
   143 H34C     8.3699  11.3599  17.1164   H         1 RES1   0.0000
   144 H35C     8.0185  11.1024  15.5764   H         1 RES1   0.0000
   145 H36C     9.4585  11.6678  15.9848   H         1 RES1   0.0000
@<TRIPOS>BOND
     1     1     4    2
     2     2     3    1
     3     3     4    2
     4     5     2    1
     5     6     7    1
     6     8     2    1
     7     9     6   ar
     8    10     9    1
     9    11    18    1
    10    12     9   ar
    11    13    12    1
    12    14    31   ar
    13    15    12   ar
    14    16    15    1
    15    17    31   ar
    16    18     8   ar
    17    19    32   ar
    18    20     5   ar
    19    21    33    1
    20    22    20   ar
    21    23    22    1
    22    24    32    1
    23    25    22   ar
    24    26    25    1
    25    27    25   ar
    26    28    27    1
    27    29     5   ar
    28    30    29    1
    29    31    11    1
    30    32    17   ar
    31    33    14   ar
    32    34    21    1
    33    35    34    1
    34    36    34    1
    35    37    34    1
    36    38    37    1
    37    39    37    1
    38    40    37    1
    39    41    40    1
    40    42    40    1
    41    43    40    1
    42    44    21    1
    43    45    44    1
    44    46    44    1
    45    47    44    1
    46    48    47    1
    47    49    47    1
    48    50    47    1
    49    51    50    1
    50    52    50    1
    51    53    50    1
    52    54    24    1
    53    55    54    1
    54    56    54    1
    55    57    54    1
    56    58    57    1
    57    59    57    1
    58    60    57    1
    59    61    60    1
    60    62    60    1
    61    63    60    1
    62    64    24    1
    63    65    64    1
    64    66    64    1
    65    67    64    1
    66    68    67    1
    67    69    67    1
    68    70    67    1
    69    71    70    1
    70    72    70    1
    71    73    70    1
    72    74    76    2
    73    75     2    1
    74    76    75    2
    75    77     2    1
    76    78    79    1
    77    80     2    1
    78    81    78   ar
    79    82    81    1
    80    83    90    1
    81    84    81   ar
    82    85    84    1
    83    86   103   ar
    84    87    84   ar
    85    88    87    1
    86    89   103   ar
    87    90    80   ar
    88    91   104   ar
    89    92    77   ar
    90    93   105    1
    91    94    92   ar
    92    95    94    1
    93    96   104    1
    94    97    94   ar
    95    98    97    1
    96    99    97   ar
    97   100    99    1
    98   101    77   ar
    99   102   101    1
   100   103    83    1
   101   104    89   ar
   102   105    86   ar
   103   106    93    1
   104   107   106    1
   105   108   106    1
   106   109   106    1
   107   110   109    1
   108   111   109    1
   109   112   109    1
   110   113   112    1
   111   114   112    1
   112   115   112    1
   113   116    93    1
   114   117   116    1
   115   118   116    1
   116   119   116    1
   117   120   119    1
   118   121   119    1
   119   122   119    1
   120   123   122    1
   121   124   122    1
   122   125   122    1
   123   126    96    1
   124   127   126    1
   125   128   126    1
   126   129   126    1
   127   130   129    1
   128   131   129    1
   129   132   129    1
   130   133   132    1
   131   134   132    1
   132   135   132    1
   133   136    96    1
   134   137   136    1
   135   138   136    1
   136   139   136    1
   137   140   139    1
   138   141   139    1
   139   142   139    1
   140   143   142    1
   141   144   142    1
   142   145   142    1
   143     6     8   ar
   144    11    20    1
   145    15    18   ar
   146    19    33   ar
   147    27    29   ar
   148    78    80   ar
   149    83    92    1
   150    87    90   ar
   151    91   105   ar
   152    99   101   ar
@<TRIPOS>SUBSTRUCTURE
     1 RES1        1 GROUP             0 ****  ****    0  
@<TRIPOS>CRYSIN
   21.4283   14.7993   17.6804   90.0000   90.0000   90.0000    60     1
