@<TRIPOS>MOLECULE
IHITIE
   145   152     1     0     0
SMALL
NO_CHARGES
****
Generated from the CSD

@<TRIPOS>ATOM
     1 Fe1     10.7706   8.0882   4.3918   Fe        1 RES1   0.0000
     2 S1       8.0874   4.1775   3.2750   S.2       1 RES1   0.0000
     3 N1       9.3788   6.5683   3.9215   N.2       1 RES1   0.0000
     4 C1       8.8455   5.5664   3.6675   C.1       1 RES1   0.0000
     5 N2       9.2933   9.5914   3.6748   N.ar      1 RES1   0.0000
     6 C2       8.0215   9.4651   4.1051   C.ar      1 RES1   0.0000
     7 H1       7.8281   8.7889   4.7431   H         1 RES1   0.0000
     8 N3      11.5110   8.3107   2.3505   N.ar      1 RES1   0.0000
     9 C3       6.9934  10.2630   3.6685   C.ar      1 RES1   0.0000
    10 H2       6.1112  10.1452   4.0018   H         1 RES1   0.0000
    11 N4      10.8839  10.5878   2.2788   N.pl3     1 RES1   0.0000
    12 C4       7.2708  11.2396   2.7338   C.ar      1 RES1   0.0000
    13 H3       6.5808  11.8138   2.4207   H         1 RES1   0.0000
    14 N5      10.9556  12.9074   2.4873   N.ar      1 RES1   0.0000
    15 C5       8.5592  11.3730   2.2579   C.ar      1 RES1   0.0000
    16 H4       8.7694  12.0288   1.6039   H         1 RES1   0.0000
    17 N6      12.9213  11.6214   2.0933   N.ar      1 RES1   0.0000
    18 C6       9.5430  10.5284   2.7547   C.ar      1 RES1   0.0000
    19 N7      13.0891  13.9992   2.3396   N.ar      1 RES1   0.0000
    20 C7      11.4571   9.4453   1.6478   C.ar      1 RES1   0.0000
    21 N8      11.1428  15.1912   2.6732   N.pl3     1 RES1   0.0000
    22 C8      11.9136   9.5364   0.3399   C.ar      1 RES1   0.0000
    23 H5      11.8434  10.3543  -0.1388   H         1 RES1   0.0000
    24 N9      14.9509  12.6695   1.9466   N.pl3     1 RES1   0.0000
    25 C9      12.4696   8.4243  -0.2526   C.ar      1 RES1   0.0000
    26 H6      12.8062   8.4679  -1.1401   H         1 RES1   0.0000
    27 C10     12.5292   7.2416   0.4664   C.ar      1 RES1   0.0000
    28 H7      12.9053   6.4591   0.0826   H         1 RES1   0.0000
    29 C11     12.0314   7.2233   1.7477   C.ar      1 RES1   0.0000
    30 H8      12.0566   6.4061   2.2310   H         1 RES1   0.0000
    31 C12     11.6208  11.7825   2.2863   C.ar      1 RES1   0.0000
    32 C13     11.7555  14.0029   2.5001   C.ar      1 RES1   0.0000
    33 C14     13.6160  12.7813   2.1346   C.ar      1 RES1   0.0000
    34 C15     11.9125  16.4326   2.6879   C.3       1 RES1   0.0000
    35 H9      12.7395  16.2833   3.2130   H         1 RES1   0.0000
    36 H10     11.3824  17.1257   3.1568   H         1 RES1   0.0000
    37 C16     12.3009  16.9660   1.3151   C.3       1 RES1   0.0000
    38 H11     12.9915  16.3820   0.9135   H         1 RES1   0.0000
    39 H12     11.5095  16.9622   0.7202   H         1 RES1   0.0000
    40 C17     12.8386  18.3794   1.4407   C.3       1 RES1   0.0000
    41 H13     12.1105  18.9857   1.6882   H         1 RES1   0.0000
    42 H14     13.2220  18.6602   0.5832   H         1 RES1   0.0000
    43 H15     13.5322  18.4040   2.1326   H         1 RES1   0.0000
    44 C18      9.6858  15.2785   2.7359   C.3       1 RES1   0.0000
    45 H16      9.4350  16.0683   3.2780   H         1 RES1   0.0000
    46 H17      9.3360  14.4749   3.1972   H         1 RES1   0.0000
    47 C19      9.0221  15.3898   1.3695   C.3       1 RES1   0.0000
    48 H18      9.2778  16.2480   0.9486   H         1 RES1   0.0000
    49 H19      9.3424  14.6560   0.7870   H         1 RES1   0.0000
    50 C20      7.5123  15.3181   1.4886   C.3       1 RES1   0.0000
    51 H20      7.2551  14.4557   1.8762   H         1 RES1   0.0000
    52 H21      7.1086  15.4085   0.5990   H         1 RES1   0.0000
    53 H22      7.1948  16.0433   2.0659   H         1 RES1   0.0000
    54 C21     15.5282  11.3625   1.6436   C.3       1 RES1   0.0000
    55 H23     15.0767  10.6769   2.1959   H         1 RES1   0.0000
    56 H24     16.4855  11.3690   1.8955   H         1 RES1   0.0000
    57 C22     15.4065  10.9715   0.1750   C.3       1 RES1   0.0000
    58 H25     14.4628  11.0598  -0.1124   H         1 RES1   0.0000
    59 H26     15.9534  11.5870  -0.3759   H         1 RES1   0.0000
    60 C23     15.8720   9.5438  -0.0513   C.3       1 RES1   0.0000
    61 H27     16.8280   9.4766   0.1511   H         1 RES1   0.0000
    62 H28     15.7186   9.2940  -0.9873   H         1 RES1   0.0000
    63 H29     15.3696   8.9391   0.5340   H         1 RES1   0.0000
    64 C24     15.8229  13.8335   1.8394   C.3       1 RES1   0.0000
    65 H30     15.2641  14.6442   1.7391   H         1 RES1   0.0000
    66 H31     16.3778  13.7459   1.0242   H         1 RES1   0.0000
    67 C25     16.7362  14.0102   3.0401   C.3       1 RES1   0.0000
    68 H32     17.3859  14.7341   2.8494   H         1 RES1   0.0000
    69 H33     17.2480  13.1745   3.1831   H         1 RES1   0.0000
    70 C26     15.9737  14.3494   4.3088   C.3       1 RES1   0.0000
    71 H34     15.5140  15.2083   4.1950   H         1 RES1   0.0000
    72 H35     16.5996  14.4115   5.0593   H         1 RES1   0.0000
    73 H36     15.3136  13.6487   4.4901   H         1 RES1   0.0000
    74 S1C     13.4538   4.1775   5.5085   S.2       1 RES1   0.0000
    75 N1C     12.1624   6.5683   4.8620   N.2       1 RES1   0.0000
    76 C1C     12.6957   5.5664   5.1160   C.1       1 RES1   0.0000
    77 N2C     12.2479   9.5914   5.1087   N.ar      1 RES1   0.0000
    78 C2C     13.5197   9.4651   4.6784   C.ar      1 RES1   0.0000
    79 H1C     13.7131   8.7889   4.0404   H         1 RES1   0.0000
    80 N3C     10.0302   8.3107   6.4330   N.ar      1 RES1   0.0000
    81 C3C     14.5478  10.2630   5.1150   C.ar      1 RES1   0.0000
    82 H2C     15.4300  10.1452   4.7817   H         1 RES1   0.0000
    83 N4C     10.6573  10.5878   6.5047   N.pl3     1 RES1   0.0000
    84 C4C     14.2704  11.2396   6.0497   C.ar      1 RES1   0.0000
    85 H3C     14.9604  11.8138   6.3628   H         1 RES1   0.0000
    86 N5C     10.5856  12.9074   6.2962   N.ar      1 RES1   0.0000
    87 C5C     12.9820  11.3730   6.5256   C.ar      1 RES1   0.0000
    88 H4C     12.7718  12.0288   7.1796   H         1 RES1   0.0000
    89 N6C      8.6199  11.6214   6.6902   N.ar      1 RES1   0.0000
    90 C6C     11.9982  10.5284   6.0288   C.ar      1 RES1   0.0000
    91 N7C      8.4521  13.9992   6.4439   N.ar      1 RES1   0.0000
    92 C7C     10.0841   9.4453   7.1357   C.ar      1 RES1   0.0000
    93 N8C     10.3984  15.1912   6.1103   N.pl3     1 RES1   0.0000
    94 C8C      9.6276   9.5364   8.4436   C.ar      1 RES1   0.0000
    95 H5C      9.6978  10.3543   8.9223   H         1 RES1   0.0000
    96 N9C      6.5903  12.6695   6.8369   N.pl3     1 RES1   0.0000
    97 C9C      9.0716   8.4243   9.0361   C.ar      1 RES1   0.0000
    98 H6C      8.7350   8.4679   9.9236   H         1 RES1   0.0000
    99 C10C     9.0120   7.2416   8.3171   C.ar      1 RES1   0.0000
   100 H7C      8.6359   6.4591   8.7009   H         1 RES1   0.0000
   101 C11C     9.5098   7.2233   7.0358   C.ar      1 RES1   0.0000
   102 H8C      9.4846   6.4061   6.5525   H         1 RES1   0.0000
   103 C12C     9.9204  11.7825   6.4972   C.ar      1 RES1   0.0000
   104 C13C     9.7857  14.0029   6.2834   C.ar      1 RES1   0.0000
   105 C14C     7.9252  12.7813   6.6489   C.ar      1 RES1   0.0000
   106 C15C     9.6287  16.4326   6.0956   C.3       1 RES1   0.0000
   107 H9C      8.8017  16.2833   5.5705   H         1 RES1   0.0000
   108 H10C    10.1588  17.1257   5.6267   H         1 RES1   0.0000
   109 C16C     9.2403  16.9660   7.4684   C.3       1 RES1   0.0000
   110 H11C     8.5497  16.3820   7.8700   H         1 RES1   0.0000
   111 H12C    10.0317  16.9622   8.0633   H         1 RES1   0.0000
   112 C17C     8.7026  18.3794   7.3428   C.3       1 RES1   0.0000
   113 H13C     9.4307  18.9857   7.0953   H         1 RES1   0.0000
   114 H14C     8.3192  18.6602   8.2003   H         1 RES1   0.0000
   115 H15C     8.0090  18.4040   6.6509   H         1 RES1   0.0000
   116 C18C    11.8554  15.2785   6.0476   C.3       1 RES1   0.0000
   117 H16C    12.1062  16.0683   5.5055   H         1 RES1   0.0000
   118 H17C    12.2052  14.4749   5.5863   H         1 RES1   0.0000
   119 C19C    12.5191  15.3898   7.4140   C.3       1 RES1   0.0000
   120 H18C    12.2634  16.2480   7.8349   H         1 RES1   0.0000
   121 H19C    12.1988  14.6560   7.9965   H         1 RES1   0.0000
   122 C20C    14.0289  15.3181   7.2949   C.3       1 RES1   0.0000
   123 H20C    14.2861  14.4557   6.9073   H         1 RES1   0.0000
   124 H21C    14.4326  15.4085   8.1845   H         1 RES1   0.0000
   125 H22C    14.3464  16.0433   6.7176   H         1 RES1   0.0000
   126 C21C     6.0130  11.3625   7.1399   C.3       1 RES1   0.0000
   127 H23C     6.4645  10.6769   6.5876   H         1 RES1   0.0000
   128 H24C     5.0557  11.3690   6.8880   H         1 RES1   0.0000
   129 C22C     6.1347  10.9715   8.6085   C.3       1 RES1   0.0000
   130 H25C     7.0784  11.0598   8.8959   H         1 RES1   0.0000
   131 H26C     5.5878  11.5870   9.1594   H         1 RES1   0.0000
   132 C23C     5.6692   9.5438   8.8348   C.3       1 RES1   0.0000
   133 H27C     4.7132   9.4766   8.6324   H         1 RES1   0.0000
   134 H28C     5.8226   9.2940   9.7708   H         1 RES1   0.0000
   135 H29C     6.1716   8.9391   8.2495   H         1 RES1   0.0000
   136 C24C     5.7183  13.8335   6.9441   C.3       1 RES1   0.0000
   137 H30C     6.2771  14.6442   7.0444   H         1 RES1   0.0000
   138 H31C     5.1634  13.7459   7.7593   H         1 RES1   0.0000
   139 C25C     4.8050  14.0102   5.7434   C.3       1 RES1   0.0000
   140 H32C     4.1553  14.7341   5.9341   H         1 RES1   0.0000
   141 H33C     4.2932  13.1745   5.6004   H         1 RES1   0.0000
   142 C26C     5.5675  14.3494   4.4747   C.3       1 RES1   0.0000
   143 H34C     6.0272  15.2083   4.5885   H         1 RES1   0.0000
   144 H35C     4.9416  14.4115   3.7242   H         1 RES1   0.0000
   145 H36C     6.2276  13.6487   4.2934   H         1 RES1   0.0000
@<TRIPOS>BOND
     1     1     3    1
     2     2     4    2
     3     3     4    2
     4     5     1    1
     5     6     5   ar
     6     7     6    1
     7     8     1    1
     8     9     6   ar
     9    10     9    1
    10    11    18    1
    11    12     9   ar
    12    13    12    1
    13    14    31   ar
    14    15    12   ar
    15    16    15    1
    16    17    31   ar
    17    18     5   ar
    18    19    32   ar
    19    20     8   ar
    20    21    32    1
    21    22    20   ar
    22    23    22    1
    23    24    33    1
    24    25    22   ar
    25    26    25    1
    26    27    25   ar
    27    28    27    1
    28    29     8   ar
    29    30    29    1
    30    31    11    1
    31    32    14   ar
    32    33    17   ar
    33    34    21    1
    34    35    34    1
    35    36    34    1
    36    37    34    1
    37    38    37    1
    38    39    37    1
    39    40    37    1
    40    41    40    1
    41    42    40    1
    42    43    40    1
    43    44    21    1
    44    45    44    1
    45    46    44    1
    46    47    44    1
    47    48    47    1
    48    49    47    1
    49    50    47    1
    50    51    50    1
    51    52    50    1
    52    53    50    1
    53    54    24    1
    54    55    54    1
    55    56    54    1
    56    57    54    1
    57    58    57    1
    58    59    57    1
    59    60    57    1
    60    61    60    1
    61    62    60    1
    62    63    60    1
    63    64    24    1
    64    65    64    1
    65    66    64    1
    66    67    64    1
    67    68    67    1
    68    69    67    1
    69    70    67    1
    70    71    70    1
    71    72    70    1
    72    73    70    1
    73    74    76    2
    74    75     1    1
    75    76    75    2
    76    77     1    1
    77    78    77   ar
    78    79    78    1
    79    80     1    1
    80    81    78   ar
    81    82    81    1
    82    83    90    1
    83    84    81   ar
    84    85    84    1
    85    86   103   ar
    86    87    84   ar
    87    88    87    1
    88    89   103   ar
    89    90    77   ar
    90    91   104   ar
    91    92    80   ar
    92    93   104    1
    93    94    92   ar
    94    95    94    1
    95    96   105    1
    96    97    94   ar
    97    98    97    1
    98    99    97   ar
    99   100    99    1
   100   101    80   ar
   101   102   101    1
   102   103    83    1
   103   104    86   ar
   104   105    89   ar
   105   106    93    1
   106   107   106    1
   107   108   106    1
   108   109   106    1
   109   110   109    1
   110   111   109    1
   111   112   109    1
   112   113   112    1
   113   114   112    1
   114   115   112    1
   115   116    93    1
   116   117   116    1
   117   118   116    1
   118   119   116    1
   119   120   119    1
   120   121   119    1
   121   122   119    1
   122   123   122    1
   123   124   122    1
   124   125   122    1
   125   126    96    1
   126   127   126    1
   127   128   126    1
   128   129   126    1
   129   130   129    1
   130   131   129    1
   131   132   129    1
   132   133   132    1
   133   134   132    1
   134   135   132    1
   135   136    96    1
   136   137   136    1
   137   138   136    1
   138   139   136    1
   139   140   139    1
   140   141   139    1
   141   142   139    1
   142   143   142    1
   143   144   142    1
   144   145   142    1
   145    11    20    1
   146    15    18   ar
   147    19    33   ar
   148    27    29   ar
   149    83    92    1
   150    87    90   ar
   151    91   105   ar
   152    99   101   ar
@<TRIPOS>SUBSTRUCTURE
     1 RES1        1 GROUP             0 ****  ****    0  
@<TRIPOS>CRYSIN
   21.5412   14.7267   17.5670   90.0000   90.0000   90.0000    60     1
