@<TRIPOS>MOLECULE
IJEBAC
   131   137     3     0     0
SMALL
USER_CHARGES
****
Generated from the CSD

@<TRIPOS>ATOM
     1 Fe1      6.3669  11.0277   7.1461   Fe        1 RES1   2.0000
     2 N1       4.6051  11.9265   8.2637   N.2       1 RES1   0.0000
     3 C1       3.4572  10.0661   9.3690   C.ar      1 RES1   0.0000
     4 N2       5.7569  12.7017   5.9595   N.2       1 RES1   0.0000
     5 C2       4.1232  12.9664   7.6877   C.2       1 RES1   0.0000
     6 H1       3.3993  13.4329   8.0371   H         1 RES1   0.0000
     7 C3       4.7669  13.3667   6.4723   C.2       1 RES1   0.0000
     8 N3       4.5141  14.5036   5.7226   N.pl3     1 RES1   0.0000
     9 C4       2.9905  12.3742  10.1655   C.3       1 RES1   0.0000
    10 H2       3.3763  13.2388  10.3251   H         1 RES1   0.0000
    11 H3       2.6874  12.0015  10.9972   H         1 RES1   0.0000
    12 H4       2.2481  12.4602   9.5634   H         1 RES1   0.0000
    13 C5       4.0347  11.4589   9.5544   C.3       1 RES1   0.0000
    14 H5       4.7745  11.3883  10.1935   H         1 RES1   0.0000
    15 C6       6.1478  13.3876   4.8167   C.2       1 RES1   0.0000
    16 H6       6.8106  13.1153   4.2230   H         1 RES1   0.0000
    17 C7       3.5578  15.5822   5.9705   C.3       1 RES1   0.0000
    18 H7       4.0474  16.3618   6.2757   H         1 RES1   0.0000
    19 H8       2.9657  15.3087   6.6874   H         1 RES1   0.0000
    20 C8       2.3201   7.5672   9.1657   C.ar      1 RES1   0.0000
    21 H9       1.9011   6.7379   9.1125   H         1 RES1   0.0000
    22 C9       3.1210   7.8495  10.2467   C.ar      1 RES1   0.0000
    23 H10      3.2955   7.2077  10.8964   H         1 RES1   0.0000
    24 C10      5.4207  14.4970   4.7103   C.2       1 RES1   0.0000
    25 H11      5.5162  15.1521   4.0578   H         1 RES1   0.0000
    26 C11      3.6552   9.1144  10.3363   C.ar      1 RES1   0.0000
    27 H12      4.1684   9.3327  11.0784   H         1 RES1   0.0000
    28 C12      2.6862   9.7342   8.2696   C.ar      1 RES1   0.0000
    29 H13      2.5448  10.3583   7.5947   H         1 RES1   0.0000
    30 C13      2.7339  15.9725   4.8055   C.3       1 RES1   0.0000
    31 H14      2.2036  15.2083   4.5282   H         1 RES1   0.0000
    32 H15      3.3241  16.2008   4.0690   H         1 RES1   0.0000
    33 C14      2.1291   8.4759   8.1744   C.ar      1 RES1   0.0000
    34 H16      1.6204   8.2498   7.4295   H         1 RES1   0.0000
    35 C15      1.8216  17.1205   5.0575   C.3       1 RES1   0.0000
    36 H17      2.3373  17.8925   5.3376   H         1 RES1   0.0000
    37 H18      1.2027  16.8956   5.7716   H         1 RES1   0.0000
    38 C16      1.0372  17.4602   3.7861   C.3       1 RES1   0.0000
    39 H19      1.6503  17.6465   3.0720   H         1 RES1   0.0000
    40 H20      0.4871  18.2321   3.9458   H         1 RES1   0.0000
    41 H21      0.4807  16.7169   3.5453   H         1 RES1   0.0000
    42 N1A      6.4694   9.0526   8.2637   N.2       1 RES1   0.0000
    43 C1A      8.6545   8.9887   9.3690   C.ar      1 RES1   0.0000
    44 N2A      5.2221   9.6625   5.9595   N.2       1 RES1   0.0000
    45 C2A      5.8098   8.1153   7.6877   C.2       1 RES1   0.0000
    46 H1A      5.7677   7.2551   8.0371   H         1 RES1   0.0000
    47 C3A      5.1412   8.4726   6.4723   C.2       1 RES1   0.0000
    48 N3A      4.2830   7.6852   5.7226   N.pl3     1 RES1   0.0000
    49 C4A      6.8889   7.4305  10.1655   C.3       1 RES1   0.0000
    50 H2A      5.9473   7.3323  10.3251   H         1 RES1   0.0000
    51 H3A      7.3633   7.3544  10.9972   H         1 RES1   0.0000
    52 H4A      7.1856   6.7445   9.5634   H         1 RES1   0.0000
    53 C5A      7.1595   8.7924   9.5544   C.3       1 RES1   0.0000
    54 H5A      6.8507   9.4684  10.1935   H         1 RES1   0.0000
    55 C6A      4.4326   9.6581   4.8167   C.2       1 RES1   0.0000
    56 H6A      4.3371  10.3683   4.2230   H         1 RES1   0.0000
    57 C7A      3.8271   6.3178   5.9705   C.3       1 RES1   0.0000
    58 H7A      2.9071   6.3520   6.2757   H         1 RES1   0.0000
    59 H8A      4.3600   5.9417   6.6874   H         1 RES1   0.0000
    60 C8A     11.3871   9.2533   9.1657   C.ar      1 RES1   0.0000
    61 H9A     12.3148   9.3052   9.1125   H         1 RES1   0.0000
    62 C9A     10.7421   9.8058  10.2467   C.ar      1 RES1   0.0000
    63 H10A    11.2107  10.2778  10.8964   H         1 RES1   0.0000
    64 C10A     3.8354   8.4737   4.7103   C.2       1 RES1   0.0000
    65 H11A     3.2204   8.2289   4.0578   H         1 RES1   0.0000
    66 C11A     9.3796   9.6360  10.3363   C.ar      1 RES1   0.0000
    67 H12A     8.9340   9.9713  11.0784   H         1 RES1   0.0000
    68 C12A     9.3274   8.4869   8.2696   C.ar      1 RES1   0.0000
    69 H13A     8.8576   8.0524   7.5947   H         1 RES1   0.0000
    70 C13A     3.9010   5.4091   4.8055   C.3       1 RES1   0.0000
    71 H14A     4.8280   5.3319   4.5282   H         1 RES1   0.0000
    72 H15A     3.4082   5.8061   4.0690   H         1 RES1   0.0000
    73 C14A    10.6957   8.6336   8.1744   C.ar      1 RES1   0.0000
    74 H16A    11.1458   8.3061   7.4295   H         1 RES1   0.0000
    75 C15A     3.3630   4.0450   5.0575   C.3       1 RES1   0.0000
    76 H17A     2.4366   4.1056   5.3376   H         1 RES1   0.0000
    77 H18A     3.8672   3.6215   5.7716   H         1 RES1   0.0000
    78 C16A     3.4610   3.1958   3.7861   C.3       1 RES1   0.0000
    79 H19A     2.9931   3.6336   3.0720   H         1 RES1   0.0000
    80 H20A     3.0675   2.3335   3.9458   H         1 RES1   0.0000
    81 H21A     4.3829   3.0856   3.5453   H         1 RES1   0.0000
    82 N1B      8.0261  12.1040   8.2637   N.2       1 RES1   0.0000
    83 C1B      6.9889  14.0283   9.3690   C.ar      1 RES1   0.0000
    84 N2B      8.1216  10.7189   5.9595   N.2       1 RES1   0.0000
    85 C2B      9.1676  12.0015   7.6877   C.2       1 RES1   0.0000
    86 H1B      9.9336  12.3951   8.0371   H         1 RES1   0.0000
    87 C3B      9.1925  11.2439   6.4723   C.2       1 RES1   0.0000
    88 N3B     10.3035  10.8943   5.7226   N.pl3     1 RES1   0.0000
    89 C4B      9.2211  13.2785  10.1655   C.3       1 RES1   0.0000
    90 H2B      9.7769  12.5120  10.3251   H         1 RES1   0.0000
    91 H3B      9.0498  13.7273  10.9972   H         1 RES1   0.0000
    92 H4B      9.6668  13.8784   9.5634   H         1 RES1   0.0000
    93 C5B      7.9064  12.8318   9.5544   C.3       1 RES1   0.0000
    94 H5B      7.4753  12.2264  10.1935   H         1 RES1   0.0000
    95 C6B      8.5201  10.0374   4.8167   C.2       1 RES1   0.0000
    96 H6B      7.9528   9.5996   4.2230   H         1 RES1   0.0000
    97 C7B     11.7156  11.1832   5.9705   C.3       1 RES1   0.0000
    98 H7B     12.1460  10.3694   6.2757   H         1 RES1   0.0000
    99 H8B     11.7749  11.8327   6.6874   H         1 RES1   0.0000
   100 C8B      5.3934  16.2626   9.1657   C.ar      1 RES1   0.0000
   101 H9B      4.8846  17.0400   9.1125   H         1 RES1   0.0000
   102 C9B      5.2374  15.4278  10.2467   C.ar      1 RES1   0.0000
   103 H10B     4.5943  15.5976  10.8964   H         1 RES1   0.0000
   104 C10B     9.8444  10.1124   4.7103   C.2       1 RES1   0.0000
   105 H11B    10.3640   9.7022   4.0578   H         1 RES1   0.0000
   106 C11B     6.0657  14.3327  10.3363   C.ar      1 RES1   0.0000
   107 H12B     5.9982  13.7791  11.0784   H         1 RES1   0.0000
   108 C12B     7.0869  14.8620   8.2696   C.ar      1 RES1   0.0000
   109 H13B     7.6982  14.6724   7.5947   H         1 RES1   0.0000
   110 C13B    12.4657  11.7015   4.8055   C.3       1 RES1   0.0000
   111 H14B    12.0690  12.5429   4.5282   H         1 RES1   0.0000
   112 H15B    12.3682  11.0762   4.0690   H         1 RES1   0.0000
   113 C14B     6.2758  15.9736   8.1744   C.ar      1 RES1   0.0000
   114 H16B     6.3344  16.5272   7.4295   H         1 RES1   0.0000
   115 C15B    13.9160  11.9176   5.0575   C.3       1 RES1   0.0000
   116 H17B    14.3267  11.0851   5.3376   H         1 RES1   0.0000
   117 H18B    14.0306  12.5661   5.7716   H         1 RES1   0.0000
   118 C16B    14.6024  12.4271   3.7861   C.3       1 RES1   0.0000
   119 H19B    14.4572  11.8030   3.0720   H         1 RES1   0.0000
   120 H20B    15.5459  12.5176   3.9458   H         1 RES1   0.0000
   121 H21B    14.2369  13.2807   3.5453   H         1 RES1   0.0000
   122 Cl1     -0.0006   7.3522   4.0746   Cl        2 RES2   0.0000
   123 O1      -0.0006   7.3522   5.3824   O.2       2 RES2   0.0000
   124 O2      -1.2454   7.2937   3.6125   O.2       2 RES2   0.0000
   125 O2A      0.6730   6.3023   3.6125   O.3       2 RES2  -1.0000
   126 O2B      0.5724   8.4594   3.6125   O.2       2 RES2   0.0000
   127 Cl2      6.3675   3.6755   8.3396   Cl        3 RES3   0.0000
   128 O3       5.4774   4.6151   8.5160   O.2       3 RES3   0.0000
   129 O4       6.3675   3.6755   6.7714   O.3       3 RES3  -1.0000
   130 O3A      5.9982   2.4360   8.5160   O.2       3 RES3   0.0000
   131 O3B      7.6249   3.9766   8.5160   O.2       3 RES3   0.0000
@<TRIPOS>BOND
     1     1     2    1
     2     2     5    2
     3     3    13    1
     4     4     1    1
     5     5     6    1
     6     7     4    2
     7     8     7    1
     8     9    10    1
     9    11     9    1
    10    12     9    1
    11    13     2    1
    12    14    13    1
    13    15     4    1
    14    16    15    1
    15    17     8    1
    16    18    17    1
    17    19    17    1
    18    20    21    1
    19    22    20   ar
    20    23    22    1
    21    24     8    1
    22    25    24    1
    23    26     3   ar
    24    27    26    1
    25    28     3   ar
    26    29    28    1
    27    30    17    1
    28    31    30    1
    29    32    30    1
    30    33    20   ar
    31    34    33    1
    32    35    30    1
    33    36    35    1
    34    37    35    1
    35    38    35    1
    36    39    38    1
    37    40    38    1
    38    41    38    1
    39    42     1    1
    40    43    53    1
    41    44     1    1
    42    45    42    2
    43    46    45    1
    44    47    44    2
    45    48    47    1
    46    49    50    1
    47    51    49    1
    48    52    49    1
    49    53    42    1
    50    54    53    1
    51    55    44    1
    52    56    55    1
    53    57    48    1
    54    58    57    1
    55    59    57    1
    56    60    61    1
    57    62    60   ar
    58    63    62    1
    59    64    48    1
    60    65    64    1
    61    66    43   ar
    62    67    66    1
    63    68    43   ar
    64    69    68    1
    65    70    57    1
    66    71    70    1
    67    72    70    1
    68    73    60   ar
    69    74    73    1
    70    75    70    1
    71    76    75    1
    72    77    75    1
    73    78    75    1
    74    79    78    1
    75    80    78    1
    76    81    78    1
    77    82     1    1
    78    83    93    1
    79    84     1    1
    80    85    82    2
    81    86    85    1
    82    87    84    2
    83    88    87    1
    84    89    90    1
    85    91    89    1
    86    92    89    1
    87    93    82    1
    88    94    93    1
    89    95    84    1
    90    96    95    1
    91    97    88    1
    92    98    97    1
    93    99    97    1
    94   100   101    1
    95   102   100   ar
    96   103   102    1
    97   104    88    1
    98   105   104    1
    99   106    83   ar
   100   107   106    1
   101   108    83   ar
   102   109   108    1
   103   110    97    1
   104   111   110    1
   105   112   110    1
   106   113   100   ar
   107   114   113    1
   108   115   110    1
   109   116   115    1
   110   117   115    1
   111   118   115    1
   112   119   118    1
   113   120   118    1
   114   121   118    1
   115     5     7    1
   116     9    13    1
   117    15    24    2
   118    22    26   ar
   119    28    33   ar
   120    45    47    1
   121    49    53    1
   122    55    64    2
   123    62    66   ar
   124    68    73   ar
   125    85    87    1
   126    89    93    1
   127    95   104    2
   128   102   106   ar
   129   108   113   ar
   130   122   123    2
   131   124   122    2
   132   125   122    1
   133   126   122    2
   134   127   128    2
   135   129   127    1
   136   130   127    2
   137   131   127    2
@<TRIPOS>SUBSTRUCTURE
     1 RES1        1 GROUP             0 ****  ****    0  
     2 RES2      122 GROUP             0 ****  ****    0  
     3 RES3      127 GROUP             0 ****  ****    0  
@<TRIPOS>CRYSIN
   12.7337   12.7337   28.0040   90.0000   90.0000  120.0000   232     1
