@<TRIPOS>MOLECULE
IJEBIK
   140   146     3     0     0
SMALL
USER_CHARGES
****
Generated from the CSD

@<TRIPOS>ATOM
     1 Fe1      1.3432  10.0767  -1.3432   Fe        1 RES1   2.0000
     2 C1       0.8332  11.5247   0.9694   C.2       1 RES1   0.0000
     3 C2      -1.0672  10.5675   0.5799   C.2       1 RES1   0.0000
     4 H1      -1.7292  10.0540   0.1782   H         1 RES1   0.0000
     5 C3      -1.2052  11.2907   1.7310   C.2       1 RES1   0.0000
     6 H2      -1.9720  11.3640   2.2515   H         1 RES1   0.0000
     7 C4       0.2707  12.8068   3.1056   C.3       1 RES1   0.0000
     8 H3      -0.4594  13.4426   3.1685   H         1 RES1   0.0000
     9 H4       1.0830  13.3046   2.9275   H         1 RES1   0.0000
    10 C5       0.4122  12.1011   4.4104   C.3       1 RES1   0.0000
    11 H5       1.2140  11.5562   4.4034   H         1 RES1   0.0000
    12 H6      -0.3493  11.5177   4.5536   H         1 RES1   0.0000
    13 C6       0.4961  13.1247   5.5440   C.3       1 RES1   0.0000
    14 H7       1.2594  13.7011   5.3833   H         1 RES1   0.0000
    15 H8      -0.2987  13.6802   5.5178   H         1 RES1   0.0000
    16 C7       0.6166  12.5518   6.8837   C.3       1 RES1   0.0000
    17 H9       1.4428  12.0435   6.9327   H         1 RES1   0.0000
    18 H10     -0.1153  11.9317   7.0252   H         1 RES1   0.0000
    19 C8       0.6113  13.5719   7.9981   C.3       1 RES1   0.0000
    20 H11      1.2821  14.2356   7.8270   H         1 RES1   0.0000
    21 H12      0.7965  13.1352   8.8331   H         1 RES1   0.0000
    22 H13     -0.2515  13.9928   8.0401   H         1 RES1   0.0000
    23 C9       2.1834  11.8811   0.6585   C.2       1 RES1   0.0000
    24 H14      2.7004  12.4190   1.2140   H         1 RES1   0.0000
    25 C10      4.0017  11.7413  -0.9030   C.3       1 RES1   0.0000
    26 H15      3.9388  12.0313  -1.8358   H         1 RES1   0.0000
    27 C11      4.6829  12.8767  -0.1188   C.3       1 RES1   0.0000
    28 H16      4.1205  13.6557  -0.1310   H         1 RES1   0.0000
    29 H17      5.5266  13.0863  -0.5258   H         1 RES1   0.0000
    30 H18      4.8244  12.5989   0.7878   H         1 RES1   0.0000
    31 C12      4.9222  10.5361  -0.8716   C.ar      1 RES1   0.0000
    32 C13      5.0253   9.7745   0.2742   C.ar      1 RES1   0.0000
    33 H19      4.4925   9.9719   1.0113   H         1 RES1   0.0000
    34 C14      5.9196   8.7160   0.3284   C.ar      1 RES1   0.0000
    35 H20      5.9947   8.2147   1.1092   H         1 RES1   0.0000
    36 C15      6.6986   8.3981  -0.7668   C.ar      1 RES1   0.0000
    37 H21      7.2855   7.6767  -0.7284   H         1 RES1   0.0000
    38 C16      6.6060   9.1562  -1.9196   C.ar      1 RES1   0.0000
    39 H22      7.1318   8.9431  -2.6585   H         1 RES1   0.0000
    40 C17      5.7204  10.2496  -1.9825   C.ar      1 RES1   0.0000
    41 H23      5.6663  10.7736  -2.7511   H         1 RES1   0.0000
    42 N1       0.2114  10.7247   0.1188   N.2       1 RES1   0.0000
    43 N2       0.0122  11.8898   1.9703   N.pl3     1 RES1   0.0000
    44 N3       2.6288  11.3990  -0.4559   N.2       1 RES1   0.0000
    45 C1G     -0.9694   9.5667  -2.7912   C.2       1 RES1   0.0000
    46 C2G     -0.5799   7.6663  -1.8340   C.2       1 RES1   0.0000
    47 H1G     -0.1782   7.0043  -1.3205   H         1 RES1   0.0000
    48 C3G     -1.7310   7.5283  -2.5572   C.2       1 RES1   0.0000
    49 H2G     -2.2515   6.7615  -2.6305   H         1 RES1   0.0000
    50 C4G     -3.1056   9.0042  -4.0733   C.3       1 RES1   0.0000
    51 H3G     -3.1685   8.2741  -4.7091   H         1 RES1   0.0000
    52 H4G     -2.9275   9.8165  -4.5711   H         1 RES1   0.0000
    53 C5G     -4.4104   9.1457  -3.3676   C.3       1 RES1   0.0000
    54 H5G     -4.4034   9.9475  -2.8227   H         1 RES1   0.0000
    55 H6G     -4.5536   8.3842  -2.7842   H         1 RES1   0.0000
    56 C6G     -5.5440   9.2296  -4.3912   C.3       1 RES1   0.0000
    57 H7G     -5.3833   9.9929  -4.9676   H         1 RES1   0.0000
    58 H8G     -5.5178   8.4348  -4.9467   H         1 RES1   0.0000
    59 C7G     -6.8837   9.3501  -3.8183   C.3       1 RES1   0.0000
    60 H9G     -6.9327  10.1763  -3.3100   H         1 RES1   0.0000
    61 H10G    -7.0252   8.6182  -3.1982   H         1 RES1   0.0000
    62 C8G     -7.9981   9.3448  -4.8384   C.3       1 RES1   0.0000
    63 H11G    -7.8270  10.0156  -5.5021   H         1 RES1   0.0000
    64 H12G    -8.8331   9.5300  -4.4017   H         1 RES1   0.0000
    65 H13G    -8.0401   8.4820  -5.2593   H         1 RES1   0.0000
    66 C9G     -0.6585  10.9169  -3.1476   C.2       1 RES1   0.0000
    67 H14G    -1.2140  11.4339  -3.6855   H         1 RES1   0.0000
    68 C10G     0.9030  12.7352  -3.0078   C.3       1 RES1   0.0000
    69 H15G     1.8358  12.6723  -3.2978   H         1 RES1   0.0000
    70 C11G     0.1188  13.4164  -4.1432   C.3       1 RES1   0.0000
    71 H16G     0.1310  12.8540  -4.9222   H         1 RES1   0.0000
    72 H17G     0.5258  14.2601  -4.3528   H         1 RES1   0.0000
    73 H18G    -0.7878  13.5579  -3.8654   H         1 RES1   0.0000
    74 C12G     0.8716  13.6557  -1.8026   C.ar      1 RES1   0.0000
    75 C13G    -0.2742  13.7588  -1.0410   C.ar      1 RES1   0.0000
    76 H19G    -1.0113  13.2260  -1.2384   H         1 RES1   0.0000
    77 C14G    -0.3284  14.6531   0.0175   C.ar      1 RES1   0.0000
    78 H20G    -1.1092  14.7282   0.5188   H         1 RES1   0.0000
    79 C15G     0.7668  15.4321   0.3354   C.ar      1 RES1   0.0000
    80 H21G     0.7284  16.0190   1.0568   H         1 RES1   0.0000
    81 C16G     1.9196  15.3395  -0.4227   C.ar      1 RES1   0.0000
    82 H22G     2.6585  15.8653  -0.2096   H         1 RES1   0.0000
    83 C17G     1.9825  14.4539  -1.5161   C.ar      1 RES1   0.0000
    84 H23G     2.7511  14.3998  -2.0401   H         1 RES1   0.0000
    85 N1G     -0.1188   8.9449  -1.9912   N.2       1 RES1   0.0000
    86 N2G     -1.9703   8.7457  -3.1563   N.pl3     1 RES1   0.0000
    87 N3G      0.4559  11.3623  -2.6655   N.2       1 RES1   0.0000
    88 C1J      2.7912   7.7641  -0.8332   C.2       1 RES1   0.0000
    89 C2J      1.8340   8.1536   1.0672   C.2       1 RES1   0.0000
    90 H1J      1.3205   8.5553   1.7292   H         1 RES1   0.0000
    91 C3J      2.5572   7.0025   1.2052   C.2       1 RES1   0.0000
    92 H2J      2.6305   6.4820   1.9720   H         1 RES1   0.0000
    93 C4J      4.0733   5.6279  -0.2707   C.3       1 RES1   0.0000
    94 H3J      4.7091   5.5650   0.4594   H         1 RES1   0.0000
    95 H4J      4.5711   5.8060  -1.0830   H         1 RES1   0.0000
    96 C5J      3.3676   4.3231  -0.4122   C.3       1 RES1   0.0000
    97 H5J      2.8227   4.3301  -1.2140   H         1 RES1   0.0000
    98 H6J      2.7842   4.1799   0.3493   H         1 RES1   0.0000
    99 C6J      4.3912   3.1895  -0.4961   C.3       1 RES1   0.0000
   100 H7J      4.9676   3.3502  -1.2594   H         1 RES1   0.0000
   101 H8J      4.9467   3.2157   0.2987   H         1 RES1   0.0000
   102 C7J      3.8183   1.8498  -0.6166   C.3       1 RES1   0.0000
   103 H9J      3.3100   1.8008  -1.4428   H         1 RES1   0.0000
   104 H10J     3.1982   1.7083   0.1153   H         1 RES1   0.0000
   105 C8J      4.8384   0.7354  -0.6113   C.3       1 RES1   0.0000
   106 H11J     5.5021   0.9065  -1.2821   H         1 RES1   0.0000
   107 H12J     4.4017  -0.0996  -0.7965   H         1 RES1   0.0000
   108 H13J     5.2593   0.6934   0.2515   H         1 RES1   0.0000
   109 C9J      3.1476   8.0750  -2.1834   C.2       1 RES1   0.0000
   110 H14J     3.6855   7.5195  -2.7004   H         1 RES1   0.0000
   111 C10J     3.0078   9.6365  -4.0017   C.3       1 RES1   0.0000
   112 H15J     3.2978  10.5693  -3.9388   H         1 RES1   0.0000
   113 C11J     4.1432   8.8523  -4.6829   C.3       1 RES1   0.0000
   114 H16J     4.9222   8.8645  -4.1205   H         1 RES1   0.0000
   115 H17J     4.3528   9.2593  -5.5266   H         1 RES1   0.0000
   116 H18J     3.8654   7.9457  -4.8244   H         1 RES1   0.0000
   117 C12J     1.8026   9.6051  -4.9222   C.ar      1 RES1   0.0000
   118 C13J     1.0410   8.4593  -5.0253   C.ar      1 RES1   0.0000
   119 H19J     1.2384   7.7222  -4.4925   H         1 RES1   0.0000
   120 C14J    -0.0175   8.4051  -5.9196   C.ar      1 RES1   0.0000
   121 H20J    -0.5188   7.6243  -5.9947   H         1 RES1   0.0000
   122 C15J    -0.3354   9.5003  -6.6986   C.ar      1 RES1   0.0000
   123 H21J    -1.0568   9.4619  -7.2855   H         1 RES1   0.0000
   124 C16J     0.4227  10.6531  -6.6060   C.ar      1 RES1   0.0000
   125 H22J     0.2096  11.3920  -7.1318   H         1 RES1   0.0000
   126 C17J     1.5161  10.7160  -5.7204   C.ar      1 RES1   0.0000
   127 H23J     2.0401  11.4846  -5.6663   H         1 RES1   0.0000
   128 N1J      1.9912   8.6147  -0.2114   N.2       1 RES1   0.0000
   129 N2J      3.1563   6.7632  -0.0122   N.pl3     1 RES1   0.0000
   130 N3J      2.6655   9.1894  -2.6288   N.2       1 RES1   0.0000
   131 Cl1      4.1254   4.6081  12.8589   Cl        2 RES2   0.0000
   132 O1       3.3117   3.6017  13.4723   O.2       2 RES2   0.0000
   133 O2       3.2873   5.4462  12.0208   O.3       2 RES2  -1.0000
   134 O1E      4.7388   5.4218  13.8653   O.2       2 RES2   0.0000
   135 O1K      5.1318   3.9947  12.0452   O.2       2 RES2   0.0000
   136 Cl2      3.8579   3.8579   3.8579   Cl        3 RES3   0.0000
   137 O3       3.0567   3.0567   3.0567   O.2       3 RES3   0.0000
   138 O4       5.1685   3.8882   3.3379   O.2       3 RES3   0.0000
   139 O4D      3.3379   5.1685   3.8882   O.2       3 RES3   0.0000
   140 O4H      3.8882   3.3379   5.1685   O.3       3 RES3  -1.0000
@<TRIPOS>BOND
     1     1    42    1
     2     2    23    1
     3     3     4    1
     4     5     3    2
     5     6     5    1
     6     7     8    1
     7     9     7    1
     8    10     7    1
     9    11    10    1
    10    12    10    1
    11    13    10    1
    12    14    13    1
    13    15    13    1
    14    16    13    1
    15    17    16    1
    16    18    16    1
    17    19    16    1
    18    20    19    1
    19    21    19    1
    20    22    19    1
    21    23    24    1
    22    25    26    1
    23    27    25    1
    24    28    27    1
    25    29    27    1
    26    30    27    1
    27    31    25    1
    28    32    31   ar
    29    33    32    1
    30    34    32   ar
    31    35    34    1
    32    36    34   ar
    33    37    36    1
    34    38    36   ar
    35    39    38    1
    36    40    31   ar
    37    41    40    1
    38    42     2    2
    39    43     2    1
    40    44     1    1
    41    45    66    1
    42    46    47    1
    43    48    46    2
    44    49    48    1
    45    50    51    1
    46    52    50    1
    47    53    50    1
    48    54    53    1
    49    55    53    1
    50    56    53    1
    51    57    56    1
    52    58    56    1
    53    59    56    1
    54    60    59    1
    55    61    59    1
    56    62    59    1
    57    63    62    1
    58    64    62    1
    59    65    62    1
    60    66    67    1
    61    68    69    1
    62    70    68    1
    63    71    70    1
    64    72    70    1
    65    73    70    1
    66    74    68    1
    67    75    74   ar
    68    76    75    1
    69    77    75   ar
    70    78    77    1
    71    79    77   ar
    72    80    79    1
    73    81    79   ar
    74    82    81    1
    75    83    74   ar
    76    84    83    1
    77    85     1    1
    78    86    45    1
    79    87     1    1
    80    88   109    1
    81    89    90    1
    82    91    89    2
    83    92    91    1
    84    93    94    1
    85    95    93    1
    86    96    93    1
    87    97    96    1
    88    98    96    1
    89    99    96    1
    90   100    99    1
    91   101    99    1
    92   102    99    1
    93   103   102    1
    94   104   102    1
    95   105   102    1
    96   106   105    1
    97   107   105    1
    98   108   105    1
    99   109   110    1
   100   111   112    1
   101   113   111    1
   102   114   113    1
   103   115   113    1
   104   116   113    1
   105   117   111    1
   106   118   117   ar
   107   119   118    1
   108   120   118   ar
   109   121   120    1
   110   122   120   ar
   111   123   122    1
   112   124   122   ar
   113   125   124    1
   114   126   117   ar
   115   127   126    1
   116   128     1    1
   117   129    88    1
   118   130     1    1
   119     3    42    1
   120     5    43    1
   121     7    43    1
   122    23    44    2
   123    25    44    1
   124    38    40   ar
   125    45    85    2
   126    46    85    1
   127    48    86    1
   128    50    86    1
   129    66    87    2
   130    68    87    1
   131    81    83   ar
   132    88   128    2
   133    89   128    1
   134    91   129    1
   135    93   129    1
   136   109   130    2
   137   111   130    1
   138   124   126   ar
   139   131   132    2
   140   133   131    1
   141   134   131    2
   142   135   131    2
   143   136   137    2
   144   138   136    2
   145   139   136    2
   146   140   136    1
@<TRIPOS>SUBSTRUCTURE
     1 RES1        1 GROUP             0 ****  ****    0  
     2 RES2      131 GROUP             0 ****  ****    0  
     3 RES3      136 GROUP             0 ****  ****    0  
@<TRIPOS>CRYSIN
   17.4670   17.4670   17.4670   90.0000   90.0000   90.0000   198     1
