@<TRIPOS>MOLECULE
IJEBEG
   140   146     3     0     0
SMALL
USER_CHARGES
****
Generated from the CSD

@<TRIPOS>ATOM
     1 C1      12.2374   3.3957  15.8826   C.2       1 RES1   0.0000
     2 C2      14.2895   2.6331  15.6453   C.2       1 RES1   0.0000
     3 H1      15.0747   2.1044  15.7203   H         1 RES1   0.0000
     4 C3      14.1446   3.7901  14.9212   C.2       1 RES1   0.0000
     5 H2      14.8252   4.2001  14.4012   H         1 RES1   0.0000
     6 C4      10.8955   3.7063  16.2264   C.2       1 RES1   0.0000
     7 H3      10.3651   3.1462  16.7813   H         1 RES1   0.0000
     8 C5       9.0947   5.2802  16.0955   C.3       1 RES1   0.0000
     9 H4       9.1680   6.2330  16.3922   H         1 RES1   0.0000
    10 C6       8.1716   5.2419  14.8880   C.ar      1 RES1   0.0000
    11 C7       8.0617   4.0919  14.1167   C.ar      1 RES1   0.0000
    12 H5       8.6079   3.3381  14.3104   H         1 RES1   0.0000
    13 C8       7.1683   4.0361  13.0785   C.ar      1 RES1   0.0000
    14 H6       7.0793   3.2317  12.5812   H         1 RES1   0.0000
    15 C9       6.4005   5.1267  12.7469   C.ar      1 RES1   0.0000
    16 H7       5.8177   5.0953  11.9983   H         1 RES1   0.0000
    17 C10      6.4913   6.2766  13.5234   C.ar      1 RES1   0.0000
    18 H8       5.9486   7.0287  13.3158   H         1 RES1   0.0000
    19 C11      7.3602   6.3377  14.5931   C.ar      1 RES1   0.0000
    20 H9       7.4056   7.1229  15.1271   H         1 RES1   0.0000
    21 C12      8.4107   4.4880  17.2193   C.3       1 RES1   0.0000
    22 H10      8.2851   3.5597  16.9348   H         1 RES1   0.0000
    23 H11      7.5382   4.8894  17.4164   H         1 RES1   0.0000
    24 H12      8.9708   4.5125  18.0219   H         1 RES1   0.0000
    25 C13     12.7923   1.2616  17.1425   C.3       1 RES1   0.0000
    26 H13     11.9477   1.4431  17.6276   H         1 RES1   0.0000
    27 H14     13.5165   1.1988  17.8143   H         1 RES1   0.0000
    28 C14     12.6719  -0.0349  16.4515   C.3       1 RES1   0.0000
    29 H15     13.4606  -0.1762  15.8704   H         1 RES1   0.0000
    30 H16     11.8640  -0.0332  15.8774   H         1 RES1   0.0000
    31 C15     12.5724  -1.1796  17.4845   C.3       1 RES1   0.0000
    32 H17     13.3716  -1.1517  18.0673   H         1 RES1   0.0000
    33 H18     11.7785  -1.0243  18.0551   H         1 RES1   0.0000
    34 C16     12.4712  -2.5162  16.8877   C.3       1 RES1   0.0000
    35 H19     13.2285  -2.6523  16.2665   H         1 RES1   0.0000
    36 H20     11.6336  -2.5721  16.3607   H         1 RES1   0.0000
    37 C17     12.4765  -3.6208  17.9207   C.3       1 RES1   0.0000
    38 H21     12.4014  -4.4898  17.4705   H         1 RES1   0.0000
    39 H22     11.7174  -3.5039  18.5297   H         1 RES1   0.0000
    40 H23     13.3123  -3.5876  18.4303   H         1 RES1   0.0000
    41 Fe1     11.7401   5.7095  14.4343   Fe        1 RES1   2.0000
    42 N1      12.8691   4.2577  15.0660   N.2       1 RES1   0.0000
    43 N2      13.0767   2.3889  16.2421   N.pl3     1 RES1   0.0000
    44 N3      10.4541   4.8161  15.7256   N.2       1 RES1   0.0000
    45 C1F     10.2918   5.2122  12.1205   C.2       1 RES1   0.0000
    46 C2F     10.5291   3.1601  11.3579   C.2       1 RES1   0.0000
    47 H1F     10.4541   2.3749  10.8292   H         1 RES1   0.0000
    48 C3F     11.2532   3.3050  12.5149   C.2       1 RES1   0.0000
    49 H2F     11.7732   2.6244  12.9249   H         1 RES1   0.0000
    50 C4F      9.9480   6.5541  12.4311   C.2       1 RES1   0.0000
    51 H3F      9.3931   7.0845  11.8710   H         1 RES1   0.0000
    52 C5F     10.0789   8.3549  14.0050   C.3       1 RES1   0.0000
    53 H4F      9.7822   8.2816  14.9578   H         1 RES1   0.0000
    54 C6F     11.2864   9.2780  13.9667   C.ar      1 RES1   0.0000
    55 C7F     12.0577   9.3879  12.8167   C.ar      1 RES1   0.0000
    56 H5F     11.8640   8.8417  12.0629   H         1 RES1   0.0000
    57 C8F     13.0959  10.2813  12.7609   C.ar      1 RES1   0.0000
    58 H6F     13.5932  10.3703  11.9565   H         1 RES1   0.0000
    59 C9F     13.4275  11.0491  13.8515   C.ar      1 RES1   0.0000
    60 H7F     14.1761  11.6319  13.8201   H         1 RES1   0.0000
    61 C10F    12.6510  10.9583  15.0014   C.ar      1 RES1   0.0000
    62 H8F     12.8586  11.5010  15.7535   H         1 RES1   0.0000
    63 C11F    11.5813  10.0894  15.0625   C.ar      1 RES1   0.0000
    64 H9F     11.0473  10.0440  15.8477   H         1 RES1   0.0000
    65 C12F     8.9551   9.0389  13.2128   C.3       1 RES1   0.0000
    66 H10F     9.2396   9.1645  12.2845   H         1 RES1   0.0000
    67 H11F     8.7580   9.9114  13.6142   H         1 RES1   0.0000
    68 H12F     8.1525   8.4788  13.2373   H         1 RES1   0.0000
    69 C13F     9.0319   4.6573   9.9864   C.3       1 RES1   0.0000
    70 H13F     8.5468   5.5019  10.1679   H         1 RES1   0.0000
    71 H14F     8.3601   3.9331   9.9236   H         1 RES1   0.0000
    72 C14F     9.7229   4.7777   8.6899   C.3       1 RES1   0.0000
    73 H15F    10.3040   3.9890   8.5486   H         1 RES1   0.0000
    74 H16F    10.2970   5.5856   8.6916   H         1 RES1   0.0000
    75 C15F     8.6899   4.8772   7.5452   C.3       1 RES1   0.0000
    76 H17F     8.1071   4.0780   7.5731   H         1 RES1   0.0000
    77 H18F     8.1193   5.6711   7.7005   H         1 RES1   0.0000
    78 C16F     9.2867   4.9784   6.2086   C.3       1 RES1   0.0000
    79 H19F     9.9079   4.2211   6.0725   H         1 RES1   0.0000
    80 H20F     9.8137   5.8160   6.1527   H         1 RES1   0.0000
    81 C17F     8.2537   4.9731   5.1040   C.3       1 RES1   0.0000
    82 H21F     8.7039   5.0482   4.2350   H         1 RES1   0.0000
    83 H22F     7.6447   5.7322   5.2209   H         1 RES1   0.0000
    84 H23F     7.7441   4.1373   5.1372   H         1 RES1   0.0000
    85 N1F     11.1084   4.5805  12.9825   N.2       1 RES1   0.0000
    86 N2F      9.9323   4.3729  11.1137   N.pl3     1 RES1   0.0000
    87 N3F     10.4488   6.9955  13.5409   N.2       1 RES1   0.0000
    88 C1I     14.0539   7.1578  13.9370   C.2       1 RES1   0.0000
    89 C2I     14.8165   6.9205  11.8849   C.2       1 RES1   0.0000
    90 H1I     15.3452   6.9955  11.0997   H         1 RES1   0.0000
    91 C3I     13.6595   6.1964  12.0298   C.2       1 RES1   0.0000
    92 H2I     13.2495   5.6764  11.3492   H         1 RES1   0.0000
    93 C4I     13.7433   7.5016  15.2789   C.2       1 RES1   0.0000
    94 H3I     14.3034   8.0565  15.8093   H         1 RES1   0.0000
    95 C5I     12.1694   7.3707  17.0797   C.3       1 RES1   0.0000
    96 H4I     11.2166   7.6674  17.0064   H         1 RES1   0.0000
    97 C6I     12.2077   6.1632  18.0028   C.ar      1 RES1   0.0000
    98 C7I     13.3577   5.3919  18.1127   C.ar      1 RES1   0.0000
    99 H5I     14.1115   5.5856  17.5665   H         1 RES1   0.0000
   100 C8I     13.4135   4.3537  19.0061   C.ar      1 RES1   0.0000
   101 H6I     14.2179   3.8564  19.0951   H         1 RES1   0.0000
   102 C9I     12.3229   4.0221  19.7739   C.ar      1 RES1   0.0000
   103 H7I     12.3543   3.2735  20.3567   H         1 RES1   0.0000
   104 C10I    11.1730   4.7986  19.6831   C.ar      1 RES1   0.0000
   105 H8I     10.4209   4.5910  20.2258   H         1 RES1   0.0000
   106 C11I    11.1119   5.8683  18.8142   C.ar      1 RES1   0.0000
   107 H9I     10.3267   6.4023  18.7688   H         1 RES1   0.0000
   108 C12I    12.9616   8.4945  17.7637   C.3       1 RES1   0.0000
   109 H10I    13.8899   8.2100  17.8893   H         1 RES1   0.0000
   110 H11I    12.5602   8.6916  18.6362   H         1 RES1   0.0000
   111 H12I    12.9371   9.2971  17.2036   H         1 RES1   0.0000
   112 C13I    16.1880   8.4177  13.3821   C.3       1 RES1   0.0000
   113 H13I    16.0065   8.9028  14.2267   H         1 RES1   0.0000
   114 H14I    16.2508   9.0895  12.6579   H         1 RES1   0.0000
   115 C14I    17.4845   7.7267  13.5025   C.3       1 RES1   0.0000
   116 H15I    17.6258   7.1456  12.7138   H         1 RES1   0.0000
   117 H16I    17.4828   7.1526  14.3104   H         1 RES1   0.0000
   118 C15I    18.6292   8.7597  13.6020   C.3       1 RES1   0.0000
   119 H17I    18.6013   9.3425  12.8028   H         1 RES1   0.0000
   120 H18I    18.4739   9.3303  14.3959   H         1 RES1   0.0000
   121 C16I    19.9658   8.1629  13.7032   C.3       1 RES1   0.0000
   122 H19I    20.1019   7.5417  12.9459   H         1 RES1   0.0000
   123 H20I    20.0217   7.6359  14.5408   H         1 RES1   0.0000
   124 C17I    21.0704   9.1959  13.6979   C.3       1 RES1   0.0000
   125 H21I    21.9394   8.7457  13.7730   H         1 RES1   0.0000
   126 H22I    20.9535   9.8049  14.4570   H         1 RES1   0.0000
   127 H23I    21.0372   9.7055  12.8621   H         1 RES1   0.0000
   128 N1I     13.1919   6.3412  13.3053   N.2       1 RES1   0.0000
   129 N2I     15.0607   7.5173  13.0977   N.pl3     1 RES1   0.0000
   130 N3I     12.6335   7.0008  15.7203   N.2       1 RES1   0.0000
   131 Cl1      8.4740   0.2508  17.1988   Cl        2 RES2   0.0000
   132 O1       9.4786   1.0505  17.8283   O.2       2 RES2   0.0000
   133 O2       7.6394   1.0854  16.3642   O.3       2 RES2  -1.0000
   134 O1E      9.1035  -0.7538  16.3991   O.2       2 RES2   0.0000
   135 O1K      7.6743  -0.3787  18.2034   O.2       2 RES2   0.0000
   136 Cl2     16.9404  16.9404  16.9404   Cl        3 RES3   0.0000
   137 O3      16.9488  18.2331  16.4445   O.2       3 RES3   0.0000
   138 O4      16.1409  16.1409  16.1409   O.3       3 RES3  -1.0000
   139 O3D     16.4445  16.9488  18.2331   O.2       3 RES3   0.0000
   140 O3H     18.2331  16.4445  16.9488   O.2       3 RES3   0.0000
@<TRIPOS>BOND
     1     1     6    1
     2     2     3    1
     3     4     2    2
     4     5     4    1
     5     6     7    1
     6     8     9    1
     7    10     8    1
     8    11    10   ar
     9    12    11    1
    10    13    11   ar
    11    14    13    1
    12    15    13   ar
    13    16    15    1
    14    17    15   ar
    15    18    17    1
    16    19    10   ar
    17    20    19    1
    18    21     8    1
    19    22    21    1
    20    23    21    1
    21    24    21    1
    22    25    26    1
    23    27    25    1
    24    28    25    1
    25    29    28    1
    26    30    28    1
    27    31    28    1
    28    32    31    1
    29    33    31    1
    30    34    31    1
    31    35    34    1
    32    36    34    1
    33    37    34    1
    34    38    37    1
    35    39    37    1
    36    40    37    1
    37    41    42    1
    38    42     1    2
    39    43     1    1
    40    44     6    2
    41    45    50    1
    42    46    47    1
    43    48    46    2
    44    49    48    1
    45    50    51    1
    46    52    53    1
    47    54    52    1
    48    55    54   ar
    49    56    55    1
    50    57    55   ar
    51    58    57    1
    52    59    57   ar
    53    60    59    1
    54    61    59   ar
    55    62    61    1
    56    63    54   ar
    57    64    63    1
    58    65    52    1
    59    66    65    1
    60    67    65    1
    61    68    65    1
    62    69    70    1
    63    71    69    1
    64    72    69    1
    65    73    72    1
    66    74    72    1
    67    75    72    1
    68    76    75    1
    69    77    75    1
    70    78    75    1
    71    79    78    1
    72    80    78    1
    73    81    78    1
    74    82    81    1
    75    83    81    1
    76    84    81    1
    77    85    41    1
    78    86    45    1
    79    87    41    1
    80    88    93    1
    81    89    90    1
    82    91    89    2
    83    92    91    1
    84    93    94    1
    85    95    96    1
    86    97    95    1
    87    98    97   ar
    88    99    98    1
    89   100    98   ar
    90   101   100    1
    91   102   100   ar
    92   103   102    1
    93   104   102   ar
    94   105   104    1
    95   106    97   ar
    96   107   106    1
    97   108    95    1
    98   109   108    1
    99   110   108    1
   100   111   108    1
   101   112   113    1
   102   114   112    1
   103   115   112    1
   104   116   115    1
   105   117   115    1
   106   118   115    1
   107   119   118    1
   108   120   118    1
   109   121   118    1
   110   122   121    1
   111   123   121    1
   112   124   121    1
   113   125   124    1
   114   126   124    1
   115   127   124    1
   116   128    41    1
   117   129    88    1
   118   130    41    1
   119     2    43    1
   120     4    42    1
   121     8    44    1
   122    17    19   ar
   123    25    43    1
   124    41    44    1
   125    45    85    2
   126    46    86    1
   127    48    85    1
   128    50    87    2
   129    52    87    1
   130    61    63   ar
   131    69    86    1
   132    88   128    2
   133    89   129    1
   134    91   128    1
   135    93   130    2
   136    95   130    1
   137   104   106   ar
   138   112   129    1
   139   131   132    2
   140   133   131    1
   141   134   131    2
   142   135   131    2
   143   136   137    2
   144   138   136    1
   145   139   136    2
   146   140   136    2
@<TRIPOS>SUBSTRUCTURE
     1 RES1        1 GROUP             0 ****  ****    0  
     2 RES2      131 GROUP             0 ****  ****    0  
     3 RES3      136 GROUP             0 ****  ****    0  
@<TRIPOS>CRYSIN
   17.4496   17.4496   17.4496   90.0000   90.0000   90.0000   198     1
