@<TRIPOS>MOLECULE
ILAGOT
   210   228     2     0     0
SMALL
NO_CHARGES
****
Generated from the CSD

@<TRIPOS>ATOM
     1 C1       3.0444   8.0694   2.9451   C.1       1 RES1   0.0000
     2 C2       5.5263   9.0004   2.4677   C.1       1 RES1   0.0000
     3 C3       3.6339  10.2777   1.3441   C.1       1 RES1   0.0000
     4 C4       4.7769  12.7215   2.4755   C.1       1 RES1   0.0000
     5 C5       5.1084  13.2182   5.1481   C.1       1 RES1   0.0000
     6 C6       6.5473  11.4808   3.8300   C.1       1 RES1   0.0000
     7 C7       2.4133   8.2158   6.4144   C.1       1 RES1   0.0000
     8 C8       2.4927  10.4848   7.7819   C.1       1 RES1   0.0000
     9 C9       3.3910   8.1098   8.7290   C.1       1 RES1   0.0000
    10 C10      5.3120   6.9866   5.2986   C.1       1 RES1   0.0000
    11 C11      6.1101   6.9335   7.6522   C.1       1 RES1   0.0000
    12 C12      7.5134   8.5041   5.7553   C.1       1 RES1   0.0000
    13 C13      6.1752   8.2549  11.0280   C.1       1 RES1   0.0000
    14 C14      4.6358  10.4756  10.8049   C.1       1 RES1   0.0000
    15 C15      6.8830  10.7363  11.9959   C.1       1 RES1   0.0000
    16 C16      5.4206  12.6897   8.6148   C.1       1 RES1   0.0000
    17 C17      7.7759  12.3105   7.2033   C.1       1 RES1   0.0000
    18 C18      7.5560  12.9552   9.8266   C.1       1 RES1   0.0000
    19 C19     10.9424  11.8908   9.3803   C.1       1 RES1   0.0000
    20 C20     12.2883  10.3985  10.8282   C.1       1 RES1   0.0000
    21 C21     10.2595  11.8974  11.8740   C.1       1 RES1   0.0000
    22 C22     10.6133   9.6258   7.5120   C.1       1 RES1   0.0000
    23 C23      9.5815   7.2451   8.0751   C.1       1 RES1   0.0000
    24 C24     11.9309   8.1028   8.9937   C.1       1 RES1   0.0000
    25 C25      2.3692  10.7974   3.4952   C.2       1 RES1   0.0000
    26 C26      0.3834   9.7466   2.4858   C.3       1 RES1   0.0000
    27 H1       0.7969   8.8717   2.5533   H         1 RES1   0.0000
    28 H2       0.3459  10.0127   1.5543   H         1 RES1   0.0000
    29 C27     -0.9474   9.7578   3.1008   C.2       1 RES1   0.0000
    30 H3      -1.3306   9.6614   3.9416   H         1 RES1   0.0000
    31 C28     -1.3254   9.9788   1.8216   C.2       1 RES1   0.0000
    32 H4      -0.6841  10.0290   1.1469   H         1 RES1   0.0000
    33 H5      -2.2253  10.0795   1.6140   H         1 RES1   0.0000
    34 C29      2.0009  12.9541   4.5487   C.ar      1 RES1   0.0000
    35 C30      2.0924  14.2269   3.9960   C.ar      1 RES1   0.0000
    36 H6       2.6831  14.3891   3.2980   H         1 RES1   0.0000
    37 C31      1.3000  15.2568   4.4917   C.ar      1 RES1   0.0000
    38 H7       1.3618  16.1079   4.1206   H         1 RES1   0.0000
    39 C32      0.4175  15.0152   5.5374   C.ar      1 RES1   0.0000
    40 H8      -0.1121  15.7046   5.8669   H         1 RES1   0.0000
    41 C33      0.3254  13.7417   6.0875   C.ar      1 RES1   0.0000
    42 H9      -0.2647  13.5802   6.7881   H         1 RES1   0.0000
    43 C34      1.1184  12.7124   5.5945   C.ar      1 RES1   0.0000
    44 H10      1.0573  11.8608   5.9629   H         1 RES1   0.0000
    45 C35     10.2163   9.0980  11.6352   C.2       1 RES1   0.0000
    46 C36     11.0004   9.6264  14.3027   C.3       1 RES1   0.0000
    47 H11     11.9217   9.3362  14.4195   H         1 RES1   0.0000
    48 H12     10.9816  10.5913  14.1963   H         1 RES1   0.0000
    49 C37     10.1513   9.1816  15.4055   C.2       1 RES1   0.0000
    50 H13     10.2576   9.6522  16.2021   H         1 RES1   0.0000
    51 C38      9.2198   8.1828  15.4444   C.2       1 RES1   0.0000
    52 H14      9.0556   7.6747  14.6842   H         1 RES1   0.0000
    53 H15      8.7486   8.0220  16.2281   H         1 RES1   0.0000
    54 C39     10.0701   6.7118  11.2175   C.ar      1 RES1   0.0000
    55 C40     11.2937   6.0918  11.4380   C.ar      1 RES1   0.0000
    56 H16     12.0670   6.6044  11.5237   H         1 RES1   0.0000
    57 C41     11.3649   4.7068  11.5340   C.ar      1 RES1   0.0000
    58 H17     12.1845   4.2918  11.6819   H         1 RES1   0.0000
    59 C42     10.2081   3.9410  11.4069   C.ar      1 RES1   0.0000
    60 H18     10.2594   3.0160  11.4718   H         1 RES1   0.0000
    61 C43      8.9870   4.5609  11.1863   C.ar      1 RES1   0.0000
    62 H19      8.2149   4.0508  11.1033   H         1 RES1   0.0000
    63 C44      8.9164   5.9466  11.0929   C.ar      1 RES1   0.0000
    64 H20      8.0968   6.3615  10.9450   H         1 RES1   0.0000
    65 Fe1      3.8986   9.6746   2.9846   Fe        1 RES1   0.0000
    66 Fe2      4.8324  11.8592   4.0251   Fe        1 RES1   0.0000
    67 Fe3      3.5917   9.1838   7.3011   Fe        1 RES1   0.0000
    68 Fe4      5.8470   8.2073   6.4396   Fe        1 RES1   0.0000
    69 Fe5      6.3199   9.9542  10.4699   Fe        1 RES1   0.0000
    70 Fe6      6.9339  11.7748   8.7238   Fe        1 RES1   0.0000
    71 Fe7     10.5748  10.6656  10.5880   Fe        1 RES1   0.0000
    72 Fe8     10.2602   8.6799   8.9454   Fe        1 RES1   0.0000
    73 N1       2.8761  11.9030   4.1128   N.2       1 RES1   0.0000
    74 N2       1.0542  10.6864   3.2513   N.pl3     1 RES1   0.0000
    75 H21      0.5576  11.2816   3.6250   H         1 RES1   0.0000
    76 N3      10.1011   8.0510  10.8023   N.2       1 RES1   0.0000
    77 N4      10.2595   8.8373  13.0053   N.pl3     1 RES1   0.0000
    78 H22      9.8214   8.1361  13.2388   H         1 RES1   0.0000
    79 O1       2.6300   7.0272   2.8751   O.2       1 RES1   0.0000
    80 O2       6.4878   8.5330   2.1719   O.2       1 RES1   0.0000
    81 O3       3.3916  10.6299   0.3010   O.2       1 RES1   0.0000
    82 O4       4.7815  13.2968   1.5102   O.2       1 RES1   0.0000
    83 O5       5.2818  14.1489   5.8020   O.2       1 RES1   0.0000
    84 O6       7.6735  11.2263   3.6795   O.2       1 RES1   0.0000
    85 O7       1.6081   7.6230   5.8358   O.2       1 RES1   0.0000
    86 O8       1.7599  11.3017   8.1633   O.2       1 RES1   0.0000
    87 O9       3.3166   7.4366   9.6190   O.2       1 RES1   0.0000
    88 O10      4.9987   6.0995   4.6032   O.2       1 RES1   0.0000
    89 O11      6.2525   6.1277   8.4514   O.2       1 RES1   0.0000
    90 O12      8.5286   8.7256   5.3635   O.2       1 RES1   0.0000
    91 O13      6.1495   7.2411  11.4562   O.2       1 RES1   0.0000
    92 O14      3.5859  10.8318  10.9917   O.2       1 RES1   0.0000
    93 O15      7.2172  11.1748  12.9638   O.2       1 RES1   0.0000
    94 O16      4.4342  13.2792   8.5967   O.2       1 RES1   0.0000
    95 O17      8.3337  12.6254   6.2925   O.2       1 RES1   0.0000
    96 O18      7.9623  13.7549  10.5402   O.2       1 RES1   0.0000
    97 O19     11.1564  12.7019   8.6278   O.2       1 RES1   0.0000
    98 O20     13.4018  10.1417  10.9865   O.2       1 RES1   0.0000
    99 O21     10.1437  12.7458  12.6161   O.2       1 RES1   0.0000
   100 O22     10.8544  10.2347   6.5494   O.2       1 RES1   0.0000
   101 O23      9.2207   6.2990   7.5380   O.2       1 RES1   0.0000
   102 O24     13.0195   7.7302   9.0067   O.2       1 RES1   0.0000
   103 Se1      4.5746   9.8342   5.2493   Se        1 RES1   0.0000
   104 Se2      5.7182   9.8156   8.1709   Se        1 RES1   0.0000
   105 Se3      8.4969  10.1887   9.5638   Se        1 RES1   0.0000
   106 C45     11.2560   2.7134  -0.6228   C.1       2 RES2   0.0000
   107 C46     11.7166   0.7663   1.3182   C.1       2 RES2   0.0000
   108 C47     13.0299   3.0844   1.1443   C.1       2 RES2   0.0000
   109 C48      9.9612   5.3609  -0.0960   C.1       2 RES2   0.0000
   110 C49      9.2437   6.1807   2.4521   C.1       2 RES2   0.0000
   111 C50     11.7006   5.8045   1.7074   C.1       2 RES2   0.0000
   112 C51      8.8950   1.3338   4.9613   C.1       2 RES2   0.0000
   113 C52      8.7356   3.9689   5.2026   C.1       2 RES2   0.0000
   114 C53      9.8217   2.6884   7.1098   C.1       2 RES2   0.0000
   115 C54     11.6251   5.7108   5.0807   C.1       2 RES2   0.0000
   116 C55     13.8454   4.2253   4.5877   C.1       2 RES2   0.0000
   117 C56     12.4592   4.3563   7.0009   C.1       2 RES2   0.0000
   118 C57     11.0691  -0.3706   7.4082   C.1       2 RES2   0.0000
   119 C58     12.6154   1.1455   8.9600   C.1       2 RES2   0.0000
   120 C59     13.2309  -1.3241   8.0751   C.1       2 RES2   0.0000
   121 C60     12.0029  -0.9179   4.4034   C.1       2 RES2   0.0000
   122 C61     14.2525   0.5151   3.5108   C.1       2 RES2   0.0000
   123 C62     14.2917  -1.7066   5.0937   C.1       2 RES2   0.0000
   124 C63     17.0597   2.3761   5.3194   C.1       2 RES2   0.0000
   125 C64     16.0044   3.9369   7.1773   C.1       2 RES2   0.0000
   126 C65     18.3082   2.6919   7.5562   C.1       2 RES2   0.0000
   127 C66     16.6362  -2.0122   7.7118   C.1       2 RES2   0.0000
   128 C67     17.3531  -0.5713   5.6412   C.1       2 RES2   0.0000
   129 C68     18.6936  -0.1854   7.8079   C.1       2 RES2   0.0000
   130 C69      8.7797   3.5371   1.3286   C.2       2 RES2   0.0000
   131 C70      6.5110   4.5197   1.5621   C.3       2 RES2   0.0000
   132 H23      6.8800   5.4108   1.4531   H         2 RES2   0.0000
   133 H24      6.5092   4.3640   2.5196   H         2 RES2   0.0000
   134 C71      5.0856   4.7114   1.2559   C.2       2 RES2   0.0000
   135 H25      4.3236   4.7090   1.7878   H         2 RES2   0.0000
   136 C72      5.2650   4.8899  -0.0727   C.2       2 RES2   0.0000
   137 H26      6.1270   4.8566  -0.4333   H         2 RES2   0.0000
   138 H27      4.5399   5.0470  -0.6254   H         2 RES2   0.0000
   139 C73      8.6033   1.2168   0.8226   C.ar      2 RES2   0.0000
   140 C74      8.0773   0.5248   1.9098   C.ar      2 RES2   0.0000
   141 H28      8.0646   0.9212   2.7505   H         2 RES2   0.0000
   142 C75      7.5776  -0.7611   1.7359   C.ar      2 RES2   0.0000
   143 H29      7.2278  -1.2245   2.4625   H         2 RES2   0.0000
   144 C76      7.6038  -1.3537   0.4800   C.ar      2 RES2   0.0000
   145 H30      7.2673  -2.2117   0.3659   H         2 RES2   0.0000
   146 C77      8.1260  -0.6592  -0.6046   C.ar      2 RES2   0.0000
   147 H31      8.1400  -1.0581  -1.4479   H         2 RES2   0.0000
   148 C78      8.6258   0.6242  -0.4333   C.ar      2 RES2   0.0000
   149 H32      8.9768   1.0876  -1.1599   H         2 RES2   0.0000
   150 C79     16.5224   0.4771   9.1131   C.2       2 RES2   0.0000
   151 C80     16.2584  -1.2319  10.8775   C.3       2 RES2   0.0000
   152 H33     16.4063  -1.9711  10.2678   H         2 RES2   0.0000
   153 H34     15.3689  -1.2799  11.2512   H         2 RES2   0.0000
   154 C81     17.3024  -1.1474  11.9155   C.2       2 RES2   0.0000
   155 H35     18.1681  -0.8650  12.0841   H         2 RES2   0.0000
   156 C82     16.2146  -1.7492  12.4786   C.2       2 RES2   0.0000
   157 H36     15.4490  -1.8910  11.9726   H         2 RES2   0.0000
   158 H37     16.2434  -2.0174  13.3686   H         2 RES2   0.0000
   159 C83     16.3095   2.5896  10.0861   C.ar      2 RES2   0.0000
   160 C84     15.3775   3.5823  10.3638   C.ar      2 RES2   0.0000
   161 H38     14.5729   3.6076   9.8993   H         2 RES2   0.0000
   162 C85     15.6476   4.5387  11.3368   C.ar      2 RES2   0.0000
   163 H39     15.0241   5.2021  11.5211   H         2 RES2   0.0000
   164 C86     16.8467   4.5006  12.0322   C.ar      2 RES2   0.0000
   165 H40     17.0322   5.1406  12.6809   H         2 RES2   0.0000
   166 C87     17.7825   3.5079  11.7546   C.ar      2 RES2   0.0000
   167 H41     18.5883   3.4826  12.2191   H         2 RES2   0.0000
   168 C88     17.5129   2.5533  10.7815   C.ar      2 RES2   0.0000
   169 H42     18.1358   1.8881  10.5973   H         2 RES2   0.0000
   170 Fe9     11.3106   2.5589   1.1487   Fe        2 RES2   0.0000
   171 Fe10    10.2180   4.8681   1.6145   Fe        2 RES2   0.0000
   172 Fe11     9.9778   2.7036   5.3630   Fe        2 RES2   0.0000
   173 Fe12    12.2025   4.0572   5.2776   Fe        2 RES2   0.0000
   174 Fe13    12.7186   0.2274   7.4633   Fe        2 RES2   0.0000
   175 Fe14    13.4608  -0.1142   5.0036   Fe        2 RES2   0.0000
   176 Fe15    16.6397   2.2949   7.1143   Fe        2 RES2   0.0000
   177 Fe16    16.9741  -0.2736   7.3657   Fe        2 RES2   0.0000
   178 N5       9.3512   2.3615   1.1158   N.2       2 RES2   0.0000
   179 N6       7.4432   3.7763   1.1573   N.pl3     2 RES2   0.0000
   180 H43      7.1314   3.2306   0.5683   H         2 RES2   0.0000
   181 N7      16.4123   1.7824   8.9885   N.2       2 RES2   0.0000
   182 N8      16.5159  -0.0507  10.3171   N.pl3     2 RES2   0.0000
   183 H44     16.7405   0.5329  10.9113   H         2 RES2   0.0000
   184 O25     11.2172   2.7715  -1.7256   O.2       2 RES2   0.0000
   185 O26     11.9857  -0.3283   1.3545   O.2       2 RES2   0.0000
   186 O27     14.1238   3.4668   1.1262   O.2       2 RES2   0.0000
   187 O28      9.8070   5.6501  -1.2144   O.2       2 RES2   0.0000
   188 O29      8.6833   6.9518   3.0411   O.2       2 RES2   0.0000
   189 O30     12.6707   6.4156   1.7437   O.2       2 RES2   0.0000
   190 O31      8.1766   0.4806   4.7408   O.2       2 RES2   0.0000
   191 O32      7.9369   4.7609   5.1248   O.2       2 RES2   0.0000
   192 O33      9.6690   2.7228   8.2568   O.2       2 RES2   0.0000
   193 O34     11.2341   6.8002   4.9976   O.2       2 RES2   0.0000
   194 O35     14.8709   4.3555   4.1258   O.2       2 RES2   0.0000
   195 O36     12.6082   4.5417   8.1270   O.2       2 RES2   0.0000
   196 O37     10.0059  -0.8227   7.3226   O.2       2 RES2   0.0000
   197 O38     12.5742   1.7042   9.9642   O.2       2 RES2   0.0000
   198 O39     13.5435  -2.3792   8.4669   O.2       2 RES2   0.0000
   199 O40     11.0432  -1.4132   3.9701   O.2       2 RES2   0.0000
   200 O41     14.7716   0.8782   2.5870   O.2       2 RES2   0.0000
   201 O42     14.8329  -2.7197   5.0703   O.2       2 RES2   0.0000
   202 O43     17.3502   2.4352   4.2685   O.2       2 RES2   0.0000
   203 O44     15.5948   5.0238   7.2266   O.2       2 RES2   0.0000
   204 O45     19.3690   2.9413   7.8442   O.2       2 RES2   0.0000
   205 O46     16.4281  -3.0729   7.9039   O.2       2 RES2   0.0000
   206 O47     17.5983  -0.7931   4.5877   O.2       2 RES2   0.0000
   207 O48     19.7899  -0.1886   8.1452   O.2       2 RES2   0.0000
   208 Se4     10.9654   3.4278   3.3367   Se        2 RES2   0.0000
   209 Se5     12.1275   1.7279   5.7112   Se        2 RES2   0.0000
   210 Se6     14.9141   0.6853   6.7074   Se        2 RES2   0.0000
@<TRIPOS>BOND
     1     1    65    1
     2     2    65    1
     3     3    65    1
     4     4    66    1
     5     5    66    1
     6     6    66    1
     7     7    67    1
     8     8    67    1
     9     9    67    1
    10    10    68    1
    11    11    68    1
    12    12    68    1
    13    13    69    1
    14    14    69    1
    15    15    69    1
    16    16    70    1
    17    17    70    1
    18    18    70    1
    19    19    71    1
    20    20    71    1
    21    21    71    1
    22    22    72    1
    23    23    72    1
    24    24    72    1
    25    25    65    2
    26    26    27    1
    27    28    26    1
    28    29    26    1
    29    30    29    1
    30    31    29    2
    31    32    31    1
    32    33    31    1
    33    34    35   ar
    34    35    36    1
    35    37    35   ar
    36    38    37    1
    37    39    37   ar
    38    40    39    1
    39    41    39   ar
    40    42    41    1
    41    43    34   ar
    42    44    43    1
    43    45    71    2
    44    46    47    1
    45    48    46    1
    46    49    46    1
    47    50    49    1
    48    51    49    2
    49    52    51    1
    50    53    51    1
    51    54    55   ar
    52    55    56    1
    53    57    55   ar
    54    58    57    1
    55    59    57   ar
    56    60    59    1
    57    61    59   ar
    58    62    61    1
    59    63    54   ar
    60    64    63    1
    61    65    66    1
    62    66    73    1
    63    67    68    1
    64    68   103    1
    65    69    70    1
    66    70   104    1
    67    71    72    1
    68    72    76    1
    69    73    25    1
    70    74    25    1
    71    75    74    1
    72    76    45    1
    73    77    45    1
    74    78    77    1
    75    79     1    3
    76    80     2    3
    77    81     3    3
    78    82     4    3
    79    83     5    3
    80    84     6    3
    81    85     7    3
    82    86     8    3
    83    87     9    3
    84    88    10    3
    85    89    11    3
    86    90    12    3
    87    91    13    3
    88    92    14    3
    89    93    15    3
    90    94    16    3
    91    95    17    3
    92    96    18    3
    93    97    19    3
    94    98    20    3
    95    99    21    3
    96   100    22    3
    97   101    23    3
    98   102    24    3
    99   103    65    1
   100   104    67    1
   101   105    69    1
   102    26    74    1
   103    34    73    1
   104    41    43   ar
   105    46    77    1
   106    54    76    1
   107    61    63   ar
   108    66   103    1
   109    67   103    1
   110    68   104    1
   111    69   104    1
   112    70   105    1
   113    71   105    1
   114    72   105    1
   115   106   170    1
   116   107   170    1
   117   108   170    1
   118   109   171    1
   119   110   171    1
   120   111   171    1
   121   112   172    1
   122   113   172    1
   123   114   172    1
   124   115   173    1
   125   116   173    1
   126   117   173    1
   127   118   174    1
   128   119   174    1
   129   120   174    1
   130   121   175    1
   131   122   175    1
   132   123   175    1
   133   124   176    1
   134   125   176    1
   135   126   176    1
   136   127   177    1
   137   128   177    1
   138   129   177    1
   139   130   171    2
   140   131   132    1
   141   133   131    1
   142   134   131    1
   143   135   134    1
   144   136   134    2
   145   137   136    1
   146   138   136    1
   147   139   140   ar
   148   140   141    1
   149   142   140   ar
   150   143   142    1
   151   144   142   ar
   152   145   144    1
   153   146   144   ar
   154   147   146    1
   155   148   139   ar
   156   149   148    1
   157   150   177    2
   158   151   152    1
   159   153   151    1
   160   154   151    1
   161   155   154    1
   162   156   154    2
   163   157   156    1
   164   158   156    1
   165   159   160   ar
   166   160   161    1
   167   162   160   ar
   168   163   162    1
   169   164   162   ar
   170   165   164    1
   171   166   164   ar
   172   167   166    1
   173   168   159   ar
   174   169   168    1
   175   170   171    1
   176   171   208    1
   177   172   173    1
   178   173   208    1
   179   174   175    1
   180   175   209    1
   181   176   177    1
   182   177   210    1
   183   178   130    1
   184   179   130    1
   185   180   179    1
   186   181   150    1
   187   182   150    1
   188   183   182    1
   189   184   106    3
   190   185   107    3
   191   186   108    3
   192   187   109    3
   193   188   110    3
   194   189   111    3
   195   190   112    3
   196   191   113    3
   197   192   114    3
   198   193   115    3
   199   194   116    3
   200   195   117    3
   201   196   118    3
   202   197   119    3
   203   198   120    3
   204   199   121    3
   205   200   122    3
   206   201   123    3
   207   202   124    3
   208   203   125    3
   209   204   126    3
   210   205   127    3
   211   206   128    3
   212   207   129    3
   213   208   170    1
   214   209   172    1
   215   210   174    1
   216   131   179    1
   217   139   178    1
   218   146   148   ar
   219   151   182    1
   220   159   181    1
   221   166   168   ar
   222   170   178    1
   223   172   208    1
   224   173   209    1
   225   174   209    1
   226   175   210    1
   227   176   181    1
   228   176   210    1
@<TRIPOS>SUBSTRUCTURE
     1 RES1        1 GROUP             0 ****  ****    0  
     2 RES2      106 GROUP             0 ****  ****    0  
@<TRIPOS>CRYSIN
   12.6683   19.2230   27.3140   74.0050   77.0940   72.3880     2     1
