@<TRIPOS>MOLECULE
ILAZEC
   109   119     4     0     0
SMALL
USER_CHARGES
****
Generated from the CSD

@<TRIPOS>ATOM
     1 Fe1      4.6071   9.1962  10.7287   Fe        1 RES1   2.0000
     2 N1       1.6071   8.1567   9.6308   N.pl3     1 RES1   0.0000
     3 N2       2.5595   9.0793   9.9440   N.2       1 RES1   0.0000
     4 N3       4.1008  11.1676  10.1710   N.ar      1 RES1   0.0000
     5 N4       6.3063  10.3972  11.3166   N.2       1 RES1   0.0000
     6 N5       7.4938  10.2506  11.9325   N.pl3     1 RES1   0.0000
     7 N6       5.7244   8.8714   7.5832   N.pl3     1 RES1   0.0000
     8 H1       5.7073   9.7215   7.3517   H         1 RES1   0.0000
     9 N7       5.3612   8.4258   8.7969   N.2       1 RES1   0.0000
    10 N8       4.8888   7.0930  10.9912   N.ar      1 RES1   0.0000
    11 N9       4.1049   8.7841  12.7891   N.2       1 RES1   0.0000
    12 N10      3.7960   9.4747  13.9074   N.pl3     1 RES1   0.0000
    13 H2       3.7086  10.3490  13.9392   H         1 RES1   0.0000
    14 C1       1.7770   6.7663  10.0091   C.3       1 RES1   0.0000
    15 H3       2.5125   6.3746   9.4946   H         1 RES1   0.0000
    16 H4       0.9495   6.2744   9.8245   H         1 RES1   0.0000
    17 H5       1.9827   6.7106  10.9655   H         1 RES1   0.0000
    18 C2       0.5941   8.7247   9.0088   C.2       1 RES1   0.0000
    19 H6      -0.1769   8.2680   8.6925   H         1 RES1   0.0000
    20 C3       0.8168  10.0761   8.8862   C.2       1 RES1   0.0000
    21 H7       0.2537  10.7332   8.4943   H         1 RES1   0.0000
    22 C4       2.0768  10.2487   9.4779   C.2       1 RES1   0.0000
    23 C5       2.9088  11.4256   9.6277   C.ar      1 RES1   0.0000
    24 C6       2.5502  12.7139   9.2509   C.ar      1 RES1   0.0000
    25 H8       1.7023  12.8959   8.8635   H         1 RES1   0.0000
    26 C7       3.4816  13.7275   9.4628   C.ar      1 RES1   0.0000
    27 H9       3.2701  14.6185   9.2085   H         1 RES1   0.0000
    28 C8       4.6906  13.4602  10.0303   C.ar      1 RES1   0.0000
    29 H10      5.3193  14.1563  10.1846   H         1 RES1   0.0000
    30 C9       4.9849  12.1515  10.3783   C.ar      1 RES1   0.0000
    31 C10      6.2173  11.7078  11.0230   C.2       1 RES1   0.0000
    32 C11      7.3613  12.3854  11.4452   C.2       1 RES1   0.0000
    33 H11      7.5594  13.3117  11.3559   H         1 RES1   0.0000
    34 C12      8.1365  11.4052  12.0158   C.2       1 RES1   0.0000
    35 H12      8.9931  11.5352  12.4062   H         1 RES1   0.0000
    36 C13      7.8671   8.9456  12.4607   C.3       1 RES1   0.0000
    37 H13      7.3354   8.7525  13.2612   H         1 RES1   0.0000
    38 H14      8.8189   8.9475  12.6937   H         1 RES1   0.0000
    39 H15      7.6981   8.2588  11.7827   H         1 RES1   0.0000
    40 C14      7.1928   9.2965   5.0272   C.ar      1 RES1   0.0000
    41 H16      7.2833   9.9870   5.6719   H         1 RES1   0.0000
    42 C15      7.6672   9.5099   3.7107   C.ar      1 RES1   0.0000
    43 C16      8.2831  10.7147   3.3444   C.ar      1 RES1   0.0000
    44 H17      8.3621  11.4164   3.9785   H         1 RES1   0.0000
    45 C17      8.7675  10.8817   2.0854   C.ar      1 RES1   0.0000
    46 H18      9.2002  11.6948   1.8538   H         1 RES1   0.0000
    47 C18      8.6365   9.8645   1.1199   C.ar      1 RES1   0.0000
    48 H19      8.9749   9.9944   0.2406   H         1 RES1   0.0000
    49 C19      8.0263   8.6987   1.4467   C.ar      1 RES1   0.0000
    50 H20      7.9221   8.0230   0.7884   H         1 RES1   0.0000
    51 C20      7.5390   8.4722   2.7648   C.ar      1 RES1   0.0000
    52 C21      6.9160   7.2656   3.1538   C.ar      1 RES1   0.0000
    53 H21      6.8099   6.5714   2.5151   H         1 RES1   0.0000
    54 C22      6.4668   7.0781   4.4174   C.ar      1 RES1   0.0000
    55 H22      6.0586   6.2558   4.6565   H         1 RES1   0.0000
    56 C23      6.6038   8.1103   5.3889   C.ar      1 RES1   0.0000
    57 C24      6.1233   7.8727   6.7539   C.2       1 RES1   0.0000
    58 C25      6.0066   6.7032   7.4773   C.2       1 RES1   0.0000
    59 H23      6.2056   5.8233   7.1792   H         1 RES1   0.0000
    60 C26      5.5358   7.0781   8.7364   C.2       1 RES1   0.0000
    61 C27      5.2283   6.3189   9.9365   C.ar      1 RES1   0.0000
    62 C28      5.2222   4.9322  10.0227   C.ar      1 RES1   0.0000
    63 H24      5.4731   4.3976   9.2782   H         1 RES1   0.0000
    64 C29      4.8390   4.3494  11.2213   C.ar      1 RES1   0.0000
    65 H25      4.8097   3.4045  11.3030   H         1 RES1   0.0000
    66 C30      4.4979   5.1569  12.3003   C.ar      1 RES1   0.0000
    67 H26      4.2401   4.7707  13.1296   H         1 RES1   0.0000
    68 C31      4.5405   6.5268  12.1474   C.ar      1 RES1   0.0000
    69 C32      4.1619   7.4940  13.1810   C.2       1 RES1   0.0000
    70 C33      3.8654   7.3640  14.5279   C.2       1 RES1   0.0000
    71 H27      3.8266   6.5621  15.0363   H         1 RES1   0.0000
    72 C34      3.6377   8.6579  14.9758   C.2       1 RES1   0.0000
    73 C35      3.3348   9.1350  16.3227   C.ar      1 RES1   0.0000
    74 C36      2.6952   8.2996  17.2004   C.ar      1 RES1   0.0000
    75 H28      2.4183   7.4383  16.9098   H         1 RES1   0.0000
    76 C37      2.4413   8.7043  18.5351   C.ar      1 RES1   0.0000
    77 C38      1.7843   7.8411  19.4340   C.ar      1 RES1   0.0000
    78 H29      1.4991   6.9835  19.1465   H         1 RES1   0.0000
    79 C39      1.5566   8.2402  20.7234   C.ar      1 RES1   0.0000
    80 H30      1.1057   7.6629  21.3272   H         1 RES1   0.0000
    81 C40      1.9865   9.4951  21.1456   C.ar      1 RES1   0.0000
    82 H31      1.8363   9.7587  22.0460   H         1 RES1   0.0000
    83 C41      2.6169  10.3471  20.3012   C.ar      1 RES1   0.0000
    84 H32      2.8933  11.2010  20.6114   H         1 RES1   0.0000
    85 C42      2.8668   9.9740  18.9513   C.ar      1 RES1   0.0000
    86 C43      3.5134  10.8205  18.0388   C.ar      1 RES1   0.0000
    87 H33      3.7953  11.6837  18.3142   H         1 RES1   0.0000
    88 C44      3.7433  10.4102  16.7524   C.ar      1 RES1   0.0000
    89 H34      4.1832  10.9931  16.1441   H         1 RES1   0.0000
    90 Cl1      6.5360  12.7951   6.8175   Cl        2 RES2   0.0000
    91 O1       6.1691  12.9386   5.4585   O.2       2 RES2   0.0000
    92 O2       6.3649  14.0171   7.5076   O.2       2 RES2   0.0000
    93 O3       7.9190  12.4132   6.8674   O.2       2 RES2   0.0000
    94 O4       5.7719  11.7431   7.4410   O.3       2 RES2  -1.0000
    95 Cl2      2.9794  13.3267  13.5742   Cl        3 RES3   0.0000
    96 O5       1.9653  13.9094  12.7754   O.2       3 RES3   0.0000
    97 O6       4.1250  14.1916  13.5291   O.3       3 RES3  -1.0000
    98 O7       3.3428  12.0587  13.0433   O.2       3 RES3   0.0000
    99 O8       2.5338  13.1836  14.8820   O.2       3 RES3   0.0000
   100 O9       7.3059   6.3189  13.8529   O.2       4 RES4   0.0000
   101 C45      8.7650   4.5703  13.3142   C.3       4 RES4   0.0000
   102 H35      8.9941   5.1309  12.5454   H         4 RES4   0.0000
   103 H36      8.4098   3.7126  12.9994   H         4 RES4   0.0000
   104 H37      9.5679   4.4125  13.8544   H         4 RES4   0.0000
   105 C46      7.7375   5.2590  14.1435   C.2       4 RES4   0.0000
   106 C47      7.2442   4.5368  15.3511   C.3       4 RES4   0.0000
   107 H38      7.7925   4.7819  16.1244   H         4 RES4   0.0000
   108 H39      7.3059   3.5697  15.2013   H         4 RES4   0.0000
   109 H40      6.3110   4.7819  15.5191   H         4 RES4   0.0000
@<TRIPOS>BOND
     1     1     3    1
     2     2     3    1
     3     3    22    2
     4     4     1    1
     5     5     1    1
     6     6     5    1
     7     7     8    1
     8     9     1    1
     9    10     1    1
    10    11     1    1
    11    12    11    1
    12    13    12    1
    13    14     2    1
    14    15    14    1
    15    16    14    1
    16    17    14    1
    17    18     2    1
    18    19    18    1
    19    20    18    2
    20    21    20    1
    21    22    20    1
    22    23     4   ar
    23    24    23   ar
    24    25    24    1
    25    26    24   ar
    26    27    26    1
    27    28    26   ar
    28    29    28    1
    29    30     4   ar
    30    31     5    2
    31    32    31    1
    32    33    32    1
    33    34     6    1
    34    35    34    1
    35    36     6    1
    36    37    36    1
    37    38    36    1
    38    39    36    1
    39    40    41    1
    40    42    40   ar
    41    43    42   ar
    42    44    43    1
    43    45    43   ar
    44    46    45    1
    45    47    45   ar
    46    48    47    1
    47    49    47   ar
    48    50    49    1
    49    51    42   ar
    50    52    51   ar
    51    53    52    1
    52    54    52   ar
    53    55    54    1
    54    56    40   ar
    55    57     7    1
    56    58    57    2
    57    59    58    1
    58    60     9    2
    59    61    10   ar
    60    62    61   ar
    61    63    62    1
    62    64    62   ar
    63    65    64    1
    64    66    64   ar
    65    67    66    1
    66    68    10   ar
    67    69    11    2
    68    70    69    1
    69    71    70    1
    70    72    12    1
    71    73    72    1
    72    74    73   ar
    73    75    74    1
    74    76    74   ar
    75    77    76   ar
    76    78    77    1
    77    79    77   ar
    78    80    79    1
    79    81    79   ar
    80    82    81    1
    81    83    81   ar
    82    84    83    1
    83    85    76   ar
    84    86    85   ar
    85    87    86    1
    86    88    73   ar
    87    89    88    1
    88     7     9    1
    89    22    23    1
    90    28    30   ar
    91    30    31    1
    92    32    34    2
    93    49    51   ar
    94    54    56   ar
    95    56    57    1
    96    58    60    1
    97    60    61    1
    98    66    68   ar
    99    68    69    1
   100    70    72    2
   101    83    85   ar
   102    86    88   ar
   103    90    91    2
   104    92    90    2
   105    93    90    2
   106    94    90    1
   107    95    96    2
   108    97    95    1
   109    98    95    2
   110    99    95    2
   111   100   105    2
   112   101   102    1
   113   103   101    1
   114   104   101    1
   115   105   101    1
   116   106   105    1
   117   107   106    1
   118   108   106    1
   119   109   106    1
@<TRIPOS>SUBSTRUCTURE
     1 RES1        1 GROUP             0 ****  ****    0  
     2 RES2       90 GROUP             0 ****  ****    0  
     3 RES3       95 GROUP             0 ****  ****    0  
     4 RES4      100 GROUP             0 ****  ****    0  
@<TRIPOS>CRYSIN
    8.0590   18.5632   15.1624   90.0000   93.5570   90.0000     4     1
