@<TRIPOS>MOLECULE
ILUROX01
   116   120     5     0     0
SMALL
USER_CHARGES
****
Generated from the CSD

@<TRIPOS>ATOM
     1 P1       2.2653   1.1387   1.6738   P.3       1 RES1   1.0000
     2 C1       3.5169   1.9218   2.6929   C.ar      1 RES1   0.0000
     3 C2       3.9285   1.3187   3.8795   C.ar      1 RES1   0.0000
     4 C3       4.8994   1.9248   4.6723   C.ar      1 RES1   0.0000
     5 C4       5.4362   3.1353   4.2885   C.ar      1 RES1   0.0000
     6 C5       5.0154   3.7406   3.1455   C.ar      1 RES1   0.0000
     7 C6       4.0704   3.1450   2.3477   C.ar      1 RES1   0.0000
     8 C7       1.8543   2.2814   0.3548   C.ar      1 RES1   0.0000
     9 C8       0.6811   3.0253   0.3758   C.ar      1 RES1   0.0000
    10 C9       0.4290   3.9659  -0.6089   C.ar      1 RES1   0.0000
    11 C10      1.3545   4.1788  -1.6040   C.ar      1 RES1   0.0000
    12 C11      2.5313   3.4536  -1.6396   C.ar      1 RES1   0.0000
    13 C12      2.7771   2.5063  -0.6697   C.ar      1 RES1   0.0000
    14 C13      2.7876  -0.4404   0.9833   C.ar      1 RES1   0.0000
    15 C14      2.4918  -0.7772  -0.3309   C.ar      1 RES1   0.0000
    16 C15      2.7079  -2.0534  -0.7885   C.ar      1 RES1   0.0000
    17 C16      3.2106  -3.0136   0.0507   C.ar      1 RES1   0.0000
    18 C17      3.5151  -2.7058   1.3524   C.ar      1 RES1   0.0000
    19 C18      3.3185  -1.4166   1.8160   C.ar      1 RES1   0.0000
    20 C19      0.8330   0.8136   2.7118   C.ar      1 RES1   0.0000
    21 C20      0.1586  -0.4082   2.6470   C.ar      1 RES1   0.0000
    22 C21     -0.9704  -0.6022   3.4200   C.ar      1 RES1   0.0000
    23 C22     -1.4443   0.4055   4.2192   C.ar      1 RES1   0.0000
    24 C23     -0.7763   1.6073   4.2921   C.ar      1 RES1   0.0000
    25 C24      0.3572   1.8166   3.5362   C.ar      1 RES1   0.0000
    26 H1       3.5505   0.4998   4.1451   H         1 RES1   0.0000
    27 H2       5.1865   1.5112   5.4657   H         1 RES1   0.0000
    28 H3       6.0959   3.5432   4.8193   H         1 RES1   0.0000
    29 H4       5.3756   4.5741   2.8997   H         1 RES1   0.0000
    30 H5       3.7940   3.5715   1.5569   H         1 RES1   0.0000
    31 H6       0.0545   2.8895   1.0629   H         1 RES1   0.0000
    32 H7      -0.3717   4.4574  -0.5974   H         1 RES1   0.0000
    33 H8       1.1857   4.8235  -2.2667   H         1 RES1   0.0000
    34 H9       3.1604   3.6053  -2.3214   H         1 RES1   0.0000
    35 H10      3.5723   2.0062  -0.6976   H         1 RES1   0.0000
    36 H11      2.1423  -0.1263  -0.9116   H         1 RES1   0.0000
    37 H12      2.5092  -2.2698  -1.6814   H         1 RES1   0.0000
    38 H13      3.3476  -3.8873  -0.2675   H         1 RES1   0.0000
    39 H14      3.8559  -3.3677   1.9267   H         1 RES1   0.0000
    40 H15      3.5456  -1.2001   2.7020   H         1 RES1   0.0000
    41 H16      0.4710  -1.0920   2.0828   H         1 RES1   0.0000
    42 H17     -1.4162  -1.4298   3.3973   H         1 RES1   0.0000
    43 H18     -2.2294   0.2764   4.7198   H         1 RES1   0.0000
    44 H19     -1.0932   2.2864   4.8590   H         1 RES1   0.0000
    45 H20      0.8072   2.6406   3.5811   H         1 RES1   0.0000
    46 P2       2.0567   2.8589   9.9972   P.3       2 RES2   1.0000
    47 C25      3.1482   2.1832  11.2373   C.ar      2 RES2   0.0000
    48 C26      3.9336   3.0235  12.0083   C.ar      2 RES2   0.0000
    49 C27      4.7276   2.5126  13.0181   C.ar      2 RES2   0.0000
    50 C28      4.7289   1.1698  13.2505   C.ar      2 RES2   0.0000
    51 C29      3.9495   0.3199  12.5185   C.ar      2 RES2   0.0000
    52 C30      3.1606   0.8220  11.4983   C.ar      2 RES2   0.0000
    53 C31      1.7575   1.5929   8.7497   C.ar      2 RES2   0.0000
    54 C32      2.8343   1.0525   8.0769   C.ar      2 RES2   0.0000
    55 C33      2.6417   0.0176   7.1663   C.ar      2 RES2   0.0000
    56 C34      1.3817  -0.4739   6.9215   C.ar      2 RES2   0.0000
    57 C35      0.3113   0.0548   7.5899   C.ar      2 RES2   0.0000
    58 C36      0.4993   1.0826   8.5130   C.ar      2 RES2   0.0000
    59 C37      0.5065   3.3218  10.7811   C.ar      2 RES2   0.0000
    60 C38     -0.5539   3.7973  10.0096   C.ar      2 RES2   0.0000
    61 C39     -1.7444   4.1218  10.6269   C.ar      2 RES2   0.0000
    62 C40     -1.8891   3.9763  11.9753   C.ar      2 RES2   0.0000
    63 C41     -0.8489   3.5201  12.7559   C.ar      2 RES2   0.0000
    64 C42      0.3554   3.1802  12.1601   C.ar      2 RES2   0.0000
    65 C43      2.8551   4.3300   9.3180   C.ar      2 RES2   0.0000
    66 C44      2.2028   5.5476   9.2161   C.ar      2 RES2   0.0000
    67 C45      2.8732   6.6536   8.7294   C.ar      2 RES2   0.0000
    68 C46      4.1877   6.5557   8.3401   C.ar      2 RES2   0.0000
    69 C47      4.8427   5.3515   8.4267   C.ar      2 RES2   0.0000
    70 C48      4.1880   4.2320   8.9259   C.ar      2 RES2   0.0000
    71 H21      3.9263   3.9492  11.8438   H         2 RES2   0.0000
    72 H22      5.2614   3.0854  13.5388   H         2 RES2   0.0000
    73 H23      5.2781   0.8212  13.9290   H         2 RES2   0.0000
    74 H24      3.9492  -0.6014  12.7066   H         2 RES2   0.0000
    75 H25      2.6321   0.2394  10.9826   H         2 RES2   0.0000
    76 H26      3.6997   1.3836   8.2342   H         2 RES2   0.0000
    77 H27      3.3808  -0.3480   6.7144   H         2 RES2   0.0000
    78 H28      1.2568  -1.1669   6.2994   H         2 RES2   0.0000
    79 H29     -0.5535  -0.2768   7.4266   H         2 RES2   0.0000
    80 H30     -0.2398   1.4312   8.9782   H         2 RES2   0.0000
    81 H31     -0.4584   3.8949   9.0794   H         2 RES2   0.0000
    82 H32     -2.4615   4.4472  10.1131   H         2 RES2   0.0000
    83 H33     -2.7112   4.1899  12.3791   H         2 RES2   0.0000
    84 H34     -0.9559   3.4392  13.6864   H         2 RES2   0.0000
    85 H35      1.0666   2.8556  12.6827   H         2 RES2   0.0000
    86 H36      1.3034   5.6216   9.4786   H         2 RES2   0.0000
    87 H37      2.4271   7.4777   8.6636   H         2 RES2   0.0000
    88 H38      4.6391   7.3139   8.0148   H         2 RES2   0.0000
    89 H39      5.7376   5.2846   8.1470   H         2 RES2   0.0000
    90 H40      4.6429   3.4121   8.9988   H         2 RES2   0.0000
    91 Fe1      8.5022   6.1858   5.5599   Fe        3 RES3   0.0000
    92 N1       8.3875   4.8258   2.7608   N.1       3 RES3   0.0000
    93 N2       7.7725   3.5482   6.9836   N.1       3 RES3   0.0000
    94 N3       5.5141   6.8408   5.1932   N.1       3 RES3   0.0000
    95 N4       8.5368   7.4388   8.4095   N.1       3 RES3   0.0000
    96 N5       9.1923   8.9896   4.4518   N.1       3 RES3   0.0000
    97 N6      10.4492   5.7428   5.6560   N.2       3 RES3   0.0000
    98 N7      12.6264   5.8703   5.4076   N.pl3     3 RES3   0.0000
    99 C49      8.4134   5.3309   3.8035   C.1       3 RES3  -1.0000
   100 C50      8.0422   4.5165   6.4271   C.1       3 RES3  -1.0000
   101 C51      6.6356   6.5983   5.3445   C.1       3 RES3   0.0000
   102 C52      8.4947   6.9895   7.3487   C.1       3 RES3   0.0000
   103 C53      8.9060   7.9261   4.8104   C.1       3 RES3   0.0000
   104 C54     11.4723   6.5397   5.3797   C.2       3 RES3   0.0000
   105 C55     12.3413   4.5786   5.7311   C.2       3 RES3   0.0000
   106 C56     11.0104   4.5008   5.8872   C.2       3 RES3   0.0000
   107 H41     11.3945   7.4573   5.1889   H         3 RES3   0.0000
   108 H42     12.9577   3.8756   5.8265   H         3 RES3   0.0000
   109 H43     13.4159   6.1982   5.2484   H         3 RES3   0.0000
   110 H44     10.5344   3.7239   6.1179   H         3 RES3   0.0000
   111 O1      10.3273   9.6379   7.1775   O.3       4 RES4   0.0000
   112 H45      9.8308   9.3130   7.6026   H         4 RES4   0.0000
   113 H46      9.8951   9.4110   6.4311   H         4 RES4   0.0000
   114 O2       6.1514   1.6036   8.2431   O.3       5 RES5   0.0000
   115 H47      6.3237   0.8750   7.7747   H         5 RES5   0.0000
   116 H48      6.7403   2.1416   7.8919   H         5 RES5   0.0000
@<TRIPOS>BOND
     1     1     2    1
     2     2     3   ar
     3     3     4   ar
     4     4     5   ar
     5     5     6   ar
     6     6     7   ar
     7     7     2   ar
     8     8     1    1
     9     9     8   ar
    10    10     9   ar
    11    11    10   ar
    12    12    11   ar
    13    13     8   ar
    14    14     1    1
    15    15    14   ar
    16    16    15   ar
    17    17    16   ar
    18    18    17   ar
    19    19    14   ar
    20    20     1    1
    21    21    20   ar
    22    22    21   ar
    23    23    22   ar
    24    24    23   ar
    25    25    20   ar
    26    26     3    1
    27    27     4    1
    28    28     5    1
    29    29     6    1
    30    30     7    1
    31    31     9    1
    32    32    10    1
    33    33    11    1
    34    34    12    1
    35    35    13    1
    36    36    15    1
    37    37    16    1
    38    38    17    1
    39    39    18    1
    40    40    19    1
    41    41    21    1
    42    42    22    1
    43    43    23    1
    44    44    24    1
    45    45    25    1
    46    12    13   ar
    47    18    19   ar
    48    24    25   ar
    49    46    47    1
    50    47    48   ar
    51    48    49   ar
    52    49    50   ar
    53    50    51   ar
    54    51    52   ar
    55    52    47   ar
    56    53    46    1
    57    54    53   ar
    58    55    54   ar
    59    56    55   ar
    60    57    56   ar
    61    58    53   ar
    62    59    46    1
    63    60    59   ar
    64    61    60   ar
    65    62    61   ar
    66    63    62   ar
    67    64    59   ar
    68    65    46    1
    69    66    65   ar
    70    67    66   ar
    71    68    67   ar
    72    69    68   ar
    73    70    65   ar
    74    71    48    1
    75    72    49    1
    76    73    50    1
    77    74    51    1
    78    75    52    1
    79    76    54    1
    80    77    55    1
    81    78    56    1
    82    79    57    1
    83    80    58    1
    84    81    60    1
    85    82    61    1
    86    83    62    1
    87    84    63    1
    88    85    64    1
    89    86    66    1
    90    87    67    1
    91    88    68    1
    92    89    69    1
    93    90    70    1
    94    57    58   ar
    95    63    64   ar
    96    69    70   ar
    97    91    97    1
    98    92    99    3
    99    93   100    3
   100    94   101    3
   101    95   102    3
   102    96   103    3
   103    97   104    2
   104    98   104    1
   105    99    91    1
   106   100    91    1
   107   101    91    1
   108   102    91    1
   109   103    91    1
   110   104   107    1
   111   105    98    1
   112   106    97    1
   113   108   105    1
   114   109    98    1
   115   110   106    1
   116   105   106    2
   117   111   112    1
   118   113   111    1
   119   114   115    1
   120   116   114    1
@<TRIPOS>SUBSTRUCTURE
     1 RES1        1 GROUP             0 ****  ****    0  
     2 RES2       46 GROUP             0 ****  ****    0  
     3 RES3       91 GROUP             0 ****  ****    0  
     4 RES4      111 GROUP             0 ****  ****    0  
     5 RES5      114 GROUP             0 ****  ****    0  
@<TRIPOS>CRYSIN
    9.8152   11.2371   23.9820   87.2440   85.7190   70.9130     2     1
