@<TRIPOS>MOLECULE
ILUROX
   116   120     5     0     0
SMALL
USER_CHARGES
****
Generated from the CSD

@<TRIPOS>ATOM
     1 P1       2.2703   1.1336   1.6587   P.3       1 RES1   1.0000
     2 C1       0.8407   0.8036   2.6853   C.ar      1 RES1   0.0000
     3 C2       0.1766  -0.4329   2.6387   C.ar      1 RES1   0.0000
     4 C3      -0.9569  -0.6261   3.4000   C.ar      1 RES1   0.0000
     5 C4      -1.4557   0.3925   4.1918   C.ar      1 RES1   0.0000
     6 C5      -0.7977   1.6073   4.2607   C.ar      1 RES1   0.0000
     7 C6       0.3446   1.8158   3.5205   C.ar      1 RES1   0.0000
     8 C7       1.8532   2.2796   0.3352   C.ar      1 RES1   0.0000
     9 C8       0.6754   3.0300   0.3796   C.ar      1 RES1   0.0000
    10 C9       0.4323   3.9723  -0.6118   C.ar      1 RES1   0.0000
    11 C10      1.3522   4.1846  -1.6239   C.ar      1 RES1   0.0000
    12 C11      2.5355   3.4481  -1.6584   C.ar      1 RES1   0.0000
    13 C12      2.7804   2.4946  -0.6972   C.ar      1 RES1   0.0000
    14 C13      3.5271   1.9218   2.6817   C.ar      1 RES1   0.0000
    15 C14      4.0911   3.1398   2.3223   C.ar      1 RES1   0.0000
    16 C15      5.0482   3.7381   3.1248   C.ar      1 RES1   0.0000
    17 C16      5.4511   3.1215   4.2854   C.ar      1 RES1   0.0000
    18 C17      4.9036   1.9102   4.6639   C.ar      1 RES1   0.0000
    19 C18      3.9191   1.3144   3.8780   C.ar      1 RES1   0.0000
    20 C19      2.7945  -0.4425   0.9548   C.ar      1 RES1   0.0000
    21 C20      3.3481  -1.4126   1.7956   C.ar      1 RES1   0.0000
    22 C21      3.5407  -2.7026   1.3261   C.ar      1 RES1   0.0000
    23 C22      3.1961  -3.0203   0.0159   C.ar      1 RES1   0.0000
    24 C23      2.6781  -2.0576  -0.8258   C.ar      1 RES1   0.0000
    25 C24      2.4643  -0.7709  -0.3623   C.ar      1 RES1   0.0000
    26 H1       0.5064  -1.1314   2.0858   H         1 RES1   0.0000
    27 H2      -1.3997  -1.4670   3.3803   H         1 RES1   0.0000
    28 H3      -2.2535   0.2576   4.6900   H         1 RES1   0.0000
    29 H4      -1.1332   2.2986   4.8191   H         1 RES1   0.0000
    30 H5       0.7992   2.6483   3.5759   H         1 RES1   0.0000
    31 H6       0.0478   2.8967   1.0801   H         1 RES1   0.0000
    32 H7      -0.3732   4.4761  -0.5947   H         1 RES1   0.0000
    33 H8       1.1771   4.8334  -2.2957   H         1 RES1   0.0000
    34 H9       3.1726   3.6041  -2.3456   H         1 RES1   0.0000
    35 H10      3.5778   1.9799  -0.7323   H         1 RES1   0.0000
    36 H11      3.8184   3.5661   1.5184   H         1 RES1   0.0000
    37 H12      5.4254   4.5725   2.8735   H         1 RES1   0.0000
    38 H13      6.1120   3.5309   4.8317   H         1 RES1   0.0000
    39 H14      5.1980   1.4840   5.4604   H         1 RES1   0.0000
    40 H15      3.5171   0.4986   4.1535   H         1 RES1   0.0000
    41 H16      3.5920  -1.1880   2.6860   H         1 RES1   0.0000
    42 H17      3.9061  -3.3679   1.8973   H         1 RES1   0.0000
    43 H18      3.3187  -3.9074  -0.3016   H         1 RES1   0.0000
    44 H19      2.4682  -2.2786  -1.7257   H         1 RES1   0.0000
    45 H20      2.0943  -0.1125  -0.9384   H         1 RES1   0.0000
    46 P2       2.0542   2.8412   9.9158   P.3       2 RES2   1.0000
    47 C25      2.8605   4.3192   9.2497   C.ar      2 RES2   0.0000
    48 C26      4.2054   4.2171   8.8692   C.ar      2 RES2   0.0000
    49 C27      4.8598   5.3412   8.3767   C.ar      2 RES2   0.0000
    50 C28      4.1872   6.5416   8.2854   C.ar      2 RES2   0.0000
    51 C29      2.8649   6.6372   8.6581   C.ar      2 RES2   0.0000
    52 C30      2.1910   5.5234   9.1423   C.ar      2 RES2   0.0000
    53 C31      0.5091   3.2990  10.7152   C.ar      2 RES2   0.0000
    54 C32     -0.5639   3.7747   9.9559   C.ar      2 RES2   0.0000
    55 C33     -1.7603   4.0967  10.5799   C.ar      2 RES2   0.0000
    56 C34     -1.8959   3.9522  11.9521   C.ar      2 RES2   0.0000
    57 C35     -0.8247   3.4933  12.7120   C.ar      2 RES2   0.0000
    58 C36      0.3722   3.1674  12.1014   C.ar      2 RES2   0.0000
    59 C37      1.7443   1.5832   8.6562   C.ar      2 RES2   0.0000
    60 C38      0.4674   1.0788   8.4171   C.ar      2 RES2   0.0000
    61 C39      0.2831   0.0611   7.4884   C.ar      2 RES2   0.0000
    62 C40      1.3750  -0.4718   6.8172   C.ar      2 RES2   0.0000
    63 C41      2.6533   0.0087   7.0698   C.ar      2 RES2   0.0000
    64 C42      2.8449   1.0419   7.9831   C.ar      2 RES2   0.0000
    65 C43      3.1490   2.1417  11.1449   C.ar      2 RES2   0.0000
    66 C44      3.1498   0.7774  11.3874   C.ar      2 RES2   0.0000
    67 C45      3.9379   0.2553  12.4042   C.ar      2 RES2   0.0000
    68 C46      4.7335   1.0916  13.1568   C.ar      2 RES2   0.0000
    69 C47      4.7394   2.4521  12.9319   C.ar      2 RES2   0.0000
    70 C48      3.9549   2.9850  11.9267   C.ar      2 RES2   0.0000
    71 H21      4.6652   3.3895   8.9467   H         2 RES2   0.0000
    72 H22      5.7675   5.2818   8.1038   H         2 RES2   0.0000
    73 H23      4.6407   7.3115   7.9621   H         2 RES2   0.0000
    74 H24      2.4110   7.4679   8.5832   H         2 RES2   0.0000
    75 H25      1.2787   5.5891   9.3976   H         2 RES2   0.0000
    76 H26     -0.4739   3.8783   9.0159   H         2 RES2   0.0000
    77 H27     -2.4915   4.4170  10.0643   H         2 RES2   0.0000
    78 H28     -2.7203   4.1661  12.3736   H         2 RES2   0.0000
    79 H29     -0.9158   3.4027  13.6533   H         2 RES2   0.0000
    80 H30      1.1019   2.8545  12.6231   H         2 RES2   0.0000
    81 H31     -0.2780   1.4302   8.8896   H         2 RES2   0.0000
    82 H32     -0.5900  -0.2698   7.3130   H         2 RES2   0.0000
    83 H33      1.2471  -1.1672   6.1827   H         2 RES2   0.0000
    84 H34      3.3989  -0.3686   6.6182   H         2 RES2   0.0000
    85 H35      3.7184   1.3778   8.1480   H         2 RES2   0.0000
    86 H36      2.6119   0.1998  10.8585   H         2 RES2   0.0000
    87 H37      3.9278  -0.6779  12.5813   H         2 RES2   0.0000
    88 H38      5.2853   0.7266  13.8387   H         2 RES2   0.0000
    89 H39      5.2805   3.0214  13.4665   H         2 RES2   0.0000
    90 H40      3.9615   3.9214  11.7646   H         2 RES2   0.0000
    91 Fe1      8.5046   6.1353   5.5386   Fe        3 RES3   0.0000
    92 N1       8.3751   4.7635   2.7347   N.1       3 RES3   0.0000
    93 N2       7.7611   3.5078   6.9757   N.1       3 RES3   0.0000
    94 N3       5.5030   6.7907   5.1585   N.1       3 RES3   0.0000
    95 N4       8.5577   7.3896   8.3940   N.1       3 RES3   0.0000
    96 N5       9.1969   8.9365   4.4235   N.1       3 RES3   0.0000
    97 N6      10.4485   5.6778   5.6353   N.2       3 RES3   0.0000
    98 N7      12.6337   5.7981   5.3843   N.pl3     3 RES3   0.0000
    99 C49      8.4065   5.2770   3.7749   C.1       3 RES3  -1.0000
   100 C50      8.0346   4.4742   6.4112   C.1       3 RES3  -1.0000
   101 C51      6.6282   6.5574   5.3151   C.1       3 RES3   0.0000
   102 C52      8.5022   6.9356   7.3287   C.1       3 RES3   0.0000
   103 C53      8.9147   7.8703   4.7846   C.1       3 RES3   0.0000
   104 C54     11.4799   6.4772   5.3558   C.2       3 RES3   0.0000
   105 C55     12.3500   4.5022   5.7073   C.2       3 RES3   0.0000
   106 C56     11.0012   4.4323   5.8649   C.2       3 RES3   0.0000
   107 H41     11.4051   7.4040   5.1621   H         3 RES3   0.0000
   108 H42     12.9719   3.7900   5.8029   H         3 RES3   0.0000
   109 H43     13.4336   6.1289   5.2236   H         3 RES3   0.0000
   110 H44     10.5148   3.6502   6.0969   H         3 RES3   0.0000
   111 O1      10.3665   9.5378   7.1561   O.3       4 RES4   0.0000
   112 H45      9.9836   8.9151   7.6776   H         4 RES4   0.0000
   113 H46     10.0353   9.4094   6.3465   H         4 RES4   0.0000
   114 O2       6.1014   1.5649   8.1673   O.3       5 RES5   0.0000
   115 H47      6.7088   2.0777   7.8012   H         5 RES5   0.0000
   116 H48      6.3342   0.7907   7.7561   H         5 RES5   0.0000
@<TRIPOS>BOND
     1     1     2    1
     2     2     3   ar
     3     3     4   ar
     4     4     5   ar
     5     5     6   ar
     6     6     7   ar
     7     7     2   ar
     8     8     1    1
     9     9     8   ar
    10    10     9   ar
    11    11    10   ar
    12    12    11   ar
    13    13     8   ar
    14    14     1    1
    15    15    14   ar
    16    16    15   ar
    17    17    16   ar
    18    18    17   ar
    19    19    14   ar
    20    20     1    1
    21    21    20   ar
    22    22    21   ar
    23    23    22   ar
    24    24    23   ar
    25    25    20   ar
    26    26     3    1
    27    27     4    1
    28    28     5    1
    29    29     6    1
    30    30     7    1
    31    31     9    1
    32    32    10    1
    33    33    11    1
    34    34    12    1
    35    35    13    1
    36    36    15    1
    37    37    16    1
    38    38    17    1
    39    39    18    1
    40    40    19    1
    41    41    21    1
    42    42    22    1
    43    43    23    1
    44    44    24    1
    45    45    25    1
    46    12    13   ar
    47    18    19   ar
    48    24    25   ar
    49    46    47    1
    50    47    48   ar
    51    48    49   ar
    52    49    50   ar
    53    50    51   ar
    54    51    52   ar
    55    52    47   ar
    56    53    46    1
    57    54    53   ar
    58    55    54   ar
    59    56    55   ar
    60    57    56   ar
    61    58    53   ar
    62    59    46    1
    63    60    59   ar
    64    61    60   ar
    65    62    61   ar
    66    63    62   ar
    67    64    59   ar
    68    65    46    1
    69    66    65   ar
    70    67    66   ar
    71    68    67   ar
    72    69    68   ar
    73    70    65   ar
    74    71    48    1
    75    72    49    1
    76    73    50    1
    77    74    51    1
    78    75    52    1
    79    76    54    1
    80    77    55    1
    81    78    56    1
    82    79    57    1
    83    80    58    1
    84    81    60    1
    85    82    61    1
    86    83    62    1
    87    84    63    1
    88    85    64    1
    89    86    66    1
    90    87    67    1
    91    88    68    1
    92    89    69    1
    93    90    70    1
    94    57    58   ar
    95    63    64   ar
    96    69    70   ar
    97    91    97    1
    98    92    99    3
    99    93   100    3
   100    94   101    3
   101    95   102    3
   102    96   103    3
   103    97   104    2
   104    98   104    1
   105    99    91    1
   106   100    91    1
   107   101    91    1
   108   102    91    1
   109   103    91    1
   110   104   107    1
   111   105    98    1
   112   106    97    1
   113   108   105    1
   114   109    98    1
   115   110   106    1
   116   105   106    2
   117   111   112    1
   118   113   111    1
   119   114   115    1
   120   116   114    1
@<TRIPOS>SUBSTRUCTURE
     1 RES1        1 GROUP             0 ****  ****    0  
     2 RES2       46 GROUP             0 ****  ****    0  
     3 RES3       91 GROUP             0 ****  ****    0  
     4 RES4      111 GROUP             0 ****  ****    0  
     5 RES5      114 GROUP             0 ****  ****    0  
@<TRIPOS>CRYSIN
    9.8108   11.1655   23.8480   87.2190   85.5730   70.7290     2     1
