@<TRIPOS>MOLECULE
IMIFOB
   145   150    10     0     0
SMALL
USER_CHARGES
****
Generated from the CSD

@<TRIPOS>ATOM
     1 Fe1     18.2280   4.0552   8.0662   Fe        1 RES1   0.0000
     2 O1      19.7860   4.6727   6.9755   O.co2     1 RES1   0.0000
     3 O2      21.8198   4.6159   6.0739   O.co2     1 RES1   0.0000
     4 O3      19.2590   2.3890   8.2982   O.3       1 RES1   0.0000
     5 O4      18.0858  -0.3984   8.1817   O.co2     1 RES1  -1.0000
     6 O5      19.7542  -0.2536   9.6893   O.co2     1 RES1   0.0000
     7 O6      16.7509   3.2784   9.1839   O.co2     1 RES1   0.0000
     8 O7      15.7741   2.6507  11.0876   O.co2     1 RES1   0.0000
     9 O8      18.9046   4.7317   9.8058   O.3       1 RES1   0.0000
    10 O9      21.4796   5.8237  11.0023   O.co2     1 RES1   0.0000
    11 O10     22.1633   3.9975   9.9335   O.co2     1 RES1  -1.0000
    12 O11     17.1525   3.5725   6.4485   O.co2     1 RES1   0.0000
    13 O12     15.5403   4.0068   4.9813   O.co2     1 RES1   0.0000
    14 O13     17.4430   5.8376   7.8971   O.3       1 RES1   0.0000
    15 O14     18.2547   8.2568   8.9033   O.co2     1 RES1   0.0000
    16 O15     20.0310   8.4293   7.5328   O.co2     1 RES1  -1.0000
    17 N1      20.0933   1.8274   7.4155   N.ar      1 RES1   0.0000
    18 N2      19.0936   3.8076  10.7668   N.ar      1 RES1   0.0000
    19 N3      17.4715   6.4282   6.6946   N.ar      1 RES1   0.0000
    20 C1      20.8300   4.0739   6.5588   C.2       1 RES1   0.0000
    21 C2      20.8760   2.5639   6.5819   C.ar      1 RES1   0.0000
    22 C3      21.7170   1.8714   5.7154   C.ar      1 RES1   0.0000
    23 H1      22.2666   2.3543   5.1107   H         1 RES1   0.0000
    24 C4      21.7625   0.4806   5.7250   C.ar      1 RES1   0.0000
    25 H2      22.3276   0.0151   5.1184   H         1 RES1   0.0000
    26 C5      20.9801  -0.2154   6.6204   C.ar      1 RES1   0.0000
    27 H3      21.0122  -1.1650   6.6474   H         1 RES1   0.0000
    28 C6      20.1435   0.4783   7.4850   C.ar      1 RES1   0.0000
    29 C7      19.2471  -0.1251   8.5576   C.2       1 RES1   0.0000
    30 C8      16.7614   2.9923  10.4236   C.2       1 RES1   0.0000
    31 C9      18.0822   2.9831  11.1611   C.ar      1 RES1   0.0000
    32 C10     18.3036   2.1018  12.1914   C.ar      1 RES1   0.0000
    33 H4      17.6051   1.5251  12.4744   H         1 RES1   0.0000
    34 C11     19.5437   2.0462  12.8249   C.ar      1 RES1   0.0000
    35 H5      19.6941   1.4499  13.5489   H         1 RES1   0.0000
    36 C12     20.5480   2.8812  12.3704   C.ar      1 RES1   0.0000
    37 H6      21.4065   2.8476  12.7768   H         1 RES1   0.0000
    38 C13     20.3188   3.7613  11.3325   C.ar      1 RES1   0.0000
    39 C14     21.3976   4.6379  10.6913   C.2       1 RES1   0.0000
    40 C15     16.4637   4.3530   5.7115   C.2       1 RES1   0.0000
    41 C16     16.8853   5.8191   5.6268   C.ar      1 RES1   0.0000
    42 C17     16.7670   6.5324   4.4541   C.ar      1 RES1   0.0000
    43 H7      16.3354   6.1387   3.7050   H         1 RES1   0.0000
    44 C18     17.2682   7.8132   4.3597   C.ar      1 RES1   0.0000
    45 H8      17.1471   8.3147   3.5625   H         1 RES1   0.0000
    46 C19     17.9405   8.3621   5.4207   C.ar      1 RES1   0.0000
    47 H9      18.3328   9.2237   5.3418   H         1 RES1   0.0000
    48 C20     18.0458   7.6546   6.6166   C.ar      1 RES1   0.0000
    49 C21     18.8341   8.1502   7.8124   C.2       1 RES1   0.0000
    50 N4      13.0895   2.7688  10.4498   N.ar      2 RES2   1.0000
    51 H10     13.9894   2.7573  10.5854   H         2 RES2   0.0000
    52 N5       9.0758   2.4122   9.6322   N.pl3     2 RES2   0.0000
    53 H11      8.6512   2.8592   8.9639   H         2 RES2   0.0000
    54 H12      8.5621   1.9235  10.2041   H         2 RES2   0.0000
    55 C22     12.2925   2.1493  11.3614   C.ar      2 RES2   0.0000
    56 C23     12.8752   1.6120  12.5303   C.ar      2 RES2   0.0000
    57 H13     13.8113   1.6907  12.6785   H         2 RES2   0.0000
    58 C24     12.0816   0.9785  13.4488   C.ar      2 RES2   0.0000
    59 H14     12.4729   0.6253  14.2403   H         2 RES2   0.0000
    60 C25     10.7002   0.8430  13.2408   C.ar      2 RES2   0.0000
    61 H15     10.1626   0.3984  13.8879   H         2 RES2   0.0000
    62 C26     10.1343   1.3456  12.1182   C.ar      2 RES2   0.0000
    63 H16      9.2008   1.2368  11.9834   H         2 RES2   0.0000
    64 C27     10.9020   2.0323  11.1380   C.ar      2 RES2   0.0000
    65 C28     10.3468   2.6009   9.9499   C.ar      2 RES2   0.0000
    66 C29     11.2017   3.3537   9.0795   C.ar      2 RES2   0.0000
    67 C30     10.7305   4.0207   7.9260   C.ar      2 RES2   0.0000
    68 H17      9.7987   4.0404   7.7469   H         2 RES2   0.0000
    69 C31     11.5895   4.6379   7.0614   C.ar      2 RES2   0.0000
    70 H18     11.2516   5.0838   6.2931   H         2 RES2   0.0000
    71 C32     12.9778   4.6113   7.3098   C.ar      2 RES2   0.0000
    72 H19     13.5747   5.0224   6.6955   H         2 RES2   0.0000
    73 C33     13.4734   3.9987   8.4325   C.ar      2 RES2   0.0000
    74 H20     14.4093   3.9940   8.6000   H         2 RES2   0.0000
    75 C34     12.5872   3.3733   9.3356   C.ar      2 RES2   0.0000
    76 N6      -0.5417   1.1036  10.3294   N.ar      3 RES3   1.0000
    77 H21     -1.4427   1.1464  10.2079   H         3 RES3   0.0000
    78 N7       3.5661   0.9426  10.2957   N.pl3     3 RES3   0.0000
    79 H22      4.0330   1.2507  11.0148   H         3 RES3   0.0000
    80 H23      4.0406   0.6913   9.5609   H         3 RES3   0.0000
    81 C35      0.1343   1.6189  11.3961   C.ar      3 RES3   0.0000
    82 C36     -0.5677   2.2466  12.4398   C.ar      3 RES3   0.0000
    83 H24     -1.5140   2.3172  12.4013   H         3 RES3   0.0000
    84 C37      0.1089   2.7538  13.5124   C.ar      3 RES3   0.0000
    85 H25     -0.3740   3.1753  14.2133   H         3 RES3   0.0000
    86 C38      1.4997   2.6612  13.5932   C.ar      3 RES3   0.0000
    87 H26      1.9567   3.0120  14.3481   H         3 RES3   0.0000
    88 C39      2.2088   2.0636  12.5784   C.ar      3 RES3   0.0000
    89 H27      3.1551   2.0103  12.6381   H         3 RES3   0.0000
    90 C40      1.5460   1.5274  11.4461   C.ar      3 RES3   0.0000
    91 C41      2.2503   0.9322  10.3408   C.ar      3 RES3   0.0000
    92 C42      1.4816   0.3416   9.2721   C.ar      3 RES3   0.0000
    93 C43      2.0694  -0.3648   8.2014   C.ar      3 RES3   0.0000
    94 H28      3.0126  -0.4794   8.1821   H         3 RES3   0.0000
    95 C44      1.3101  -0.8871   7.1943   C.ar      3 RES3   0.0000
    96 H29      1.7226  -1.3572   6.4779   H         3 RES3   0.0000
    97 C45     -0.0855  -0.7226   7.2232   C.ar      3 RES3   0.0000
    98 H30     -0.6107  -1.0793   6.5164   H         3 RES3   0.0000
    99 C46     -0.7018  -0.0602   8.2457   C.ar      3 RES3   0.0000
   100 H31     -1.6463   0.0405   8.2515   H         3 RES3   0.0000
   101 C47      0.0791   0.4736   9.2971   C.ar      3 RES3   0.0000
   102 N8      -0.6221   4.8128  10.0152   N.ar      4 RES4   1.0000
   103 H32     -1.5292   4.8359   9.9614   H         4 RES4   0.0000
   104 N9       3.4823   4.7074  10.4269   N.pl3     4 RES4   0.0000
   105 H33      4.0202   4.2963   9.8170   H         4 RES4   0.0000
   106 H34      3.9490   5.0594  11.1226   H         4 RES4   0.0000
   107 C48     -0.0555   5.3802  11.1207   C.ar      4 RES4   0.0000
   108 C49     -0.8814   5.9673  12.0854   C.ar      4 RES4   0.0000
   109 H35     -1.8244   5.9685  11.9641   H         4 RES4   0.0000
   110 C50     -0.3328   6.5394  13.2081   C.ar      4 RES4   0.0000
   111 H36     -0.9007   6.9262  13.8667   H         4 RES4   0.0000
   112 C51      1.0608   6.5591  13.3910   C.ar      4 RES4   0.0000
   113 H37      1.4376   6.9551  14.1690   H         4 RES4   0.0000
   114 C52      1.8732   6.0009  12.4378   C.ar      4 RES4   0.0000
   115 H38      2.8142   6.0368  12.5553   H         4 RES4   0.0000
   116 C53      1.3483   5.3767  11.2882   C.ar      4 RES4   0.0000
   117 C54      2.1653   4.7433  10.2850   C.ar      4 RES4   0.0000
   118 C55      1.5297   4.1608   9.1411   C.ar      4 RES4   0.0000
   119 C56      2.2373   3.5077   8.1051   C.ar      4 RES4   0.0000
   120 H39      3.1806   3.4197   8.1706   H         4 RES4   0.0000
   121 C57      1.5903   2.9981   7.0113   C.ar      4 RES4   0.0000
   122 H40      2.0865   2.5836   6.3162   H         4 RES4   0.0000
   123 C58      0.1903   3.0908   6.9170   C.ar      4 RES4   0.0000
   124 H41     -0.2519   2.7376   6.1544   H         4 RES4   0.0000
   125 C59     -0.5417   3.6814   7.9106   C.ar      4 RES4   0.0000
   126 H42     -1.4885   3.7300   7.8413   H         4 RES4   0.0000
   127 C60      0.1122   4.2152   9.0333   C.ar      4 RES4   0.0000
   128 O16     19.5702   7.7437  11.1962   O.3       5 RES5   0.0000
   129 H43     20.1572   7.1659  11.0302   H         5 RES5   0.0000
   130 H44     19.2132   7.9024  10.4525   H         5 RES5   0.0000
   131 O17     18.5631  10.2289  12.0589   O.3       6 RES6   0.0000
   132 H45     18.8163  10.7141  11.4211   H         6 RES6   0.0000
   133 H46     18.7781   9.4507  11.8274   H         6 RES6   0.0000
   134 O18     16.9039   7.2331  14.9135   O.3       7 RES7   0.0000
   135 H47     17.2922   7.5712  15.5767   H         7 RES7   0.0000
   136 H48     16.6738   6.4664  15.1703   H         7 RES7   0.0000
   137 O19     17.8873   6.0357  12.5992   O.3       8 RES8   0.0000
   138 H49     17.6865   6.4294  13.3140   H         8 RES8   0.0000
   139 H50     18.4346   6.5498  12.2222   H         8 RES8   0.0000
   140 O20     17.1850   0.7203   5.7204   O.3       9 RES9   0.0000
   141 H51     17.2107   1.5217   5.9734   H         9 RES9   0.0000
   142 H52     17.4754   0.2837   6.3759   H         9 RES9   0.0000
   143 O21     22.1709   1.2796   9.8419   O.3      10 RES10   0.0000
   144 H53     21.3913   0.9797   9.9383   H        10 RES10   0.0000
   145 H54     22.0935   2.1111   9.9403   H        10 RES10   0.0000
@<TRIPOS>BOND
     1     1     2    1
     2     2    20    1
     3     3    20    2
     4     4     1    1
     5     5    29    1
     6     6    29    2
     7     7     1    1
     8     8    30    2
     9     9     1    1
    10    10    39    2
    11    11    39    1
    12    12     1    1
    13    13    40    2
    14    14     1    1
    15    15    49    2
    16    16    49    1
    17    17     4    1
    18    18     9    1
    19    19    14    1
    20    20    21    1
    21    21    17   ar
    22    22    21   ar
    23    23    22    1
    24    24    22   ar
    25    25    24    1
    26    26    24   ar
    27    27    26    1
    28    28    17   ar
    29    29    28    1
    30    30     7    1
    31    31    18   ar
    32    32    31   ar
    33    33    32    1
    34    34    32   ar
    35    35    34    1
    36    36    34   ar
    37    37    36    1
    38    38    18   ar
    39    39    38    1
    40    40    12    1
    41    41    19   ar
    42    42    41   ar
    43    43    42    1
    44    44    42   ar
    45    45    44    1
    46    46    44   ar
    47    47    46    1
    48    48    19   ar
    49    49    48    1
    50    26    28   ar
    51    30    31    1
    52    36    38   ar
    53    40    41    1
    54    46    48   ar
    55    50    51    1
    56    52    53    1
    57    54    52    1
    58    55    50   ar
    59    56    55   ar
    60    57    56    1
    61    58    56   ar
    62    59    58    1
    63    60    58   ar
    64    61    60    1
    65    62    60   ar
    66    63    62    1
    67    64    55   ar
    68    65    52    1
    69    66    65   ar
    70    67    66   ar
    71    68    67    1
    72    69    67   ar
    73    70    69    1
    74    71    69   ar
    75    72    71    1
    76    73    71   ar
    77    74    73    1
    78    75    50   ar
    79    62    64   ar
    80    64    65   ar
    81    66    75   ar
    82    73    75   ar
    83    76    77    1
    84    78    79    1
    85    80    78    1
    86    81    76   ar
    87    82    81   ar
    88    83    82    1
    89    84    82   ar
    90    85    84    1
    91    86    84   ar
    92    87    86    1
    93    88    86   ar
    94    89    88    1
    95    90    81   ar
    96    91    78    1
    97    92    91   ar
    98    93    92   ar
    99    94    93    1
   100    95    93   ar
   101    96    95    1
   102    97    95   ar
   103    98    97    1
   104    99    97   ar
   105   100    99    1
   106   101    76   ar
   107    88    90   ar
   108    90    91   ar
   109    92   101   ar
   110    99   101   ar
   111   102   103    1
   112   104   105    1
   113   106   104    1
   114   107   102   ar
   115   108   107   ar
   116   109   108    1
   117   110   108   ar
   118   111   110    1
   119   112   110   ar
   120   113   112    1
   121   114   112   ar
   122   115   114    1
   123   116   107   ar
   124   117   104    1
   125   118   117   ar
   126   119   118   ar
   127   120   119    1
   128   121   119   ar
   129   122   121    1
   130   123   121   ar
   131   124   123    1
   132   125   123   ar
   133   126   125    1
   134   127   102   ar
   135   114   116   ar
   136   116   117   ar
   137   118   127   ar
   138   125   127   ar
   139   128   129    1
   140   130   128    1
   141   131   132    1
   142   133   131    1
   143   134   135    1
   144   136   134    1
   145   137   138    1
   146   139   137    1
   147   140   141    1
   148   142   140    1
   149   143   144    1
   150   145   143    1
@<TRIPOS>SUBSTRUCTURE
     1 RES1        1 GROUP             0 ****  ****    0  
     2 RES2       50 GROUP             0 ****  ****    0  
     3 RES3       76 GROUP             0 ****  ****    0  
     4 RES4      102 GROUP             0 ****  ****    0  
     5 RES5      128 GROUP             0 ****  ****    0  
     6 RES6      131 GROUP             0 ****  ****    0  
     7 RES7      134 GROUP             0 ****  ****    0  
     8 RES8      137 GROUP             0 ****  ****    0  
     9 RES9      140 GROUP             0 ****  ****    0  
    10 RES10     143 GROUP             0 ****  ****    0  
@<TRIPOS>CRYSIN
   25.4446   11.5803   19.2566   90.0000   90.0000   90.0000    29     1
