@<TRIPOS>MOLECULE
IMIWEH
   366   440     1     0     0
SMALL
NO_CHARGES
****
Generated from the CSD

@<TRIPOS>ATOM
     1 Sm1      6.9093  22.7695  14.0578   Sm        1 RES1   0.0000
     2 Sm2      8.8202  17.1637   9.9078   Sm        1 RES1   0.0000
     3 Fe1      6.7728  18.8617  12.9457   Fe        1 RES1   0.0000
     4 Fe2      8.3731  22.7594  10.9239   Fe        1 RES1   0.0000
     5 Fe3      5.2170  21.4090  11.3093   Fe        1 RES1   0.0000
     6 Fe4      9.4450  19.9843  12.6358   Fe        1 RES1   0.0000
     7 Fe5      9.1663  17.0430  13.7464   Fe        1 RES1   0.0000
     8 Fe6      8.3648  19.5478  15.5314   Fe        1 RES1   0.0000
     9 O1       7.8583  20.3772  13.8182   O.3       1 RES1   0.0000
    10 O2       8.5819  18.2057  12.2687   O.3       1 RES1   0.0000
    11 O3       6.5345  22.8229  11.6308   O.3       1 RES1   0.0000
    12 O4       6.2355  19.7644  11.4600   O.3       1 RES1   0.0000
    13 O5       7.4639  17.8504  14.6290   O.3       1 RES1   0.0000
    14 O6       8.9271  20.9117  11.1492   O.3       1 RES1   0.0000
    15 O7       9.9601  18.9025  14.3512   O.3       1 RES1   0.0000
    16 O8       4.9673  24.0990  14.2401   O.co2     1 RES1   0.0000
    17 O9      10.3064  16.8933   8.0563   O.co2     1 RES1   0.0000
    18 O10      7.5327  25.1175  14.1146   O.co2     1 RES1   0.0000
    19 O11      7.7790  15.8804   8.2210   O.co2     1 RES1   0.0000
    20 O12      6.0111  21.8351  16.0592   O.co2     1 RES1   0.0000
    21 O13      6.8621  19.8651  16.6930   O.co2     1 RES1   0.0000
    22 O14      8.6450  22.8453  15.6723   O.co2     1 RES1   0.0000
    23 O15      9.4294  20.9117  16.4070   O.co2     1 RES1   0.0000
    24 O16      9.0301  18.2281  16.8864   O.co2     1 RES1   0.0000
    25 O17      9.5831  16.4400  15.6744   O.co2     1 RES1   0.0000
    26 O18      8.2999  15.2927  13.4149   O.co2     1 RES1   0.0000
    27 O19      8.2350  15.2703  11.2110   O.co2     1 RES1   0.0000
    28 O20     10.9307  16.4708  13.1515   O.co2     1 RES1   0.0000
    29 O21     10.8730  16.4540  10.9270   O.co2     1 RES1   0.0000
    30 O22      5.7844  17.1284  12.4210   O.co2     1 RES1   0.0000
    31 O23      6.3446  17.2319  10.2664   O.co2     1 RES1   0.0000
    32 O24      9.0199  23.1224  12.8572   O.co2     1 RES1   0.0000
    33 O25     10.5431  21.5441  13.3964   O.co2     1 RES1   0.0000
    34 O26     10.4529  19.0117   9.7973   O.co2     1 RES1   0.0000
    35 O27     11.2835  19.4846  11.8201   O.co2     1 RES1   0.0000
    36 O28     10.3428  23.3518  10.5216   O.co2     1 RES1   0.0000
    37 O29      3.4637  20.3492  11.4065   O.co2     1 RES1   0.0000
    38 O30      5.0760  19.2439  14.0343   O.co2     1 RES1   0.0000
    39 O31      4.9107  21.3874  13.4046   O.co2     1 RES1   0.0000
    40 C1       4.0721  24.8713  13.6906   C.2       1 RES1   0.0000
    41 C2       3.1028  25.3806  14.6187   C.ar      1 RES1   0.0000
    42 C3       2.0805  26.0830  14.2710   C.ar      1 RES1   0.0000
    43 H1       2.0579  26.3236  13.3737   H         1 RES1   0.0000
    44 C4       0.9581  26.5643  15.0632   C.ar      1 RES1   0.0000
    45 H2       0.1120  26.8049  14.7607   H         1 RES1   0.0000
    46 C5       1.4304  26.5839  16.3802   C.ar      1 RES1   0.0000
    47 H3       1.1230  27.2638  16.9276   H         1 RES1   0.0000
    48 C6       2.2607  25.7444  16.8741   C.ar      1 RES1   0.0000
    49 H4       2.2068  25.4897  17.7651   H         1 RES1   0.0000
    50 C7       3.1981  25.2267  16.0304   C.ar      1 RES1   0.0000
    51 H5       3.9210  24.7650  16.3967   H         1 RES1   0.0000
    52 C8       7.1993  26.1277  13.4026   C.2       1 RES1   0.0000
    53 C9       7.6746  27.4345  13.8614   C.ar      1 RES1   0.0000
    54 C10      7.3173  28.6126  13.2585   C.ar      1 RES1   0.0000
    55 H6       6.7256  28.5846  12.5444   H         1 RES1   0.0000
    56 C11      7.8011  29.8383  13.6701   C.ar      1 RES1   0.0000
    57 H7       7.5036  30.5994  13.2235   H         1 RES1   0.0000
    58 C12      8.5891  29.9838  14.5796   C.ar      1 RES1   0.0000
    59 H8       8.8846  30.8317  14.8204   H         1 RES1   0.0000
    60 C13      9.0531  28.8421  15.2628   C.ar      1 RES1   0.0000
    61 H9       9.7060  28.9204  15.9213   H         1 RES1   0.0000
    62 C14      8.5069  27.5577  14.9295   C.ar      1 RES1   0.0000
    63 H10      8.7181  26.8105  15.4418   H         1 RES1   0.0000
    64 C15      6.1304  20.8921  16.8700   C.2       1 RES1   0.0000
    65 C16      5.2413  20.9621  18.0388   C.ar      1 RES1   0.0000
    66 C17      4.3483  21.8799  18.3043   C.ar      1 RES1   0.0000
    67 H11      4.2618  22.5795  17.6972   H         1 RES1   0.0000
    68 C18      3.5200  21.8827  19.4258   C.ar      1 RES1   0.0000
    69 H12      2.7494  22.4172  19.4587   H         1 RES1   0.0000
    70 C19      3.8694  21.1831  20.3724   C.ar      1 RES1   0.0000
    71 H13      3.4561  21.3454  21.1914   H         1 RES1   0.0000
    72 C20      4.7963  20.1757  20.2901   C.ar      1 RES1   0.0000
    73 H14      5.0527  19.7280  21.0638   H         1 RES1   0.0000
    74 C21      5.3647  19.8232  18.9525   C.ar      1 RES1   0.0000
    75 H15      5.7448  19.0033  18.7323   H         1 RES1   0.0000
    76 C22      9.5199  22.1821  16.3205   C.2       1 RES1   0.0000
    77 C23     10.5487  22.8369  17.0902   C.ar      1 RES1   0.0000
    78 C24     10.5810  24.2501  17.0593   C.ar      1 RES1   0.0000
    79 H16      9.9036  24.7370  16.6436   H         1 RES1   0.0000
    80 C25     11.6819  24.9049  17.6766   C.ar      1 RES1   0.0000
    81 H17     11.7956  25.8143  17.5573   H         1 RES1   0.0000
    82 C26     12.4804  24.2864  18.3763   C.ar      1 RES1   0.0000
    83 H18     13.1415  24.7706  18.8105   H         1 RES1   0.0000
    84 C27     12.4640  22.9125  18.5203   C.ar      1 RES1   0.0000
    85 H19     13.0821  22.4899  19.0760   H         1 RES1   0.0000
    86 C28     11.4448  22.1429  17.8063   C.ar      1 RES1   0.0000
    87 H20     11.4245  21.2139  17.8413   H         1 RES1   0.0000
    88 C29      9.4570  17.0556  16.7774   C.2       1 RES1   0.0000
    89 C30      9.7974  16.3225  18.0244   C.ar      1 RES1   0.0000
    90 C31      9.8374  17.0053  19.1912   C.ar      1 RES1   0.0000
    91 H21      9.7389  17.9315  19.1912   H         1 RES1   0.0000
    92 C32     10.0233  16.3253  20.3909   C.ar      1 RES1   0.0000
    93 H22      9.9242  16.7702  21.2017   H         1 RES1   0.0000
    94 C33     10.3595  14.9877  20.3724   C.ar      1 RES1   0.0000
    95 H23     10.6341  14.5624  21.1523   H         1 RES1   0.0000
    96 C34     10.2812  14.2769  19.1727   C.ar      1 RES1   0.0000
    97 H24     10.4070  13.3563  19.1788   H         1 RES1   0.0000
    98 C35     10.0229  14.9037  18.0059   C.ar      1 RES1   0.0000
    99 H25      9.9922  14.4280  17.2075   H         1 RES1   0.0000
   100 C36      8.1119  14.7135  12.3181   C.2       1 RES1   0.0000
   101 C37      7.6567  13.3087  12.3160   C.ar      1 RES1   0.0000
   102 C38      7.3768  12.6931  11.2130   C.ar      1 RES1   0.0000
   103 H26      7.5830  13.1212  10.4125   H         1 RES1   0.0000
   104 C39      6.7714  11.3891  11.1390   C.ar      1 RES1   0.0000
   105 H27      6.3610  11.0701  10.3673   H         1 RES1   0.0000
   106 C40      6.8460  10.6643  12.2893   C.ar      1 RES1   0.0000
   107 H28      6.7473   9.7381  12.2954   H         1 RES1   0.0000
   108 C41      7.0571  11.3247  13.3552   C.ar      1 RES1   0.0000
   109 H29      6.8847  10.8798  14.1557   H         1 RES1   0.0000
   110 C42      7.5278  12.6819  13.4766   C.ar      1 RES1   0.0000
   111 H30      7.7236  13.0793  14.2956   H         1 RES1   0.0000
   112 C43     11.4184  16.3337  12.0115   C.2       1 RES1   0.0000
   113 C44     12.9048  16.0147  11.9971   C.ar      1 RES1   0.0000
   114 C45     13.5439  16.0035  13.2379   C.ar      1 RES1   0.0000
   115 H31     13.0680  16.1770  14.0178   H         1 RES1   0.0000
   116 C46     14.9837  15.7125  13.2935   C.ar      1 RES1   0.0000
   117 H32     15.4509  15.6565  14.0981   H         1 RES1   0.0000
   118 C47     15.5696  15.5362  12.1000   C.ar      1 RES1   0.0000
   119 H33     16.4756  15.3319  12.1267   H         1 RES1   0.0000
   120 C48     15.0347  15.6089  10.8653   C.ar      1 RES1   0.0000
   121 H34     15.5289  15.5474  10.0895   H         1 RES1   0.0000
   122 C49     13.5930  15.8020  10.9085   C.ar      1 RES1   0.0000
   123 H35     13.1289  15.7684  10.1039   H         1 RES1   0.0000
   124 C50      5.7677  16.7450  11.2809   C.2       1 RES1   0.0000
   125 C51      4.8023  15.5613  10.9661   C.ar      1 RES1   0.0000
   126 C52      3.9368  15.2395  11.9106   C.ar      1 RES1   0.0000
   127 H36      3.9784  15.6621  12.7358   H         1 RES1   0.0000
   128 C53      2.9513  14.2629  11.6884   C.ar      1 RES1   0.0000
   129 H37      2.2628  14.1146  12.2913   H         1 RES1   0.0000
   130 C54      3.0573  13.4878  10.4331   C.ar      1 RES1   0.0000
   131 H38      2.5302  12.7379  10.2706   H         1 RES1   0.0000
   132 C55      3.9306  13.9131   9.5791   C.ar      1 RES1   0.0000
   133 H39      3.9840  13.4766   8.7601   H         1 RES1   0.0000
   134 C56      4.7746  14.9597   9.8014   C.ar      1 RES1   0.0000
   135 H40      5.3407  15.2479   9.1223   H         1 RES1   0.0000
   136 C57     10.2130  22.7670  13.2318   C.2       1 RES1   0.0000
   137 C58     11.1543  23.8079  13.5384   C.ar      1 RES1   0.0000
   138 C59     10.8628  25.1147  13.5240   C.ar      1 RES1   0.0000
   139 H41      9.9946  25.4058  13.3552   H         1 RES1   0.0000
   140 C60     11.9147  26.0522  13.7709   C.ar      1 RES1   0.0000
   141 H42     11.7073  26.9588  13.7359   H         1 RES1   0.0000
   142 C61     13.1500  25.7136  14.0405   C.ar      1 RES1   0.0000
   143 H43     13.7919  26.3544  14.2421   H         1 RES1   0.0000
   144 C62     13.4403  24.4879  14.0158   C.ar      1 RES1   0.0000
   145 H44     14.3146  24.2305  14.1866   H         1 RES1   0.0000
   146 C63     12.4610  23.4777  13.7339   C.ar      1 RES1   0.0000
   147 H45     12.7250  22.5879  13.6824   H         1 RES1   0.0000
   148 C64     11.4066  19.2439  10.5916   C.2       1 RES1   0.0000
   149 C65     12.7555  19.1907  10.0051   C.ar      1 RES1   0.0000
   150 C66     13.8233  19.4678  10.8550   C.ar      1 RES1   0.0000
   151 H46     13.6927  19.7168  11.7419   H         1 RES1   0.0000
   152 C67     15.1251  19.3502  10.2891   C.ar      1 RES1   0.0000
   153 H47     15.8640  19.5461  10.8282   H         1 RES1   0.0000
   154 C68     15.3049  18.9893   9.0955   C.ar      1 RES1   0.0000
   155 H48     16.1754  18.9053   8.7889   H         1 RES1   0.0000
   156 C69     14.2806  18.7150   8.2374   C.ar      1 RES1   0.0000
   157 H49     14.4294  18.4632   7.3546   H         1 RES1   0.0000
   158 C70     13.0119  18.8326   8.7560   C.ar      1 RES1   0.0000
   159 H50     12.2895  18.6479   8.1963   H         1 RES1   0.0000
   160 C71     11.1685  22.7614   9.7582   C.2       1 RES1   0.0000
   161 C72     12.4649  23.3546   9.4824   C.ar      1 RES1   0.0000
   162 C73     12.7449  24.5271  10.0956   C.ar      1 RES1   0.0000
   163 H51     12.1163  24.9021  10.6698   H         1 RES1   0.0000
   164 C74     13.9951  25.2015   9.8837   C.ar      1 RES1   0.0000
   165 H52     14.1728  26.0298  10.2644   H         1 RES1   0.0000
   166 C75     14.8702  24.5887   9.1161   C.ar      1 RES1   0.0000
   167 H53     15.6521  25.0504   8.9186   H         1 RES1   0.0000
   168 C76     14.7309  23.2819   8.5811   C.ar      1 RES1   0.0000
   169 H54     15.4110  22.8201   8.1448   H         1 RES1   0.0000
   170 C77     13.4287  22.7670   8.7869   C.ar      1 RES1   0.0000
   171 H55     13.2327  21.9443   8.4021   H         1 RES1   0.0000
   172 C78      4.4731  20.3772  13.9746   C.2       1 RES1   0.0000
   173 C79      3.2873  20.5227  14.8039   C.ar      1 RES1   0.0000
   174 C80      2.6281  21.7036  14.9459   C.ar      1 RES1   0.0000
   175 H56      2.9923  22.4648  14.5529   H         1 RES1   0.0000
   176 C81      1.4552  21.8379  15.6394   C.ar      1 RES1   0.0000
   177 H57      1.0786  22.6830  15.7279   H         1 RES1   0.0000
   178 C82      0.8122  20.7354  16.1950   C.ar      1 RES1   0.0000
   179 H58      0.0907  20.8473  16.7815   H         1 RES1   0.0000
   180 C83      1.2901  19.4482  15.8658   C.ar      1 RES1   0.0000
   181 H59      0.7710  18.6842  15.9728   H         1 RES1   0.0000
   182 C84      2.6907  19.4034  15.3534   C.ar      1 RES1   0.0000
   183 H60      3.1713  18.6087  15.3986   H         1 RES1   0.0000
   184 Sm1F     7.4385  19.2050   6.5204   Sm        1 RES1   0.0000
   185 Sm2F     5.5277  24.8108  10.6704   Sm        1 RES1   0.0000
   186 Fe1F     7.5750  23.1128   7.6324   Fe        1 RES1   0.0000
   187 Fe2F     5.9748  19.2151   9.6542   Fe        1 RES1   0.0000
   188 Fe3F     9.1309  20.5655   9.2688   Fe        1 RES1   0.0000
   189 Fe4F     4.9028  21.9902   7.9423   Fe        1 RES1   0.0000
   190 Fe5F     5.1815  24.9315   6.8317   Fe        1 RES1   0.0000
   191 Fe6F     5.9831  22.4267   5.0468   Fe        1 RES1   0.0000
   192 O1F      6.4896  21.5973   6.7599   O.3       1 RES1   0.0000
   193 O2F      5.7660  23.7688   8.3095   O.3       1 RES1   0.0000
   194 O3F      7.8133  19.1516   8.9474   O.3       1 RES1   0.0000
   195 O4F      8.1123  22.2101   9.1182   O.3       1 RES1   0.0000
   196 O5F      6.8840  24.1241   5.9491   O.3       1 RES1   0.0000
   197 O6F      5.4207  21.0628   9.4289   O.3       1 RES1   0.0000
   198 O7F      4.3878  23.0720   6.2270   O.3       1 RES1   0.0000
   199 O8F      9.3806  17.8755   6.3381   O.co2     1 RES1   0.0000
   200 O9F      4.0415  25.0812  12.5218   O.co2     1 RES1   0.0000
   201 O10F     6.8151  16.8570   6.4636   O.co2     1 RES1   0.0000
   202 O11F     6.5689  26.0941  12.3572   O.co2     1 RES1   0.0000
   203 O12F     8.3368  20.1394   4.5190   O.co2     1 RES1   0.0000
   204 O13F     7.4857  22.1094   3.8852   O.co2     1 RES1   0.0000
   205 O14F     5.7028  19.1292   4.9058   O.co2     1 RES1   0.0000
   206 O15F     4.9184  21.0628   4.1712   O.co2     1 RES1   0.0000
   207 O16F     5.3177  23.7464   3.6917   O.co2     1 RES1   0.0000
   208 O17F     4.7648  25.5345   4.9038   O.co2     1 RES1   0.0000
   209 O18F     6.0480  26.6818   7.1633   O.co2     1 RES1   0.0000
   210 O19F     6.1128  26.7042   9.3672   O.co2     1 RES1   0.0000
   211 O20F     3.4172  25.5037   7.4267   O.co2     1 RES1   0.0000
   212 O21F     3.4748  25.5205   9.6512   O.co2     1 RES1   0.0000
   213 O22F     8.5635  24.8461   8.1572   O.co2     1 RES1   0.0000
   214 O23F     8.0033  24.7426  10.3117   O.co2     1 RES1   0.0000
   215 O24F     5.3279  18.8521   7.7209   O.co2     1 RES1   0.0000
   216 O25F     3.8047  20.4304   7.1818   O.co2     1 RES1   0.0000
   217 O26F     3.8950  22.9628  10.7809   O.co2     1 RES1   0.0000
   218 O27F     3.0644  22.4899   8.7581   O.co2     1 RES1   0.0000
   219 O28F     4.0051  18.6227  10.0565   O.co2     1 RES1   0.0000
   220 O29F    10.8841  21.6253   9.1717   O.co2     1 RES1   0.0000
   221 O30F     9.2718  22.7306   6.5439   O.co2     1 RES1   0.0000
   222 O31F     9.4371  20.5871   7.1735   O.co2     1 RES1   0.0000
   223 C1F     10.2758  17.1032   6.8875   C.2       1 RES1   0.0000
   224 C2F     11.2451  16.5939   5.9594   C.ar      1 RES1   0.0000
   225 C3F     12.2673  15.8915   6.3072   C.ar      1 RES1   0.0000
   226 H1F     12.2900  15.6509   7.2044   H         1 RES1   0.0000
   227 C4F     13.3897  15.4102   5.5149   C.ar      1 RES1   0.0000
   228 H2F     14.2358  15.1696   5.8174   H         1 RES1   0.0000
   229 C5F     12.9175  15.3906   4.1979   C.ar      1 RES1   0.0000
   230 H3F     13.2248  14.7107   3.6506   H         1 RES1   0.0000
   231 C6F     12.0871  16.2301   3.7041   C.ar      1 RES1   0.0000
   232 H4F     12.1410  16.4848   2.8130   H         1 RES1   0.0000
   233 C7F     11.1498  16.7478   4.5478   C.ar      1 RES1   0.0000
   234 H5F     10.4268  17.2095   4.1815   H         1 RES1   0.0000
   235 C8F      7.1485  15.8468   7.1756   C.2       1 RES1   0.0000
   236 C9F      6.6732  14.5400   6.7167   C.ar      1 RES1   0.0000
   237 C10F     7.0306  13.3619   7.3197   C.ar      1 RES1   0.0000
   238 H6F      7.6223  13.3899   8.0337   H         1 RES1   0.0000
   239 C11F     6.5468  12.1362   6.9081   C.ar      1 RES1   0.0000
   240 H7F      6.8443  11.3751   7.3546   H         1 RES1   0.0000
   241 C12F     5.7588  11.9907   5.9985   C.ar      1 RES1   0.0000
   242 H8F      5.4633  11.1428   5.7578   H         1 RES1   0.0000
   243 C13F     5.2948  13.1324   5.3153   C.ar      1 RES1   0.0000
   244 H9F      4.6418  13.0541   4.6568   H         1 RES1   0.0000
   245 C14F     5.8409  14.4168   5.6487   C.ar      1 RES1   0.0000
   246 H10F     5.6298  15.1640   5.1363   H         1 RES1   0.0000
   247 C15F     8.2175  21.0824   3.7082   C.2       1 RES1   0.0000
   248 C16F     9.1065  21.0124   2.5393   C.ar      1 RES1   0.0000
   249 C17F     9.9996  20.0946   2.2739   C.ar      1 RES1   0.0000
   250 H11F    10.0860  19.3950   2.8809   H         1 RES1   0.0000
   251 C18F    10.8278  20.0918   1.1524   C.ar      1 RES1   0.0000
   252 H12F    11.5985  19.5573   1.1195   H         1 RES1   0.0000
   253 C19F    10.4785  20.7914   0.2058   C.ar      1 RES1   0.0000
   254 H13F    10.8917  20.6291  -0.6132   H         1 RES1   0.0000
   255 C20F     9.5516  21.7988   0.2881   C.ar      1 RES1   0.0000
   256 H14F     9.2951  22.2465  -0.4856   H         1 RES1   0.0000
   257 C21F     8.9832  22.1513   1.6257   C.ar      1 RES1   0.0000
   258 H15F     8.6030  22.9712   1.8459   H         1 RES1   0.0000
   259 C22F     4.8280  19.7924   4.2576   C.2       1 RES1   0.0000
   260 C23F     3.7992  19.1376   3.4880   C.ar      1 RES1   0.0000
   261 C24F     3.7669  17.7244   3.5189   C.ar      1 RES1   0.0000
   262 H16F     4.4443  17.2375   3.9345   H         1 RES1   0.0000
   263 C25F     2.6659  17.0696   2.9015   C.ar      1 RES1   0.0000
   264 H17F     2.5523  16.1602   3.0209   H         1 RES1   0.0000
   265 C26F     1.8674  17.6881   2.2019   C.ar      1 RES1   0.0000
   266 H18F     1.2063  17.2039   1.7677   H         1 RES1   0.0000
   267 C27F     1.8839  19.0620   2.0578   C.ar      1 RES1   0.0000
   268 H19F     1.2658  19.4846   1.5022   H         1 RES1   0.0000
   269 C28F     2.9031  19.8316   2.7719   C.ar      1 RES1   0.0000
   270 H20F     2.9233  20.7606   2.7369   H         1 RES1   0.0000
   271 C29F     4.8908  24.9189   3.8008   C.2       1 RES1   0.0000
   272 C30F     4.5504  25.6520   2.5537   C.ar      1 RES1   0.0000
   273 C31F     4.5105  24.9692   1.3870   C.ar      1 RES1   0.0000
   274 H21F     4.6089  24.0430   1.3870   H         1 RES1   0.0000
   275 C32F     4.3246  25.6492   0.1873   C.ar      1 RES1   0.0000
   276 H22F     4.4236  25.2043  -0.6235   H         1 RES1   0.0000
   277 C33F     3.9884  26.9868   0.2058   C.ar      1 RES1   0.0000
   278 H23F     3.7137  27.4121  -0.5741   H         1 RES1   0.0000
   279 C34F     4.0666  27.6976   1.4055   C.ar      1 RES1   0.0000
   280 H24F     3.9408  28.6182   1.3993   H         1 RES1   0.0000
   281 C35F     4.3249  27.0708   2.5723   C.ar      1 RES1   0.0000
   282 H25F     4.3557  27.5465   3.3707   H         1 RES1   0.0000
   283 C36F     6.2360  27.2610   8.2601   C.2       1 RES1   0.0000
   284 C37F     6.6911  28.6658   8.2621   C.ar      1 RES1   0.0000
   285 C38F     6.9711  29.2814   9.3651   C.ar      1 RES1   0.0000
   286 H26F     6.7649  28.8533  10.1656   H         1 RES1   0.0000
   287 C39F     7.5764  30.5854   9.4392   C.ar      1 RES1   0.0000
   288 H27F     7.9868  30.9044  10.2109   H         1 RES1   0.0000
   289 C40F     7.5018  31.3102   8.2889   C.ar      1 RES1   0.0000
   290 H28F     7.6006  32.2364   8.2827   H         1 RES1   0.0000
   291 C41F     7.2907  30.6498   7.2229   C.ar      1 RES1   0.0000
   292 H29F     7.4631  31.0947   6.4224   H         1 RES1   0.0000
   293 C42F     6.8201  29.2926   7.1015   C.ar      1 RES1   0.0000
   294 H30F     6.6243  28.8952   6.2825   H         1 RES1   0.0000
   295 C43F     2.9294  25.6408   8.5667   C.2       1 RES1   0.0000
   296 C44F     1.4430  25.9598   8.5811   C.ar      1 RES1   0.0000
   297 C45F     0.8039  25.9710   7.3402   C.ar      1 RES1   0.0000
   298 H31F     1.2798  25.7975   6.5603   H         1 RES1   0.0000
   299 C46F    -0.6359  26.2620   7.2847   C.ar      1 RES1   0.0000
   300 H32F    -1.1031  26.3180   6.4801   H         1 RES1   0.0000
   301 C47F    -1.2217  26.4383   8.4782   C.ar      1 RES1   0.0000
   302 H33F    -2.1277  26.6426   8.4514   H         1 RES1   0.0000
   303 C48F    -0.6869  26.3656   9.7129   C.ar      1 RES1   0.0000
   304 H34F    -1.1810  26.4271  10.4887   H         1 RES1   0.0000
   305 C49F     0.7548  26.1725   9.6697   C.ar      1 RES1   0.0000
   306 H35F     1.2189  26.2061  10.4743   H         1 RES1   0.0000
   307 C50F     8.5801  25.2295   9.2972   C.2       1 RES1   0.0000
   308 C51F     9.5456  26.4132   9.6121   C.ar      1 RES1   0.0000
   309 C52F    10.4111  26.7350   8.6675   C.ar      1 RES1   0.0000
   310 H36F    10.3694  26.3124   7.8423   H         1 RES1   0.0000
   311 C53F    11.3965  27.7116   8.8898   C.ar      1 RES1   0.0000
   312 H37F    12.0850  27.8599   8.2868   H         1 RES1   0.0000
   313 C54F    11.2906  28.4867  10.1450   C.ar      1 RES1   0.0000
   314 H38F    11.8176  29.2366  10.3076   H         1 RES1   0.0000
   315 C55F    10.4172  28.0614  10.9990   C.ar      1 RES1   0.0000
   316 H39F    10.3639  28.4979  11.8180   H         1 RES1   0.0000
   317 C56F     9.5733  27.0148  10.7768   C.ar      1 RES1   0.0000
   318 H40F     9.0071  26.7266  11.4559   H         1 RES1   0.0000
   319 C57F     4.1348  19.2075   7.3464   C.2       1 RES1   0.0000
   320 C58F     3.1936  18.1666   7.0398   C.ar      1 RES1   0.0000
   321 C59F     3.4851  16.8598   7.0542   C.ar      1 RES1   0.0000
   322 H41F     4.3532  16.5687   7.2229   H         1 RES1   0.0000
   323 C60F     2.4332  15.9223   6.8073   C.ar      1 RES1   0.0000
   324 H42F     2.6406  15.0157   6.8422   H         1 RES1   0.0000
   325 C61F     1.1979  16.2609   6.5377   C.ar      1 RES1   0.0000
   326 H43F     0.5559  15.6201   6.3360   H         1 RES1   0.0000
   327 C62F     0.9075  17.4866   6.5624   C.ar      1 RES1   0.0000
   328 H44F     0.0333  17.7440   6.3916   H         1 RES1   0.0000
   329 C63F     1.8869  18.4968   6.8443   C.ar      1 RES1   0.0000
   330 H45F     1.6229  19.3866   6.8957   H         1 RES1   0.0000
   331 C64F     2.9413  22.7306   9.9866   C.2       1 RES1   0.0000
   332 C65F     1.5923  22.7838  10.5731   C.ar      1 RES1   0.0000
   333 C66F     0.5245  22.5067   9.7232   C.ar      1 RES1   0.0000
   334 H46F     0.6551  22.2577   8.8363   H         1 RES1   0.0000
   335 C67F    -0.7773  22.6243  10.2891   C.ar      1 RES1   0.0000
   336 H47F    -1.5161  22.4284   9.7499   H         1 RES1   0.0000
   337 C68F    -0.9571  22.9852  11.4826   C.ar      1 RES1   0.0000
   338 H48F    -1.8275  23.0692  11.7892   H         1 RES1   0.0000
   339 C69F     0.0672  23.2595  12.3407   C.ar      1 RES1   0.0000
   340 H49F    -0.0816  23.5113  13.2235   H         1 RES1   0.0000
   341 C70F     1.3359  23.1419  11.8222   C.ar      1 RES1   0.0000
   342 H50F     2.0584  23.3266  12.3819   H         1 RES1   0.0000
   343 C71F     3.1794  19.2131  10.8200   C.2       1 RES1   0.0000
   344 C72F     1.8829  18.6199  11.0957   C.ar      1 RES1   0.0000
   345 C73F     1.6030  17.4474  10.4825   C.ar      1 RES1   0.0000
   346 H51F     2.2316  17.0724   9.9084   H         1 RES1   0.0000
   347 C74F     0.3528  16.7730  10.6945   C.ar      1 RES1   0.0000
   348 H52F     0.1750  15.9447  10.3138   H         1 RES1   0.0000
   349 C75F    -0.5223  17.3858  11.4620   C.ar      1 RES1   0.0000
   350 H53F    -1.3043  16.9241  11.6596   H         1 RES1   0.0000
   351 C76F    -0.3831  18.6926  11.9971   C.ar      1 RES1   0.0000
   352 H54F    -1.0632  19.1544  12.4333   H         1 RES1   0.0000
   353 C77F     0.9191  19.2075  11.7913   C.ar      1 RES1   0.0000
   354 H55F     1.1152  20.0302  12.1761   H         1 RES1   0.0000
   355 C78F     9.8748  21.5973   6.6035   C.2       1 RES1   0.0000
   356 C79F    11.0606  21.4518   5.7742   C.ar      1 RES1   0.0000
   357 C80F    11.7198  20.2709   5.6322   C.ar      1 RES1   0.0000
   358 H56F    11.3556  19.5097   6.0253   H         1 RES1   0.0000
   359 C81F    12.8927  20.1366   4.9388   C.ar      1 RES1   0.0000
   360 H57F    13.2693  19.2915   4.8503   H         1 RES1   0.0000
   361 C82F    13.5357  21.2391   4.3831   C.ar      1 RES1   0.0000
   362 H58F    14.2572  21.1272   3.7967   H         1 RES1   0.0000
   363 C83F    13.0578  22.5263   4.7124   C.ar      1 RES1   0.0000
   364 H59F    13.5768  23.2903   4.6054   H         1 RES1   0.0000
   365 C84F    11.6572  22.5711   5.2248   C.ar      1 RES1   0.0000
   366 H60F    11.1765  23.3658   5.1795   H         1 RES1   0.0000
@<TRIPOS>BOND
     1     1     9    1
     2     2    10    1
     3     3     9    1
     4     4    11    1
     5     5    11    1
     6     6     9    1
     7     7    10    1
     8     8     9    1
     9    10     3    1
    10    11     1    1
    11    12     3    1
    12    13     3    1
    13    14     4    1
    14    15     6    1
    15    16     1    1
    16    17     2    1
    17    18     1    1
    18    19     2    1
    19    20     1    1
    20    21     8    1
    21    22     1    1
    22    23     8    1
    23    24     8    1
    24    25     7    1
    25    26     7    1
    26    27     2    1
    27    28     7    1
    28    29     2    1
    29    30     3    1
    30    31     2    1
    31    32     1    1
    32    33     6    1
    33    34     2    1
    34    35     6    1
    35    36     4    1
    36    37     5    1
    37    38     3    1
    38    39     1    1
    39    40    16   un
    40    41    40    1
    41    42    41   ar
    42    43    42    1
    43    44    42   ar
    44    45    44    1
    45    46    44   ar
    46    47    46    1
    47    48    46   ar
    48    49    48    1
    49    50    41   ar
    50    51    50    1
    51    52    18   un
    52    53    52    1
    53    54    53   ar
    54    55    54    1
    55    56    54   ar
    56    57    56    1
    57    58    56   ar
    58    59    58    1
    59    60    58   ar
    60    61    60    1
    61    62    53   ar
    62    63    62    1
    63    64    20   un
    64    65    64    1
    65    66    65   ar
    66    67    66    1
    67    68    66   ar
    68    69    68    1
    69    70    68   ar
    70    71    70    1
    71    72    70   ar
    72    73    72    1
    73    74    65   ar
    74    75    74    1
    75    76    22   un
    76    77    76    1
    77    78    77   ar
    78    79    78    1
    79    80    78   ar
    80    81    80    1
    81    82    80   ar
    82    83    82    1
    83    84    82   ar
    84    85    84    1
    85    86    77   ar
    86    87    86    1
    87    88    24   un
    88    89    88    1
    89    90    89   ar
    90    91    90    1
    91    92    90   ar
    92    93    92    1
    93    94    92   ar
    94    95    94    1
    95    96    94   ar
    96    97    96    1
    97    98    89   ar
    98    99    98    1
    99   100    26   un
   100   101   100    1
   101   102   101   ar
   102   103   102    1
   103   104   102   ar
   104   105   104    1
   105   106   104   ar
   106   107   106    1
   107   108   106   ar
   108   109   108    1
   109   110   101   ar
   110   111   110    1
   111   112    28   un
   112   113   112    1
   113   114   113   ar
   114   115   114    1
   115   116   114   ar
   116   117   116    1
   117   118   116   ar
   118   119   118    1
   119   120   118   ar
   120   121   120    1
   121   122   113   ar
   122   123   122    1
   123   124    30   un
   124   125   124    1
   125   126   125   ar
   126   127   126    1
   127   128   126   ar
   128   129   128    1
   129   130   128   ar
   130   131   130    1
   131   132   130   ar
   132   133   132    1
   133   134   125   ar
   134   135   134    1
   135   136    32   un
   136   137   136    1
   137   138   137   ar
   138   139   138    1
   139   140   138   ar
   140   141   140    1
   141   142   140   ar
   142   143   142    1
   143   144   142   ar
   144   145   144    1
   145   146   137   ar
   146   147   146    1
   147   148    34   un
   148   149   148    1
   149   150   149   ar
   150   151   150    1
   151   152   150   ar
   152   153   152    1
   153   154   152   ar
   154   155   154    1
   155   156   154   ar
   156   157   156    1
   157   158   149   ar
   158   159   158    1
   159   160    36   un
   160   161   160    1
   161   162   161   ar
   162   163   162    1
   163   164   162   ar
   164   165   164    1
   165   166   164   ar
   166   167   166    1
   167   168   166   ar
   168   169   168    1
   169   170   161   ar
   170   171   170    1
   171   172    38   un
   172   173   172    1
   173   174   173   ar
   174   175   174    1
   175   176   174   ar
   176   177   176    1
   177   178   176   ar
   178   179   178    1
   179   180   178   ar
   180   181   180    1
   181   182   173   ar
   182   183   182    1
   183   184   192    1
   184   185    11    1
   185   186   192    1
   186   187    12    1
   187   188    14    1
   188   189   192    1
   189   190   193    1
   190   191   192    1
   191   193   185    1
   192   194     2    1
   193   195     4    1
   194   196   186    1
   195   197     5    1
   196   198   189    1
   197   199   184    1
   198   200    40   un
   199   201   184    1
   200   202    52   un
   201   203   184    1
   202   204   191    1
   203   205   184    1
   204   206   191    1
   205   207   191    1
   206   208   190    1
   207   209   190    1
   208   210   185    1
   209   211   190    1
   210   212   185    1
   211   213   186    1
   212   214     4    1
   213   215   184    1
   214   216   189    1
   215   217     5    1
   216   218   189    1
   217   219   187    1
   218   220   160   un
   219   221   186    1
   220   222   184    1
   221   223    17   un
   222   224   223    1
   223   225   224   ar
   224   226   225    1
   225   227   225   ar
   226   228   227    1
   227   229   227   ar
   228   230   229    1
   229   231   229   ar
   230   232   231    1
   231   233   224   ar
   232   234   233    1
   233   235    19   un
   234   236   235    1
   235   237   236   ar
   236   238   237    1
   237   239   237   ar
   238   240   239    1
   239   241   239   ar
   240   242   241    1
   241   243   241   ar
   242   244   243    1
   243   245   236   ar
   244   246   245    1
   245   247   203   un
   246   248   247    1
   247   249   248   ar
   248   250   249    1
   249   251   249   ar
   250   252   251    1
   251   253   251   ar
   252   254   253    1
   253   255   253   ar
   254   256   255    1
   255   257   248   ar
   256   258   257    1
   257   259   205   un
   258   260   259    1
   259   261   260   ar
   260   262   261    1
   261   263   261   ar
   262   264   263    1
   263   265   263   ar
   264   266   265    1
   265   267   265   ar
   266   268   267    1
   267   269   260   ar
   268   270   269    1
   269   271   207   un
   270   272   271    1
   271   273   272   ar
   272   274   273    1
   273   275   273   ar
   274   276   275    1
   275   277   275   ar
   276   278   277    1
   277   279   277   ar
   278   280   279    1
   279   281   272   ar
   280   282   281    1
   281   283   209   un
   282   284   283    1
   283   285   284   ar
   284   286   285    1
   285   287   285   ar
   286   288   287    1
   287   289   287   ar
   288   290   289    1
   289   291   289   ar
   290   292   291    1
   291   293   284   ar
   292   294   293    1
   293   295   211   un
   294   296   295    1
   295   297   296   ar
   296   298   297    1
   297   299   297   ar
   298   300   299    1
   299   301   299   ar
   300   302   301    1
   301   303   301   ar
   302   304   303    1
   303   305   296   ar
   304   306   305    1
   305   307   213   un
   306   308   307    1
   307   309   308   ar
   308   310   309    1
   309   311   309   ar
   310   312   311    1
   311   313   311   ar
   312   314   313    1
   313   315   313   ar
   314   316   315    1
   315   317   308   ar
   316   318   317    1
   317   319   215   un
   318   320   319    1
   319   321   320   ar
   320   322   321    1
   321   323   321   ar
   322   324   323    1
   323   325   323   ar
   324   326   325    1
   325   327   325   ar
   326   328   327    1
   327   329   320   ar
   328   330   329    1
   329   331   217   un
   330   332   331    1
   331   333   332   ar
   332   334   333    1
   333   335   333   ar
   334   336   335    1
   335   337   335   ar
   336   338   337    1
   337   339   337   ar
   338   340   339    1
   339   341   332   ar
   340   342   341    1
   341   343    37   un
   342   344   343    1
   343   345   344   ar
   344   346   345    1
   345   347   345   ar
   346   348   347    1
   347   349   347   ar
   348   350   349    1
   349   351   349   ar
   350   352   351    1
   351   353   344   ar
   352   354   353    1
   353   355   221   un
   354   356   355    1
   355   357   356   ar
   356   358   357    1
   357   359   357   ar
   358   360   359    1
   359   361   359   ar
   360   362   361    1
   361   363   361   ar
   362   364   363    1
   363   365   356   ar
   364   366   365    1
   365     4    32    1
   366     5    12    1
   367     5    39    1
   368     6    10    1
   369     6    14    1
   370     7    13    1
   371     7    15    1
   372     8    13    1
   373     8    15    1
   374    21    64   un
   375    23    76   un
   376    25    88   un
   377    27   100   un
   378    29   112   un
   379    31   124   un
   380    31   187    1
   381    33   136   un
   382    34   188    1
   383    35   148   un
   384    39   172   un
   385    48    50   ar
   386    60    62   ar
   387    72    74   ar
   388    84    86   ar
   389    96    98   ar
   390   108   110   ar
   391   120   122   ar
   392   132   134   ar
   393   144   146   ar
   394   156   158   ar
   395   168   170   ar
   396   180   182   ar
   397   184   194    1
   398   185   200    1
   399   185   202    1
   400   185   214    1
   401   185   217    1
   402   186   193    1
   403   186   195    1
   404   187   194    1
   405   187   197    1
   406   187   215    1
   407   188   194    1
   408   188   195    1
   409   188   220    1
   410   188   222    1
   411   189   193    1
   412   189   197    1
   413   190   196    1
   414   190   198    1
   415   191   196    1
   416   191   198    1
   417   199   223   un
   418   201   235   un
   419   204   247   un
   420   206   259   un
   421   208   271   un
   422   210   283   un
   423   212   295   un
   424   214   307   un
   425   216   319   un
   426   218   331   un
   427   219   343   un
   428   222   355   un
   429   231   233   ar
   430   243   245   ar
   431   255   257   ar
   432   267   269   ar
   433   279   281   ar
   434   291   293   ar
   435   303   305   ar
   436   315   317   ar
   437   327   329   ar
   438   339   341   ar
   439   351   353   ar
   440   363   365   ar
@<TRIPOS>SUBSTRUCTURE
     1 RES1        1 GROUP             0 ****  ****    0  
@<TRIPOS>CRYSIN
   30.7590   27.9830   20.6040   90.0000   92.8700   90.0000    15     1
