@<TRIPOS>MOLECULE
INEYIL
   123   124     4     0     0
SMALL
USER_CHARGES
****
Generated from the CSD

@<TRIPOS>ATOM
     1 Fe1      7.3396   4.6591   0.7228   Fe        1 RES1   0.0000
     2 B1       9.8810   2.8622   0.7772   B         1 RES1   0.0000
     3 N1       6.1380   6.0858   3.1618   N.1       1 RES1   0.0000
     4 N2       4.5724   3.6276  -0.0856   N.1       1 RES1   0.0000
     5 N3       7.0913   7.1066  -1.1098   N.1       1 RES1   0.0000
     6 N4       8.8217   2.3032   1.7366   N.pl3     1 RES1   0.0000
     7 N5       7.6480   2.9918   1.9011   N.2       1 RES1   0.0000
     8 N6       9.2618   2.8726  -0.6286   N.pl3     1 RES1   0.0000
     9 N7       8.1385   3.6173  -0.8481   N.2       1 RES1   0.0000
    10 N8      10.2189   4.2943   1.1961   N.pl3     1 RES1   0.0000
    11 N9       9.2227   5.2393   1.2248   N.2       1 RES1   0.0000
    12 C1       6.5912   5.5680   2.2259   C.1       1 RES1  -1.0000
    13 C2       5.6091   4.0465   0.2374   C.1       1 RES1  -1.0000
    14 C3       7.1549   6.1875  -0.3919   C.1       1 RES1   0.0000
    15 C4       6.9534   2.3234   2.8330   C.2       1 RES1   0.0000
    16 C5       7.6726   1.1937   3.2651   C.2       1 RES1   0.0000
    17 C6       8.8522   1.2112   2.5373   C.2       1 RES1   0.0000
    18 C7       5.6009   2.7554   3.3075   C.3       1 RES1   0.0000
    19 H1       5.3382   3.5777   2.8425   H         1 RES1   0.0000
    20 H2       5.6314   2.9211   4.2730   H         1 RES1   0.0000
    21 H3       4.9466   2.0503   3.1166   H         1 RES1   0.0000
    22 C8       7.2602   0.1889   4.2919   C.3       1 RES1   0.0000
    23 H4       7.9591  -0.4918   4.3812   H         1 RES1   0.0000
    24 H5       6.4223  -0.2384   4.0138   H         1 RES1   0.0000
    25 H6       7.1268   0.6370   5.1534   H         1 RES1   0.0000
    26 C9       9.9963   0.2496   2.5276   C.3       1 RES1   0.0000
    27 H7      10.6783   0.5598   1.8950   H         1 RES1   0.0000
    28 H8       9.6768  -0.6358   2.2550   H         1 RES1   0.0000
    29 H9      10.3852   0.1947   3.4263   H         1 RES1   0.0000
    30 C10      7.7405   3.3436  -2.1044   C.2       1 RES1   0.0000
    31 C11      8.5960   2.3757  -2.6810   C.2       1 RES1   0.0000
    32 C12      9.5534   2.1154  -1.7204   C.2       1 RES1   0.0000
    33 C13      6.6112   4.0374  -2.7865   C.3       1 RES1   0.0000
    34 H10      6.1843   4.6605  -2.1617   H         1 RES1   0.0000
    35 H11      5.9540   3.3750  -3.0868   H         1 RES1   0.0000
    36 H12      6.9516   4.5326  -3.5606   H         1 RES1   0.0000
    37 C14      8.4775   1.7497  -4.0345   C.3       1 RES1   0.0000
    38 H13      9.2085   1.1104  -4.1630   H         1 RES1   0.0000
    39 H14      8.5277   2.4466  -4.7225   H         1 RES1   0.0000
    40 H15      7.6187   1.2820  -4.1033   H         1 RES1   0.0000
    41 C15     10.7602   1.2492  -1.8056   C.3       1 RES1   0.0000
    42 H16     11.2430   1.2786  -0.9531   H         1 RES1   0.0000
    43 H17     11.3434   1.5712  -2.5235   H         1 RES1   0.0000
    44 H18     10.4875   0.3271  -1.9957   H         1 RES1   0.0000
    45 C16      9.7897   6.3704   1.6557   C.2       1 RES1   0.0000
    46 C17     11.1624   6.1535   1.9286   C.2       1 RES1   0.0000
    47 C18     11.3869   4.8315   1.6199   C.2       1 RES1   0.0000
    48 C19      9.0456   7.6597   1.7624   C.3       1 RES1   0.0000
    49 H19      8.1086   7.5183   1.5126   H         1 RES1   0.0000
    50 H20      9.4486   8.3200   1.1601   H         1 RES1   0.0000
    51 H21      9.0924   7.9882   2.6839   H         1 RES1   0.0000
    52 C20     12.1576   7.1589   2.4355   C.3       1 RES1   0.0000
    53 H22     13.0336   6.7304   2.5329   H         1 RES1   0.0000
    54 H23     11.8628   7.5010   3.3050   H         1 RES1   0.0000
    55 H24     12.2269   7.9007   1.7980   H         1 RES1   0.0000
    56 C21     12.6517   4.0446   1.6991   C.3       1 RES1   0.0000
    57 H25     12.4826   3.1250   1.4063   H         1 RES1   0.0000
    58 H26     12.9746   4.0385   2.6243   H         1 RES1   0.0000
    59 H27     13.3287   4.4543   1.1191   H         1 RES1   0.0000
    60 N10      8.3813   4.9464   6.5280   N.4       2 RES2   1.0000
    61 C22      6.8867   5.1938   6.6737   C.3       2 RES2   0.0000
    62 H28      6.5286   5.4760   5.7950   H         2 RES2   0.0000
    63 H29      6.4499   4.3379   6.9122   H         2 RES2   0.0000
    64 C23      6.5056   6.2224   7.6948   C.3       2 RES2   0.0000
    65 H30      5.5310   6.3192   7.7124   H         2 RES2   0.0000
    66 H31      6.9143   7.0817   7.4606   H         2 RES2   0.0000
    67 H32      6.8218   5.9390   8.5778   H         2 RES2   0.0000
    68 C24      9.1333   6.2570   6.3689   C.3       2 RES2   0.0000
    69 H33      8.9783   6.8133   7.1733   H         2 RES2   0.0000
    70 H34     10.1038   6.0646   6.3191   H         2 RES2   0.0000
    71 C25      8.7323   7.0448   5.1510   C.3       2 RES2   0.0000
    72 H35      9.2656   7.8650   5.1012   H         2 RES2   0.0000
    73 H36      7.7820   7.2764   5.2112   H         2 RES2   0.0000
    74 H37      8.8858   6.5046   4.3476   H         2 RES2   0.0000
    75 C26      8.5501   4.0730   5.3037   C.3       2 RES2   0.0000
    76 H38      8.0417   3.2356   5.4406   H         2 RES2   0.0000
    77 H39      8.1519   4.5395   4.5267   H         2 RES2   0.0000
    78 C27      9.9806   3.7194   4.9723   C.3       2 RES2   0.0000
    79 H40     10.0015   3.1561   4.1705   H         2 RES2   0.0000
    80 H41     10.3792   3.2321   5.7241   H         2 RES2   0.0000
    81 H42     10.4914   4.5395   4.8083   H         2 RES2   0.0000
    82 C28      8.9409   4.2907   7.7836   C.3       2 RES2   0.0000
    83 H43      9.9247   4.2354   7.6956   H         2 RES2   0.0000
    84 H44      8.7441   4.8759   8.5573   H         2 RES2   0.0000
    85 C29      8.4132   2.9142   8.0828   C.3       2 RES2   0.0000
    86 H45      8.8288   2.5756   8.9023   H         2 RES2   0.0000
    87 H46      8.6241   2.3141   7.3375   H         2 RES2   0.0000
    88 H47      7.4416   2.9557   8.2029   H         2 RES2   0.0000
    89 N11      5.5926  -0.5127  -0.1695   N.4       3 RES3   1.0000
    90 C30      5.4124  -1.9369   0.3227   C.3       3 RES3   0.0000
    91 H48      4.4547  -2.1747   0.2425   H         3 RES3   0.0000
    92 H49      5.9186  -2.5399  -0.2760   H         3 RES3   0.0000
    93 C31      5.8433  -2.2001   1.7236   C.3       3 RES3   0.0000
    94 H50      5.6865  -3.1411   1.9435   H         3 RES3   0.0000
    95 H51      5.3303  -1.6310   2.3352   H         3 RES3   0.0000
    96 H52      6.7982  -1.9985   1.8148   H         3 RES3   0.0000
    97 C32      4.9651  -0.4446  -1.5443   C.3       3 RES3   0.0000
    98 H53      5.3854  -1.1334  -2.1188   H         3 RES3   0.0000
    99 H54      4.0041  -0.6669  -1.4641   H         3 RES3   0.0000
   100 C33      5.0944   0.8927  -2.2232   C.3       3 RES3   0.0000
   101 H55      4.6574   0.8570  -3.0999   H         3 RES3   0.0000
   102 H56      6.0426   1.1093  -2.3389   H         3 RES3   0.0000
   103 H57      4.6653   1.5815  -1.6730   H         3 RES3   0.0000
   104 C34      4.9494   0.4762   0.7828   C.3       3 RES3   0.0000
   105 H58      5.4051   0.4078   1.6600   H         3 RES3   0.0000
   106 H59      5.1060   1.3903   0.4364   H         3 RES3   0.0000
   107 C35      3.4611   0.2942   1.0010   C.3       3 RES3   0.0000
   108 H60      3.1384   0.9722   1.6301   H         3 RES3   0.0000
   109 H61      3.2918  -0.5990   1.3671   H         3 RES3   0.0000
   110 H62      2.9908   0.3916   0.1473   H         3 RES3   0.0000
   111 C36      7.0636  -0.1450  -0.2307   C.3       3 RES3   0.0000
   112 H63      7.1405   0.8075  -0.4905   H         3 RES3   0.0000
   113 H64      7.4514  -0.2396   0.6752   H         3 RES3   0.0000
   114 C37      7.8811  -0.9770  -1.1948   C.3       3 RES3   0.0000
   115 H65      8.8150  -0.6773  -1.1750   H         3 RES3   0.0000
   116 H66      7.5242  -0.8720  -2.1020   H         3 RES3   0.0000
   117 H67      7.8351  -1.9202  -0.9326   H         3 RES3   0.0000
   118 N12      6.3228  -1.4053  -4.7222   N.1       4 RES4   0.0000
   119 C38      5.9722  -3.9267  -4.2184   C.3       4 RES4   0.0000
   120 H68      6.7313  -4.4243  -4.5864   H         4 RES4   0.0000
   121 H69      5.1414  -4.2423  -4.6330   H         4 RES4   0.0000
   122 H70      5.9285  -4.0673  -3.2491   H         4 RES4   0.0000
   123 C39      6.1455  -2.4857  -4.4985   C.1       4 RES4   0.0000
@<TRIPOS>BOND
     1     1     7    1
     2     2     6    1
     3     3    12    3
     4     4    13    3
     5     5    14    3
     6     6     7    1
     7     7    15    2
     8     8     2    1
     9     9     1    1
    10    10     2    1
    11    11     1    1
    12    12     1    1
    13    13     1    1
    14    14     1    1
    15    15    16    1
    16    16    17    2
    17    17     6    1
    18    18    15    1
    19    19    18    1
    20    20    18    1
    21    21    18    1
    22    22    16    1
    23    23    22    1
    24    24    22    1
    25    25    22    1
    26    26    17    1
    27    27    26    1
    28    28    26    1
    29    29    26    1
    30    30     9    2
    31    31    30    1
    32    32     8    1
    33    33    30    1
    34    34    33    1
    35    35    33    1
    36    36    33    1
    37    37    31    1
    38    38    37    1
    39    39    37    1
    40    40    37    1
    41    41    32    1
    42    42    41    1
    43    43    41    1
    44    44    41    1
    45    45    11    2
    46    46    45    1
    47    47    10    1
    48    48    45    1
    49    49    48    1
    50    50    48    1
    51    51    48    1
    52    52    46    1
    53    53    52    1
    54    54    52    1
    55    55    52    1
    56    56    47    1
    57    57    56    1
    58    58    56    1
    59    59    56    1
    60     8     9    1
    61    10    11    1
    62    31    32    2
    63    46    47    2
    64    60    61    1
    65    61    62    1
    66    63    61    1
    67    64    61    1
    68    65    64    1
    69    66    64    1
    70    67    64    1
    71    68    60    1
    72    69    68    1
    73    70    68    1
    74    71    68    1
    75    72    71    1
    76    73    71    1
    77    74    71    1
    78    75    60    1
    79    76    75    1
    80    77    75    1
    81    78    75    1
    82    79    78    1
    83    80    78    1
    84    81    78    1
    85    82    60    1
    86    83    82    1
    87    84    82    1
    88    85    82    1
    89    86    85    1
    90    87    85    1
    91    88    85    1
    92    89    90    1
    93    90    91    1
    94    92    90    1
    95    93    90    1
    96    94    93    1
    97    95    93    1
    98    96    93    1
    99    97    89    1
   100    98    97    1
   101    99    97    1
   102   100    97    1
   103   101   100    1
   104   102   100    1
   105   103   100    1
   106   104    89    1
   107   105   104    1
   108   106   104    1
   109   107   104    1
   110   108   107    1
   111   109   107    1
   112   110   107    1
   113   111    89    1
   114   112   111    1
   115   113   111    1
   116   114   111    1
   117   115   114    1
   118   116   114    1
   119   117   114    1
   120   118   123    3
   121   119   120    1
   122   121   119    1
   123   122   119    1
   124   123   119    1
@<TRIPOS>SUBSTRUCTURE
     1 RES1        1 GROUP             0 ****  ****    0  
     2 RES2       60 GROUP             0 ****  ****    0  
     3 RES3       89 GROUP             0 ****  ****    0  
     4 RES4      118 GROUP             0 ****  ****    0  
@<TRIPOS>CRYSIN
   19.6763   11.5187   18.6514   90.0000   90.0000   90.0000    29     1
