@<TRIPOS>MOLECULE
IPEXAE
   143   142     9     0     0
SMALL
USER_CHARGES
****
Generated from the CSD

@<TRIPOS>ATOM
     1 Br1      5.7287   1.6889  -3.3320   Br        1 RES1   0.0000
     2 Br2      9.0338   3.1431  10.0542   Br        1 RES1   0.0000
     3 C1       6.1321   0.7582  -0.7156   C.ar      1 RES1   0.0000
     4 H1       5.9442  -0.0961  -1.0869   H         1 RES1   0.0000
     5 C2       6.0851   1.8617  -1.5106   C.ar      1 RES1   0.0000
     6 C3       6.3363   3.1139  -0.9658   C.ar      1 RES1   0.0000
     7 H2       6.3272   3.8947  -1.5066   H         1 RES1   0.0000
     8 C4       6.6037   3.1890   0.3968   C.ar      1 RES1   0.0000
     9 H3       6.7536   4.0313   0.8084   H         1 RES1   0.0000
    10 C5       6.6488   2.0269   1.1501   C.ar      1 RES1   0.0000
    11 H4       6.8313   2.0765   2.0809   H         1 RES1   0.0000
    12 C6       6.5440  -0.3663   1.4433   C.3       1 RES1   0.0000
    13 H5       6.5097  -1.1711   0.8663   H         1 RES1   0.0000
    14 H6       5.7744  -0.4009   2.0661   H         1 RES1   0.0000
    15 C7       7.8359  -0.3678   2.2343   C.ar      1 RES1   0.0000
    16 C8       7.8124  -0.1561   3.6252   C.ar      1 RES1   0.0000
    17 C9       9.0338  -0.0976   4.2977   C.ar      1 RES1   0.0000
    18 C10      9.0338   0.0225   5.8164   C.3       1 RES1   0.0000
    19 H7       8.2352  -0.4459   6.1688   H         1 RES1   0.0000
    20 C11      9.0338   1.5840   7.7117   C.ar      1 RES1   0.0000
    21 H8       9.0338   0.8318   8.2914   H         1 RES1   0.0000
    22 C12      9.0338   2.8782   8.2067   C.ar      1 RES1   0.0000
    23 C13      9.0338   3.9547   7.3525   C.ar      1 RES1   0.0000
    24 H9       9.0338   4.8390   7.6996   H         1 RES1   0.0000
    25 C14      9.0338   3.7490   6.0289   C.ar      1 RES1   0.0000
    26 H10      9.0338   4.4922   5.4371   H         1 RES1   0.0000
    27 C15      9.0338   2.4848   5.5258   C.ar      1 RES1   0.0000
    28 H11      9.0338   2.3497   4.5856   H         1 RES1   0.0000
    29 C16      9.0338  -0.5075   1.5483   C.ar      1 RES1   0.0000
    30 C17      9.0338  -0.7897   0.0713   C.3       1 RES1   0.0000
    31 C18      6.5133   0.0150   4.3798   C.3       1 RES1   0.0000
    32 H12      6.6832   0.4910   5.2191   H         1 RES1   0.0000
    33 H13      6.1321  -0.8663   4.5762   H         1 RES1   0.0000
    34 H14      5.8846   0.5300   3.8336   H         1 RES1   0.0000
    35 N1       6.4429   0.8633   0.5919   N.ar      1 RES1   1.0000
    36 N2       9.0338   1.4399   6.3477   N.ar      1 RES1   1.0000
    37 Br1B    12.3388   1.6889  -3.3320   Br        1 RES1   0.0000
    38 C1B     11.9354   0.7582  -0.7156   C.ar      1 RES1   0.0000
    39 H1B     12.1233  -0.0961  -1.0869   H         1 RES1   0.0000
    40 C2B     11.9824   1.8617  -1.5106   C.ar      1 RES1   0.0000
    41 C3B     11.7312   3.1139  -0.9658   C.ar      1 RES1   0.0000
    42 H2B     11.7403   3.8947  -1.5066   H         1 RES1   0.0000
    43 C4B     11.4638   3.1890   0.3968   C.ar      1 RES1   0.0000
    44 H3B     11.3139   4.0313   0.8084   H         1 RES1   0.0000
    45 C5B     11.4187   2.0269   1.1501   C.ar      1 RES1   0.0000
    46 H4B     11.2362   2.0765   2.0809   H         1 RES1   0.0000
    47 C6B     11.5235  -0.3663   1.4433   C.3       1 RES1   0.0000
    48 H5B     11.5578  -1.1711   0.8663   H         1 RES1   0.0000
    49 H6B     12.2931  -0.4009   2.0661   H         1 RES1   0.0000
    50 C7B     10.2316  -0.3678   2.2343   C.ar      1 RES1   0.0000
    51 C8B     10.2551  -0.1561   3.6252   C.ar      1 RES1   0.0000
    52 H7B      9.8323  -0.4459   6.1688   H         1 RES1   0.0000
    53 C18B    11.5542   0.0150   4.3798   C.3       1 RES1   0.0000
    54 H12B    11.3843   0.4910   5.2191   H         1 RES1   0.0000
    55 H13B    11.9354  -0.8663   4.5762   H         1 RES1   0.0000
    56 H14B    12.1829   0.5300   3.8336   H         1 RES1   0.0000
    57 N1B     11.6246   0.8633   0.5919   N.ar      1 RES1   1.0000
    58 Br3      5.5408  -5.0976   8.6116   Br        2 RES2   0.0000
    59 Br4      9.0338  -6.3703  -4.9286   Br        2 RES2   0.0000
    60 C19      6.0074  -6.4155   6.1769   C.ar      2 RES2   0.0000
    61 H15      6.0002  -7.2023   6.7082   H         2 RES2   0.0000
    62 C20      5.7834  -5.1934   6.7338   C.ar      2 RES2   0.0000
    63 C21      5.7617  -4.0403   5.9778   C.ar      2 RES2   0.0000
    64 H16      5.6732  -3.1980   6.4836   H         2 RES2   0.0000
    65 C22      5.9587  -4.1664   4.6165   C.ar      2 RES2   0.0000
    66 H17      6.0526  -3.3782   3.9951   H         2 RES2   0.0000
    67 C23      6.2098  -5.4096   4.0798   C.ar      2 RES2   0.0000
    68 H18      6.3652  -5.5012   3.1463   H         2 RES2   0.0000
    69 C24      6.5115  -7.8148   4.2372   C.3       2 RES2   0.0000
    70 H19      5.7671  -8.0521   3.6292   H         2 RES2   0.0000
    71 H20      6.5549  -8.5010   4.9488   H         2 RES2   0.0000
    72 C25      7.8178  -7.8178   3.4557   C.ar      2 RES2   0.0000
    73 C26      7.8142  -7.8794   2.0634   C.ar      2 RES2   0.0000
    74 C27      9.0338  -7.9274   1.3841   C.ar      2 RES2   0.0000
    75 C28      9.0338  -8.1872  -0.1063   C.3       2 RES2   0.0000
    76 H21      9.6842  -8.7232  -0.3094   H         2 RES2   0.0000
    77 C29      9.0338  -7.1212  -2.2693   C.ar      2 RES2   0.0000
    78 H22      9.0338  -7.9980  -2.6324   H         2 RES2   0.0000
    79 C30      9.0338  -6.0357  -3.0777   C.ar      2 RES2   0.0000
    80 C31      9.0338  -4.7610  -2.5571   C.ar      2 RES2   0.0000
    81 H23      9.0338  -4.0013  -3.1275   H         2 RES2   0.0000
    82 C32      9.0338  -4.6213  -1.2106   C.ar      2 RES2   0.0000
    83 H24      9.0338  -3.7520  -0.8286   H         2 RES2   0.0000
    84 C33      9.0338  -5.7129  -0.3968   C.ar      2 RES2   0.0000
    85 H25      9.0338  -5.6063   0.5475   H         2 RES2   0.0000
    86 C34      9.0338  -7.8479   4.1592   C.ar      2 RES2   0.0000
    87 C35      9.0338  -7.8284   5.6725   C.3       2 RES2   0.0000
    88 C36      6.5097  -7.8178   1.2792   C.3       2 RES2   0.0000
    89 H26      6.1231  -8.7172   1.2147   H         2 RES2   0.0000
    90 H27      6.6850  -7.4725   0.3780   H         2 RES2   0.0000
    91 H28      5.8792  -7.2248   1.7379   H         2 RES2   0.0000
    92 N3       6.2369  -6.4726   4.8586   N.ar      2 RES2   1.0000
    93 N4       9.0338  -6.9245  -0.9295   N.ar      2 RES2   1.0000
    94 Br3B    12.5267  -5.0976   8.6116   Br        2 RES2   0.0000
    95 C19B    12.0601  -6.4155   6.1769   C.ar      2 RES2   0.0000
    96 H15B    12.0673  -7.2023   6.7082   H         2 RES2   0.0000
    97 C20B    12.2841  -5.1934   6.7338   C.ar      2 RES2   0.0000
    98 C21B    12.3058  -4.0403   5.9778   C.ar      2 RES2   0.0000
    99 H16B    12.3943  -3.1980   6.4836   H         2 RES2   0.0000
   100 C22B    12.1088  -4.1664   4.6165   C.ar      2 RES2   0.0000
   101 H17B    12.0149  -3.3782   3.9951   H         2 RES2   0.0000
   102 C23B    11.8577  -5.4096   4.0798   C.ar      2 RES2   0.0000
   103 H18B    11.7023  -5.5012   3.1463   H         2 RES2   0.0000
   104 C24B    11.5560  -7.8148   4.2372   C.3       2 RES2   0.0000
   105 H19B    12.3004  -8.0521   3.6292   H         2 RES2   0.0000
   106 H20B    11.5126  -8.5010   4.9488   H         2 RES2   0.0000
   107 C25B    10.2497  -7.8178   3.4557   C.ar      2 RES2   0.0000
   108 C26B    10.2533  -7.8794   2.0634   C.ar      2 RES2   0.0000
   109 H21B     8.3833  -8.7232  -0.3094   H         2 RES2   0.0000
   110 C36B    11.5578  -7.8178   1.2792   C.3       2 RES2   0.0000
   111 H26B    11.9444  -8.7172   1.2147   H         2 RES2   0.0000
   112 H27B    11.3825  -7.4725   0.3780   H         2 RES2   0.0000
   113 H28B    12.1883  -7.2248   1.7379   H         2 RES2   0.0000
   114 N3B     11.8306  -6.4726   4.8586   N.ar      2 RES2   1.0000
   115 C37      3.2666   2.7791   4.8371   C.1       3 RES3   0.0000
   116 C38      5.7473   3.9022   4.6004   C.1       3 RES3   0.0000
   117 C39      5.1529   2.2581   6.7566   C.1       3 RES3  -1.0000
   118 C40      3.0335   3.8241   7.3593   C.1       3 RES3  -1.0000
   119 C41      3.6677   5.5192   5.2837   C.1       3 RES3  -1.0000
   120 C42      5.5594   4.9501   7.1360   C.1       3 RES3   0.0000
   121 Fe1      4.4099   3.8624   5.9867   Fe        3 RES3   0.0000
   122 N5       2.5800   2.1080   4.1888   N.1       3 RES3   0.0000
   123 N6       6.5693   3.9502   3.7731   N.1       3 RES3   0.0000
   124 N7       5.6027   1.3032   7.2100   N.1       3 RES3   0.0000
   125 N8       2.2313   3.7400   8.1623   N.1       3 RES3   0.0000
   126 N9       3.2612   6.5191   4.8694   N.1       3 RES3   0.0000
   127 N10      6.1990   5.6258   7.8085   N.1       3 RES3   0.0000
   128 C43      9.0338  -3.3737   6.4163   C.2       4 RES4   0.0000
   129 O1       9.0338  -4.6018   5.7343   O.3       4 RES4   0.0000
   130 H29      9.0338  -4.4607   4.9057   H         4 RES4   0.0000
   131 O2       9.0338   3.6905   2.3392   O.3       5 RES5   0.0000
   132 O3       9.0338  -1.0014   9.6783   O.3       6 RES6   0.0000
   133 H30      8.3363  -0.9609   9.1967   H         6 RES6   0.0000
   134 H30B     9.7312  -0.9609   9.1967   H         6 RES6   0.0000
   135 O4       6.4953   5.8615  -2.6311   O.3       7 RES7   0.0000
   136 H31      6.1050   5.6979  -3.3682   H         7 RES7   0.0000
   137 H32      6.3236   6.6723  -2.4266   H         7 RES7   0.0000
   138 O5       9.0338  -4.0193   3.1382   O.3       8 RES8   0.0000
   139 H33      9.0338  -3.4052   2.5544   H         8 RES8   0.0000
   140 H34      9.0338  -4.7805   2.7643   H         8 RES8   0.0000
   141 O6       3.4202   1.4729   1.1730   O.3       9 RES9   0.0000
   142 H35      2.8872   1.6981   1.7944   H         9 RES9   0.0000
   143 H36      3.3009   0.6516   0.9806   H         9 RES9   0.0000
@<TRIPOS>BOND
     1     1     5    1
     2     2    22    1
     3     3     4    1
     4     5     3   ar
     5     6     5   ar
     6     7     6    1
     7     8     6   ar
     8     9     8    1
     9    10     8   ar
    10    11    10    1
    11    12    13    1
    12    14    12    1
    13    15    12    1
    14    16    15   ar
    15    17    16   ar
    16    18    17    1
    17    19    18    1
    18    20    21    1
    19    22    20   ar
    20    23    22   ar
    21    24    23    1
    22    25    23   ar
    23    26    25    1
    24    27    25   ar
    25    28    27    1
    26    29    15   ar
    27    30    29    1
    28    31    16    1
    29    32    31    1
    30    33    31    1
    31    34    31    1
    32    35     3   ar
    33    36    18    1
    34    37    40    1
    35    38    39    1
    36    40    38   ar
    37    41    40   ar
    38    42    41    1
    39    43    41   ar
    40    44    43    1
    41    45    43   ar
    42    46    45    1
    43    47    48    1
    44    49    47    1
    45    50    29   ar
    46    51    17   ar
    47    52    18    1
    48    53    51    1
    49    54    53    1
    50    55    53    1
    51    56    53    1
    52    57    38   ar
    53    10    35   ar
    54    12    35    1
    55    20    36   ar
    56    27    36   ar
    57    45    57   ar
    58    47    50    1
    59    47    57    1
    60    50    51   ar
    61    58    62    1
    62    59    79    1
    63    60    61    1
    64    62    60   ar
    65    63    62   ar
    66    64    63    1
    67    65    63   ar
    68    66    65    1
    69    67    65   ar
    70    68    67    1
    71    69    70    1
    72    71    69    1
    73    72    69    1
    74    73    72   ar
    75    74    73   ar
    76    75    74    1
    77    76    75    1
    78    77    78    1
    79    79    77   ar
    80    80    79   ar
    81    81    80    1
    82    82    80   ar
    83    83    82    1
    84    84    82   ar
    85    85    84    1
    86    86    72   ar
    87    87    86    1
    88    88    73    1
    89    89    88    1
    90    90    88    1
    91    91    88    1
    92    92    60   ar
    93    93    75    1
    94    94    97    1
    95    95    96    1
    96    97    95   ar
    97    98    97   ar
    98    99    98    1
    99   100    98   ar
   100   101   100    1
   101   102   100   ar
   102   103   102    1
   103   104   105    1
   104   106   104    1
   105   107    86   ar
   106   108    74   ar
   107   109    75    1
   108   110   108    1
   109   111   110    1
   110   112   110    1
   111   113   110    1
   112   114    95   ar
   113    67    92   ar
   114    69    92    1
   115    77    93   ar
   116    84    93   ar
   117   102   114   ar
   118   104   107    1
   119   104   114    1
   120   107   108   ar
   121   115   121    1
   122   116   121    1
   123   117   121    1
   124   118   121    1
   125   119   121    1
   126   120   121    1
   127   122   115    3
   128   123   116    3
   129   124   117    3
   130   125   118    3
   131   126   119    3
   132   127   120    3
   133   128   129    1
   134   129   130    1
   135   132   133    1
   136   134   132    1
   137   135   136    1
   138   137   135    1
   139   138   139    1
   140   140   138    1
   141   141   142    1
   142   143   141    1
@<TRIPOS>SUBSTRUCTURE
     1 RES1        1 GROUP             0 ****  ****    0  
     2 RES2       58 GROUP             0 ****  ****    0  
     3 RES3      115 GROUP             0 ****  ****    0  
     4 RES4      128 GROUP             0 ****  ****    0  
     5 RES5      131 GROUP             0 ****  ****    0  
     6 RES6      132 GROUP             0 ****  ****    0  
     7 RES7      135 GROUP             0 ****  ****    0  
     8 RES8      138 GROUP             0 ****  ****    0  
     9 RES9      141 GROUP             0 ****  ****    0  
@<TRIPOS>CRYSIN
   18.0675   15.0141   13.4514   90.0000   90.0000   90.0000    31     1
