@<TRIPOS>MOLECULE
IQOMIK
   144   151     1     0     0
SMALL
NO_CHARGES
****
Generated from the CSD

@<TRIPOS>ATOM
     1 Fe1      8.0641   8.8111   4.7339   Fe        1 RES1   0.0000
     2 O1       7.7075   6.5016   2.0006   O.2       1 RES1   0.0000
     3 N1       8.2380   5.9075   4.6768   N.pl3     1 RES1   0.0000
     4 N2       6.1497   5.0837   5.2299   N.2       1 RES1   0.0000
     5 N3       5.3089   7.7315   5.3358   N.2       1 RES1   0.0000
     6 N4       9.3698   7.9666   7.3141   N.1       1 RES1   0.0000
     7 N5       7.0947  11.2583   6.1848   N.1       1 RES1   0.0000
     8 N6      10.3560  10.6901   4.1059   N.1       1 RES1   0.0000
     9 N7       6.9402   9.6417   2.0639   N.1       1 RES1   0.0000
    10 C1       9.8211   7.4539   1.6274   C.ar      1 RES1   0.0000
    11 C2      11.1676   7.4012   1.9882   C.ar      1 RES1   0.0000
    12 C3      12.1604   7.6722   1.0479   C.ar      1 RES1   0.0000
    13 C4      11.8133   8.0329  -0.2362   C.ar      1 RES1   0.0000
    14 C5      10.4847   8.1278  -0.5944   C.ar      1 RES1   0.0000
    15 C6       9.4935   7.8188   0.3261   C.ar      1 RES1   0.0000
    16 C7       8.7288   6.9565   2.5257   C.2       1 RES1   0.0000
    17 C8       8.8917   7.0157   4.0017   C.3       1 RES1   0.0000
    18 C9       6.9189   6.0918   4.9867   C.2       1 RES1   0.0000
    19 C10      4.8427   5.1625   5.7040   C.ar      1 RES1   0.0000
    20 C11      3.7636   5.0290   4.8122   C.ar      1 RES1   0.0000
    21 C12      2.4743   4.9469   5.3184   C.ar      1 RES1   0.0000
    22 C13      2.2372   4.9432   6.6854   C.ar      1 RES1   0.0000
    23 C14      3.3049   5.0482   7.5581   C.ar      1 RES1   0.0000
    24 C15      4.5964   5.1519   7.0905   C.ar      1 RES1   0.0000
    25 C16      5.7714   5.2696   8.0410   C.3       1 RES1   0.0000
    26 C17      4.0359   5.0190   3.3304   C.3       1 RES1   0.0000
    27 C18      8.8564   4.5317   4.6529   C.3       1 RES1   0.0000
    28 C19     10.3544   4.6441   4.3488   C.3       1 RES1   0.0000
    29 C20      8.2170   3.6600   3.5708   C.3       1 RES1   0.0000
    30 C21      8.7006   3.8871   6.0290   C.3       1 RES1   0.0000
    31 C22      6.5412   7.5636   5.0674   C.2       1 RES1   0.0000
    32 C23      4.5747   8.8942   5.5921   C.ar      1 RES1   0.0000
    33 C24      4.5585   9.4234   6.9000   C.ar      1 RES1   0.0000
    34 C25      3.6996  10.4830   7.1774   C.ar      1 RES1   0.0000
    35 C26      2.8647  11.0106   6.2205   C.ar      1 RES1   0.0000
    36 C27      2.8806  10.4663   4.9414   C.ar      1 RES1   0.0000
    37 C28      3.7139   9.4144   4.6127   C.ar      1 RES1   0.0000
    38 C29      3.6608   8.7908   3.2415   C.3       1 RES1   0.0000
    39 C30      5.4235   8.8356   7.9709   C.3       1 RES1   0.0000
    40 C31      8.8358   8.2696   6.3212   C.1       1 RES1   0.0000
    41 C32     10.3084   7.6298   8.3045   C.ar      1 RES1   0.0000
    42 C33      9.8399   7.2869   9.5807   C.ar      1 RES1   0.0000
    43 C34     10.7979   6.9623  10.5343   C.ar      1 RES1   0.0000
    44 C35     12.1381   6.9779  10.2278   C.ar      1 RES1   0.0000
    45 C36     12.5663   7.3384   8.9575   C.ar      1 RES1   0.0000
    46 C37     11.6532   7.6754   7.9649   C.ar      1 RES1   0.0000
    47 C38     12.1074   8.0701   6.5865   C.3       1 RES1   0.0000
    48 C39      8.3752   7.2758   9.9147   C.3       1 RES1   0.0000
    49 C40      7.3647  10.2750   5.6011   C.1       1 RES1   0.0000
    50 C41      6.4871  12.2219   6.9973   C.ar      1 RES1   0.0000
    51 C42      6.7673  12.2243   8.3634   C.ar      1 RES1   0.0000
    52 C43      6.0206  13.0932   9.1524   C.ar      1 RES1   0.0000
    53 C44      5.0569  13.9246   8.5969   C.ar      1 RES1   0.0000
    54 C45      4.8565  13.9424   7.2349   C.ar      1 RES1   0.0000
    55 C46      5.5683  13.0907   6.4086   C.ar      1 RES1   0.0000
    56 C47      5.3267  13.0758   4.9276   C.3       1 RES1   0.0000
    57 C48      7.8372  11.3571   8.9725   C.3       1 RES1   0.0000
    58 C49      9.5401   9.8704   4.3212   C.1       1 RES1   0.0000
    59 C50     11.1818  11.8061   3.9857   C.ar      1 RES1   0.0000
    60 C51     11.3556  12.6220   5.1147   C.ar      1 RES1   0.0000
    61 C52     12.1977  13.7159   4.9721   C.ar      1 RES1   0.0000
    62 C53     12.7899  13.9976   3.7607   C.ar      1 RES1   0.0000
    63 C54     12.5823  13.1920   2.6621   C.ar      1 RES1   0.0000
    64 C55     11.7763  12.0694   2.7517   C.ar      1 RES1   0.0000
    65 C56     11.6009  11.1467   1.5874   C.3       1 RES1   0.0000
    66 C57     10.6880  12.2891   6.4230   C.3       1 RES1   0.0000
    67 C58      7.3155   9.2929   3.1046   C.1       1 RES1   0.0000
    68 C59      6.7296  10.2697   0.8309   C.ar      1 RES1   0.0000
    69 C60      7.2115  11.5666   0.6741   C.ar      1 RES1   0.0000
    70 C61      7.0114  12.1989  -0.5461   C.ar      1 RES1   0.0000
    71 C62      6.3511  11.5465  -1.5635   C.ar      1 RES1   0.0000
    72 C63      5.8779  10.2636  -1.3905   C.ar      1 RES1   0.0000
    73 C64      6.0443   9.5772  -0.1869   C.ar      1 RES1   0.0000
    74 C65      5.4949   8.1973   0.0210   C.3       1 RES1   0.0000
    75 C66      7.9063  12.2877   1.8041   C.3       1 RES1   0.0000
    76 H1      11.4418   7.1495   3.0019   H         1 RES1   0.0000
    77 H2      13.2016   7.6001   1.3259   H         1 RES1   0.0000
    78 H3      12.5832   8.2433  -0.9638   H         1 RES1   0.0000
    79 H4      10.2152   8.4399  -1.5926   H         1 RES1   0.0000
    80 H5       8.4558   7.8649   0.0296   H         1 RES1   0.0000
    81 H6       9.9516   6.9587   4.2030   H         1 RES1   0.0000
    82 H7       1.6400   4.8832   4.6353   H         1 RES1   0.0000
    83 H8       1.2295   4.8596   7.0638   H         1 RES1   0.0000
    84 H9       3.1224   5.0487   8.6228   H         1 RES1   0.0000
    85 H10      5.3972   5.4606   9.0358   H         1 RES1   0.0000
    86 H11      6.4126   6.0829   7.7345   H         1 RES1   0.0000
    87 H12      6.3342   4.3471   8.0390   H         1 RES1   0.0000
    88 H13      3.0906   5.1485   2.8236   H         1 RES1   0.0000
    89 H14      4.4605   4.0630   3.0616   H         1 RES1   0.0000
    90 H15      4.7129   5.8078   3.0377   H         1 RES1   0.0000
    91 H16     10.5679   5.0930   3.3901   H         1 RES1   0.0000
    92 H17     10.7764   3.6511   4.3827   H         1 RES1   0.0000
    93 H18     10.7881   5.2475   5.1331   H         1 RES1   0.0000
    94 H19      7.1605   3.5522   3.7707   H         1 RES1   0.0000
    95 H20      8.6999   2.6992   3.6579   H         1 RES1   0.0000
    96 H21      8.3561   4.0439   2.5708   H         1 RES1   0.0000
    97 H22      9.2527   2.9581   6.0186   H         1 RES1   0.0000
    98 H23      7.6717   3.6913   6.2936   H         1 RES1   0.0000
    99 H24      9.1382   4.5573   6.7543   H         1 RES1   0.0000
   100 H25      3.6899  10.9034   8.1720   H         1 RES1   0.0000
   101 H26      2.2070  11.8338   6.4581   H         1 RES1   0.0000
   102 H27      2.2265  10.8750   4.1860   H         1 RES1   0.0000
   103 H28      4.6478   8.6723   2.8214   H         1 RES1   0.0000
   104 H29      3.0547   9.3860   2.5742   H         1 RES1   0.0000
   105 H30      3.2053   7.8207   3.3717   H         1 RES1   0.0000
   106 H31      6.4287   8.6205   7.6396   H         1 RES1   0.0000
   107 H32      4.9372   7.9166   8.2658   H         1 RES1   0.0000
   108 H33      5.4577   9.5108   8.8131   H         1 RES1   0.0000
   109 H34     10.4849   6.6916  11.5319   H         1 RES1   0.0000
   110 H35     12.8621   6.7077  10.9820   H         1 RES1   0.0000
   111 H36     13.6231   7.3536   8.7372   H         1 RES1   0.0000
   112 H37     11.5633   7.5246   5.8298   H         1 RES1   0.0000
   113 H38     13.1417   7.7611   6.5807   H         1 RES1   0.0000
   114 H39     12.0474   9.1293   6.3799   H         1 RES1   0.0000
   115 H40      7.8447   8.1373   9.5397   H         1 RES1   0.0000
   116 H41      8.2245   7.1959  10.9812   H         1 RES1   0.0000
   117 H42      8.0017   6.3843   9.4307   H         1 RES1   0.0000
   118 H43      6.1939  13.1214  10.2180   H         1 RES1   0.0000
   119 H44      4.4623  14.5611   9.2360   H         1 RES1   0.0000
   120 H45      4.1400  14.6284   6.8078   H         1 RES1   0.0000
   121 H46      5.0389  12.0904   4.5892   H         1 RES1   0.0000
   122 H47      6.2386  13.3741   4.4324   H         1 RES1   0.0000
   123 H48      4.5416  13.7796   4.6936   H         1 RES1   0.0000
   124 H49      8.0281  10.4322   8.4467   H         1 RES1   0.0000
   125 H50      7.5462  11.1390   9.9890   H         1 RES1   0.0000
   126 H51      8.7336  11.9589   8.9763   H         1 RES1   0.0000
   127 H52     12.3921  14.3540   5.8218   H         1 RES1   0.0000
   128 H53     13.4266  14.8653   3.6701   H         1 RES1   0.0000
   129 H54     13.0528  13.4387   1.7220   H         1 RES1   0.0000
   130 H55     11.1339  10.2359   1.9327   H         1 RES1   0.0000
   131 H56     12.5580  10.9151   1.1447   H         1 RES1   0.0000
   132 H57     10.9685  11.6191   0.8500   H         1 RES1   0.0000
   133 H58     11.0308  12.9979   7.1620   H         1 RES1   0.0000
   134 H59     10.9115  11.2862   6.7553   H         1 RES1   0.0000
   135 H60      9.6215  12.3949   6.2904   H         1 RES1   0.0000
   136 H61      7.3745  13.2051  -0.6969   H         1 RES1   0.0000
   137 H62      6.2026  12.0451  -2.5095   H         1 RES1   0.0000
   138 H63      5.3635   9.7776  -2.2068   H         1 RES1   0.0000
   139 H64      6.1680   7.6261   0.6430   H         1 RES1   0.0000
   140 H65      5.3867   7.7086  -0.9357   H         1 RES1   0.0000
   141 H66      4.5309   8.2659   0.5020   H         1 RES1   0.0000
   142 H67      8.7166  11.6553   2.1353   H         1 RES1   0.0000
   143 H68      7.2116  12.4377   2.6170   H         1 RES1   0.0000
   144 H69      8.3005  13.2417   1.4870   H         1 RES1   0.0000
@<TRIPOS>BOND
     1     1    17    1
     2     2    16    2
     3     3    17    1
     4     4    18    2
     5     5    31    2
     6     6    40    3
     7     7    49    3
     8     8    58    3
     9     9    67    3
    10    10    11   ar
    11    11    12   ar
    12    12    13   ar
    13    13    14   ar
    14    14    15   ar
    15    15    10   ar
    16    16    10    1
    17    17    16    1
    18    18     3    1
    19    19     4    1
    20    20    19   ar
    21    21    20   ar
    22    22    21   ar
    23    23    22   ar
    24    24    19   ar
    25    25    24    1
    26    26    20    1
    27    27     3    1
    28    28    27    1
    29    29    27    1
    30    30    27    1
    31    31     1    1
    32    32     5    1
    33    33    32   ar
    34    34    33   ar
    35    35    34   ar
    36    36    35   ar
    37    37    32   ar
    38    38    37    1
    39    39    33    1
    40    40     1    1
    41    41     6    1
    42    42    41   ar
    43    43    42   ar
    44    44    43   ar
    45    45    44   ar
    46    46    41   ar
    47    47    46    1
    48    48    42    1
    49    49     1    1
    50    50     7    1
    51    51    50   ar
    52    52    51   ar
    53    53    52   ar
    54    54    53   ar
    55    55    50   ar
    56    56    55    1
    57    57    51    1
    58    58     1    1
    59    59     8    1
    60    60    59   ar
    61    61    60   ar
    62    62    61   ar
    63    63    62   ar
    64    64    59   ar
    65    65    64    1
    66    66    60    1
    67    67     1    1
    68    68     9    1
    69    69    68   ar
    70    70    69   ar
    71    71    70   ar
    72    72    71   ar
    73    73    68   ar
    74    74    73    1
    75    75    69    1
    76    76    11    1
    77    77    12    1
    78    78    13    1
    79    79    14    1
    80    80    15    1
    81    81    17    1
    82    82    21    1
    83    83    22    1
    84    84    23    1
    85    85    25    1
    86    86    25    1
    87    87    25    1
    88    88    26    1
    89    89    26    1
    90    90    26    1
    91    91    28    1
    92    92    28    1
    93    93    28    1
    94    94    29    1
    95    95    29    1
    96    96    29    1
    97    97    30    1
    98    98    30    1
    99    99    30    1
   100   100    34    1
   101   101    35    1
   102   102    36    1
   103   103    38    1
   104   104    38    1
   105   105    38    1
   106   106    39    1
   107   107    39    1
   108   108    39    1
   109   109    43    1
   110   110    44    1
   111   111    45    1
   112   112    47    1
   113   113    47    1
   114   114    47    1
   115   115    48    1
   116   116    48    1
   117   117    48    1
   118   118    52    1
   119   119    53    1
   120   120    54    1
   121   121    56    1
   122   122    56    1
   123   123    56    1
   124   124    57    1
   125   125    57    1
   126   126    57    1
   127   127    61    1
   128   128    62    1
   129   129    63    1
   130   130    65    1
   131   131    65    1
   132   132    65    1
   133   133    66    1
   134   134    66    1
   135   135    66    1
   136   136    70    1
   137   137    71    1
   138   138    72    1
   139   139    74    1
   140   140    74    1
   141   141    74    1
   142   142    75    1
   143   143    75    1
   144   144    75    1
   145    18    31    1
   146    23    24   ar
   147    36    37   ar
   148    45    46   ar
   149    54    55   ar
   150    63    64   ar
   151    72    73   ar
@<TRIPOS>SUBSTRUCTURE
     1 RES1        1 GROUP             0 ****  ****    0  
@<TRIPOS>CRYSIN
   11.5510   12.1505   20.1157   95.6760   93.7910   92.1600     2     1
