@<TRIPOS>MOLECULE
IRESOO
   114   116    10     0     0
SMALL
USER_CHARGES
****
Generated from the CSD

@<TRIPOS>ATOM
     1 H1       8.7863   2.7585   1.2754   H         1 RES1   0.0000
     2 H2       9.5448   3.5412   0.3462   H         1 RES1   0.0000
     3 O1       8.7748   3.1677   0.4245   O.3       1 RES1   0.0000
     4 Fe1      6.2274   9.0365   4.5602   Fe        2 RES2   2.0000
     5 N1       4.4008   9.0190   3.7351   N.ar      2 RES2   0.0000
     6 N2       6.1876  10.7742   3.8171   N.ar      2 RES2   0.0000
     7 N3       8.0513   9.6689   5.1125   N.ar      2 RES2   0.0000
     8 N4       5.4958  14.7598   0.8636   N.ar      2 RES2   1.0000
     9 N5       6.9383   8.0315   2.9753   N.ar      2 RES2   0.0000
    10 N6       6.2701   7.2756   5.2910   N.ar      2 RES2   0.0000
    11 N7       5.5420   9.4223   6.3970   N.ar      2 RES2   0.0000
    12 N8       5.8981   2.3833   6.2184   N.ar      2 RES2   1.0000
    13 C1       3.5304   8.0034   3.7005   C.ar      2 RES2   0.0000
    14 H3       3.7510   7.2137   4.1395   H         2 RES2   0.0000
    15 C2       2.3351   8.0766   3.0518   C.ar      2 RES2   0.0000
    16 H4       1.7641   7.3426   3.0372   H         2 RES2   0.0000
    17 C3       1.9749   9.2575   2.4068   C.ar      2 RES2   0.0000
    18 H5       1.1565   9.3354   1.9714   H         2 RES2   0.0000
    19 C4       2.8668  10.3074   2.4323   C.ar      2 RES2   0.0000
    20 H6       2.6573  11.1085   2.0078   H         2 RES2   0.0000
    21 C5       4.0606  10.1673   3.0846   C.ar      2 RES2   0.0000
    22 C6       5.1110  11.1899   3.1429   C.ar      2 RES2   0.0000
    23 C7       5.0891  12.4276   2.5307   C.ar      2 RES2   0.0000
    24 H7       4.3395  12.7023   2.0534   H         2 RES2   0.0000
    25 C8       6.2042  13.2656   2.6346   C.ar      2 RES2   0.0000
    26 C9       7.2920  12.8247   3.3579   C.ar      2 RES2   0.0000
    27 H8       8.0435  13.3662   3.4417   H         2 RES2   0.0000
    28 C10      7.2706  11.5754   3.9628   C.ar      2 RES2   0.0000
    29 C11      8.3309  10.9479   4.7444   C.ar      2 RES2   0.0000
    30 C12      9.5177  11.5618   5.1088   C.ar      2 RES2   0.0000
    31 H9       9.6947  12.4371   4.8465   H         2 RES2   0.0000
    32 C13     10.4253  10.8684   5.8613   C.ar      2 RES2   0.0000
    33 H10     11.2160  11.2736   6.1328   H         2 RES2   0.0000
    34 C14     10.1580   9.5652   6.2093   C.ar      2 RES2   0.0000
    35 H11     10.7752   9.0727   6.7013   H         2 RES2   0.0000
    36 C15      8.9690   8.9955   5.8212   C.ar      2 RES2   0.0000
    37 H12      8.7942   8.1129   6.0581   H         2 RES2   0.0000
    38 C16      6.2455  14.5860   1.9641   C.ar      2 RES2   0.0000
    39 C17      5.5006  15.9079   0.1749   C.ar      2 RES2   0.0000
    40 H13      4.9823  15.9824  -0.5940   H         2 RES2   0.0000
    41 C18      6.2456  16.9581   0.5794   C.ar      2 RES2   0.0000
    42 H14      6.2292  17.7582   0.1057   H         2 RES2   0.0000
    43 C19      7.0217  16.8259   1.6890   C.ar      2 RES2   0.0000
    44 H15      7.5571  17.5317   1.9696   H         2 RES2   0.0000
    45 C20      7.0117  15.6233   2.4068   C.ar      2 RES2   0.0000
    46 H16      7.5225  15.5347   3.1794   H         2 RES2   0.0000
    47 C21      7.2363   8.5315   1.7764   C.ar      2 RES2   0.0000
    48 H17      7.0915   9.4368   1.6197   H         2 RES2   0.0000
    49 C22      7.7475   7.7622   0.7743   C.ar      2 RES2   0.0000
    50 H18      7.9387   8.1421  -0.0528   H         2 RES2   0.0000
    51 C23      7.9792   6.4274   0.9875   C.ar      2 RES2   0.0000
    52 H19      8.3527   5.8978   0.3207   H         2 RES2   0.0000
    53 C24      7.6421   5.8827   2.2301   C.ar      2 RES2   0.0000
    54 H20      7.7702   4.9777   2.4032   H         2 RES2   0.0000
    55 C25      7.1180   6.7140   3.1848   C.ar      2 RES2   0.0000
    56 C26      6.7107   6.2576   4.5349   C.ar      2 RES2   0.0000
    57 C27      6.7391   4.9671   5.0360   C.ar      2 RES2   0.0000
    58 H21      7.0243   4.2572   4.5076   H         2 RES2   0.0000
    59 C28      6.3360   4.7587   6.3369   C.ar      2 RES2   0.0000
    60 C29      5.9068   5.8142   7.1130   C.ar      2 RES2   0.0000
    61 H22      5.6586   5.6803   8.0003   H         2 RES2   0.0000
    62 C30      5.8512   7.0839   6.5409   C.ar      2 RES2   0.0000
    63 C31      5.4103   8.3105   7.1968   C.ar      2 RES2   0.0000
    64 C32      4.9385   8.4091   8.4686   C.ar      2 RES2   0.0000
    65 H23      4.8399   7.6488   8.9951   H         2 RES2   0.0000
    66 C33      4.6054   9.6655   8.9769   C.ar      2 RES2   0.0000
    67 H24      4.2875   9.7502   9.8460   H         2 RES2   0.0000
    68 C34      4.7487  10.7595   8.1935   C.ar      2 RES2   0.0000
    69 H25      4.5319  11.6029   8.5214   H         2 RES2   0.0000
    70 C35      5.2165  10.6180   6.9144   C.ar      2 RES2   0.0000
    71 H26      5.3112  11.3763   6.3861   H         2 RES2   0.0000
    72 C36      6.4010   3.4097   6.9381   C.ar      2 RES2   0.0000
    73 C37      5.9319   1.1178   6.6539   C.ar      2 RES2   0.0000
    74 H27      5.5987   0.4318   6.1219   H         2 RES2   0.0000
    75 C38      6.4566   0.8396   7.8783   C.ar      2 RES2   0.0000
    76 H28      6.4712  -0.0337   8.1935   H         2 RES2   0.0000
    77 C39      6.9682   1.8687   8.6471   C.ar      2 RES2   0.0000
    78 H29      7.3227   1.6917   9.4889   H         2 RES2   0.0000
    79 C40      6.9526   3.1472   8.1661   C.ar      2 RES2   0.0000
    80 H30      7.3154   3.8390   8.6726   H         2 RES2   0.0000
    81 H31      4.9833  13.9333   0.4191   H         2 RES2   0.0000
    82 H32      5.5802   2.5376   5.3931   H         2 RES2   0.0000
    83 P1       6.6126   5.8781  11.3666   P.3       3 RES3  -1.0000
    84 F1       5.5305   5.2166  10.4582   F         3 RES3   0.0000
    85 F2       7.5965   4.6648  11.1797   F         3 RES3   0.0000
    86 F3       7.6897   6.6732  12.2128   F         3 RES3   0.0000
    87 F4       5.7358   7.1651  11.5259   F         3 RES3   0.0000
    88 F5       7.2117   6.4912  10.0410   F         3 RES3   0.0000
    89 F6       6.0037   5.2744  12.6573   F         3 RES3   0.0000
    90 P2       1.9604   5.2250  14.6963   P.3       4 RES4  -1.0000
    91 F7       1.4125   4.3631  13.5428   F         4 RES4   0.0000
    92 F8       2.7707   3.9709  15.1808   F         4 RES4   0.0000
    93 F9       2.6037   6.0590  15.8166   F         4 RES4   0.0000
    94 F10      1.2234   6.5118  14.2133   F         4 RES4   0.0000
    95 F11      3.1722   5.6193  13.7687   F         4 RES4   0.0000
    96 F12      0.8526   4.8438  15.6855   F         4 RES4   0.0000
    97 P3       3.8313   4.6737   0.6985   P.3       5 RES5  -1.0000
    98 F13      4.4396   5.2931   1.8566   F         5 RES5   0.0000
    99 F14      2.7659   4.0225   1.6106   F         5 RES5   0.0000
   100 F15      3.0719   4.1385  -0.4974   F         5 RES5   0.0000
   101 F16      4.9351   5.1460  -0.2624   F         5 RES5   0.0000
   102 F17      2.8552   5.8741   0.5994   F         5 RES5   0.0000
   103 F18      4.6568   3.4452   0.7816   F         5 RES5   0.0000
   104 P4       1.9142   5.1514   6.4899   P.3       6 RES6  -1.0000
   105 F19      2.9308   4.7677   5.4295   F         6 RES6   0.0000
   106 F20      1.0867   3.8382   6.4772   F         6 RES6   0.0000
   107 F21      0.8532   5.6966   7.3626   F         6 RES6   0.0000
   108 F22      2.6729   6.5293   6.5100   F         6 RES6   0.0000
   109 F23      2.8215   4.6623   7.4811   F         6 RES6   0.0000
   110 F24      1.0633   5.6970   5.3949   F         6 RES6   0.0000
   111 O2       1.8788   1.6417   4.7627   O.3       7 RES7   0.0000
   112 O3       4.4355   2.5707   3.9865   O.3       8 RES8   0.0000
   113 O4       1.7654   6.9812  10.5894   O.3       9 RES9   0.0000
   114 O5       8.4002   2.5717   3.1174   O.3      10 RES10   0.0000
@<TRIPOS>BOND
     1     1     3    1
     2     2     3    1
     3     4     5    1
     4     5    13   ar
     5     6     4    1
     6     7     4    1
     7     8    38   ar
     8     9     4    1
     9    10     4    1
    10    11     4    1
    11    12    72   ar
    12    13    14    1
    13    15    13   ar
    14    16    15    1
    15    17    15   ar
    16    18    17    1
    17    19    17   ar
    18    20    19    1
    19    21     5   ar
    20    22     6   ar
    21    23    22   ar
    22    24    23    1
    23    25    23   ar
    24    26    25   ar
    25    27    26    1
    26    28     6   ar
    27    29     7   ar
    28    30    29   ar
    29    31    30    1
    30    32    30   ar
    31    33    32    1
    32    34    32   ar
    33    35    34    1
    34    36     7   ar
    35    37    36    1
    36    38    25    1
    37    39     8   ar
    38    40    39    1
    39    41    39   ar
    40    42    41    1
    41    43    41   ar
    42    44    43    1
    43    45    38   ar
    44    46    45    1
    45    47     9   ar
    46    48    47    1
    47    49    47   ar
    48    50    49    1
    49    51    49   ar
    50    52    51    1
    51    53    51   ar
    52    54    53    1
    53    55     9   ar
    54    56    10   ar
    55    57    56   ar
    56    58    57    1
    57    59    57   ar
    58    60    59   ar
    59    61    60    1
    60    62    10   ar
    61    63    11   ar
    62    64    63   ar
    63    65    64    1
    64    66    64   ar
    65    67    66    1
    66    68    66   ar
    67    69    68    1
    68    70    11   ar
    69    71    70    1
    70    72    59    1
    71    73    12   ar
    72    74    73    1
    73    75    73   ar
    74    76    75    1
    75    77    75   ar
    76    78    77    1
    77    79    72   ar
    78    80    79    1
    79    81     8    1
    80    82    12    1
    81    19    21   ar
    82    21    22    1
    83    26    28   ar
    84    28    29    1
    85    34    36   ar
    86    43    45   ar
    87    53    55   ar
    88    55    56    1
    89    60    62   ar
    90    62    63    1
    91    68    70   ar
    92    77    79   ar
    93    83    84    1
    94    85    83    1
    95    86    83    1
    96    87    83    1
    97    88    83    1
    98    89    83    1
    99    90    91    1
   100    92    90    1
   101    93    90    1
   102    94    90    1
   103    95    90    1
   104    96    90    1
   105    97    98    1
   106    99    97    1
   107   100    97    1
   108   101    97    1
   109   102    97    1
   110   103    97    1
   111   104   105    1
   112   106   104    1
   113   107   104    1
   114   108   104    1
   115   109   104    1
   116   110   104    1
@<TRIPOS>SUBSTRUCTURE
     1 RES1        1 GROUP             0 ****  ****    0  
     2 RES2        4 GROUP             0 ****  ****    0  
     3 RES3       83 GROUP             0 ****  ****    0  
     4 RES4       90 GROUP             0 ****  ****    0  
     5 RES5       97 GROUP             0 ****  ****    0  
     6 RES6      104 GROUP             0 ****  ****    0  
     7 RES7      111 GROUP             0 ****  ****    0  
     8 RES8      112 GROUP             0 ****  ****    0  
     9 RES9      113 GROUP             0 ****  ****    0  
    10 RES10     114 GROUP             0 ****  ****    0  
@<TRIPOS>CRYSIN
    8.7234   16.8847   18.6780   77.3030   87.9900   77.6790     2     1
