@<TRIPOS>MOLECULE
IRUSAQ
   138   144     3     0     0
SMALL
USER_CHARGES
****
Generated from the CSD

@<TRIPOS>ATOM
     1 Fe1      7.5815   3.9224   3.4202   Fe        1 RES1   2.0000
     2 O1       5.4964   9.3919   7.4765   O.2       1 RES1   0.0000
     3 O2       6.5272   8.5123   9.3042   O.3       1 RES1   0.0000
     4 O3       3.3133   3.8892  -2.3394   O.2       1 RES1   0.0000
     5 O4       4.0919   1.8720  -2.9714   O.3       1 RES1   0.0000
     6 O5       2.6999  -0.3043   6.5147   O.2       1 RES1   0.0000
     7 O6       1.9884   1.4644   7.7487   O.3       1 RES1   0.0000
     8 N1       6.5338   5.3354   4.3628   N.ar      1 RES1   0.0000
     9 N2       6.0716   4.0495   2.1301   N.ar      1 RES1   0.0000
    10 N3       6.2885   7.2440   7.5052   N.am      1 RES1   0.0000
    11 H1       6.6746   6.6661   8.0114   H         1 RES1   0.0000
    12 N4       4.6805   2.6414  -0.9782   N.am      1 RES1   0.0000
    13 H2       5.0919   1.8871  -0.9289   H         1 RES1   0.0000
    14 N5       6.6482   2.4128   4.3204   N.ar      1 RES1   0.0000
    15 N6       3.8259   1.6889   6.5476   N.am      1 RES1   0.0000
    16 H3       3.8227   2.4675   6.9129   H         1 RES1   0.0000
    17 C1       5.4337   5.7788   3.6692   C.ar      1 RES1   0.0000
    18 C2       4.6084   6.7863   4.1904   C.ar      1 RES1   0.0000
    19 H4       3.8923   7.0982   3.6869   H         1 RES1   0.0000
    20 C3       4.8531   7.3207   5.4518   C.ar      1 RES1   0.0000
    21 H5       4.3000   7.9778   5.8061   H         1 RES1   0.0000
    22 C4       5.9568   6.8425   6.1741   C.ar      1 RES1   0.0000
    23 C5       6.7816   5.8683   5.5790   C.ar      1 RES1   0.0000
    24 H6       7.5322   5.5768   6.0455   H         1 RES1   0.0000
    25 C6       5.1776   5.0782   2.4010   C.ar      1 RES1   0.0000
    26 C7       4.1262   5.3518   1.5227   C.ar      1 RES1   0.0000
    27 H7       3.5426   6.0524   1.7142   H         1 RES1   0.0000
    28 C8       3.9334   4.6026   0.3694   C.ar      1 RES1   0.0000
    29 H8       3.2481   4.8046  -0.2244   H         1 RES1   0.0000
    30 C9       4.8136   3.5159   0.1245   C.ar      1 RES1   0.0000
    31 C10      5.8606   3.3062   1.0397   C.ar      1 RES1   0.0000
    32 H9       6.4455   2.6030   0.8742   H         1 RES1   0.0000
    33 C11      6.0308   8.4867   8.0360   C.2       1 RES1   0.0000
    34 C12      6.3914   9.7831  10.0772   C.3       1 RES1   0.0000
    35 H10      6.0648   9.6041  10.9733   H         1 RES1   0.0000
    36 H11      5.7761  10.3891   9.6353   H         1 RES1   0.0000
    37 C13      7.8061  10.3840  10.1251   C.3       1 RES1   0.0000
    38 H12      7.7555  11.2968  10.4165   H         1 RES1   0.0000
    39 H13      8.1988  10.3482   9.2495   H         1 RES1   0.0000
    40 H14      8.3473   9.8828  10.7393   H         1 RES1   0.0000
    41 C14      3.9653   2.8945  -2.1164   C.2       1 RES1   0.0000
    42 C15      3.5893   2.1044  -4.3381   C.3       1 RES1   0.0000
    43 H15      2.7910   2.6567  -4.3053   H         1 RES1   0.0000
    44 H16      4.2595   2.5698  -4.8607   H         1 RES1   0.0000
    45 C16      3.2761   0.8106  -4.9647   C.3       1 RES1   0.0000
    46 H17      3.9887   0.1892  -4.7923   H         1 RES1   0.0000
    47 H18      3.1751   0.9282  -5.9114   H         1 RES1   0.0000
    48 H19      2.4586   0.4654  -4.5967   H         1 RES1   0.0000
    49 C17      7.0209   1.1711   3.8881   C.ar      1 RES1   0.0000
    50 C18      6.3218   0.0153   4.3163   C.ar      1 RES1   0.0000
    51 H20      6.5774  -0.8234   4.0098   H         1 RES1   0.0000
    52 C19      5.2403   0.1406   5.2055   C.ar      1 RES1   0.0000
    53 H21      4.7732  -0.6111   5.4928   H         1 RES1   0.0000
    54 C20      4.8846   1.4064   5.6447   C.ar      1 RES1   0.0000
    55 C21      5.6155   2.5161   5.1918   C.ar      1 RES1   0.0000
    56 H22      5.3795   3.3599   5.5037   H         1 RES1   0.0000
    57 C22      2.8193   0.8489   6.8896   C.2       1 RES1   0.0000
    58 C23      0.7318   0.7594   8.1126   C.3       1 RES1   0.0000
    59 H23      0.9032  -0.1892   8.2111   H         1 RES1   0.0000
    60 H24      0.3981   1.0970   8.9581   H         1 RES1   0.0000
    61 C24     -0.2719   0.9768   7.0551   C.3       1 RES1   0.0000
    62 H25     -0.2518   1.8973   6.7788   H         1 RES1   0.0000
    63 H26     -1.1457   0.7645   7.3944   H         1 RES1   0.0000
    64 H27     -0.0752   0.4142   6.3054   H         1 RES1   0.0000
    65 O1A      9.6665   9.3919  -0.6362   O.2       1 RES1   0.0000
    66 O2A      8.6357   8.5123  -2.4639   O.3       1 RES1   0.0000
    67 O3A     11.8496   3.8892   9.1797   O.2       1 RES1   0.0000
    68 O4A     11.0710   1.8720   9.8118   O.3       1 RES1   0.0000
    69 O5A     12.4630  -0.3043   0.3256   O.2       1 RES1   0.0000
    70 O6A     13.1745   1.4644  -0.9084   O.3       1 RES1   0.0000
    71 N1A      8.6291   5.3354   2.4776   N.ar      1 RES1   0.0000
    72 N2A      9.0913   4.0495   4.7103   N.ar      1 RES1   0.0000
    73 N3A      8.8744   7.2440  -0.6649   N.am      1 RES1   0.0000
    74 H1A      8.4883   6.6661  -1.1711   H         1 RES1   0.0000
    75 N4A     10.4825   2.6414   7.8185   N.am      1 RES1   0.0000
    76 H2A     10.0710   1.8871   7.7693   H         1 RES1   0.0000
    77 N5A      8.5148   2.4128   2.5200   N.ar      1 RES1   0.0000
    78 N6A     11.3370   1.6889   0.2928   N.am      1 RES1   0.0000
    79 H3A     11.3402   2.4675  -0.0725   H         1 RES1   0.0000
    80 C1A      9.7292   5.7788   3.1712   C.ar      1 RES1   0.0000
    81 C2A     10.5545   6.7863   2.6499   C.ar      1 RES1   0.0000
    82 H4A     11.2706   7.0982   3.1534   H         1 RES1   0.0000
    83 C3A     10.3098   7.3207   1.3886   C.ar      1 RES1   0.0000
    84 H5A     10.8630   7.9778   1.0343   H         1 RES1   0.0000
    85 C4A      9.2061   6.8425   0.6662   C.ar      1 RES1   0.0000
    86 C5A      8.3813   5.8683   1.2614   C.ar      1 RES1   0.0000
    87 H6A      7.6307   5.5768   0.7948   H         1 RES1   0.0000
    88 C6A      9.9853   5.0782   4.4394   C.ar      1 RES1   0.0000
    89 C7A     11.0367   5.3518   5.3177   C.ar      1 RES1   0.0000
    90 H7A     11.6203   6.0524   5.1262   H         1 RES1   0.0000
    91 C8A     11.2295   4.6026   6.4710   C.ar      1 RES1   0.0000
    92 H8A     11.9148   4.8046   7.0647   H         1 RES1   0.0000
    93 C9A     10.3493   3.5159   6.7158   C.ar      1 RES1   0.0000
    94 C10A     9.3024   3.3062   5.8006   C.ar      1 RES1   0.0000
    95 H9A      8.7175   2.6030   5.9661   H         1 RES1   0.0000
    96 C11A     9.1321   8.4867  -1.1957   C.2       1 RES1   0.0000
    97 C12A     8.7715   9.7831  -3.2369   C.3       1 RES1   0.0000
    98 H10A     9.0982   9.6041  -4.1329   H         1 RES1   0.0000
    99 H11A     9.3869  10.3891  -2.7950   H         1 RES1   0.0000
   100 C13A     7.3569  10.3840  -3.2847   C.3       1 RES1   0.0000
   101 H12A     7.4074  11.2968  -3.5761   H         1 RES1   0.0000
   102 H13A     6.9641  10.3482  -2.4092   H         1 RES1   0.0000
   103 H14A     6.8156   9.8828  -3.8990   H         1 RES1   0.0000
   104 C14A    11.1976   2.8945   8.9567   C.2       1 RES1   0.0000
   105 C15A    11.5736   2.1044  11.1785   C.3       1 RES1   0.0000
   106 H15A    12.3719   2.6567  11.1457   H         1 RES1   0.0000
   107 H16A    10.9035   2.5698  11.7011   H         1 RES1   0.0000
   108 C16A    11.8868   0.8106  11.8051   C.3       1 RES1   0.0000
   109 H17A    11.1743   0.1892  11.6327   H         1 RES1   0.0000
   110 H18A    11.9878   0.9282  12.7518   H         1 RES1   0.0000
   111 H19A    12.7044   0.4654  11.4371   H         1 RES1   0.0000
   112 C17A     8.1420   1.1711   2.9523   C.ar      1 RES1   0.0000
   113 C18A     8.8411   0.0153   2.5241   C.ar      1 RES1   0.0000
   114 H20A     8.5855  -0.8234   2.8305   H         1 RES1   0.0000
   115 C19A     9.9226   0.1406   1.6348   C.ar      1 RES1   0.0000
   116 H21A    10.3897  -0.6111   1.3475   H         1 RES1   0.0000
   117 C20A    10.2784   1.4064   1.1957   C.ar      1 RES1   0.0000
   118 C21A     9.5474   2.5161   1.6485   C.ar      1 RES1   0.0000
   119 H22A     9.7834   3.3599   1.3366   H         1 RES1   0.0000
   120 C22A    12.3436   0.8489  -0.0493   C.2       1 RES1   0.0000
   121 C23A    14.4311   0.7594  -1.2723   C.3       1 RES1   0.0000
   122 H23A    14.2597  -0.1892  -1.3708   H         1 RES1   0.0000
   123 H24A    14.7648   1.0970  -2.1178   H         1 RES1   0.0000
   124 C24A    15.4348   0.9768  -0.2148   C.3       1 RES1   0.0000
   125 H25A    15.4147   1.8973   0.0616   H         1 RES1   0.0000
   126 H26A    16.3086   0.7645  -0.5541   H         1 RES1   0.0000
   127 H27A    15.2381   0.4142   0.5349   H         1 RES1   0.0000
   128 F1       1.3038   9.7013   1.2928   F         2 RES2   0.0000
   129 F2       1.8604   7.7707   2.0343   F         2 RES2   0.0000
   130 F3       2.1707   9.4098   3.3600   F         2 RES2   0.0000
   131 F4       0.1083   8.8498   2.8141   F         2 RES2   0.0000
   132 B1       1.3788   8.9214   2.4311   B         2 RES2  -1.0000
   133 O7       3.8862   4.3571   7.5572   O.3       3 RES3   0.0000
   134 H28      4.2282   4.1449   8.2713   H         3 RES3   0.0000
   135 C25      2.6443   5.1703   7.8185   C.3       3 RES3   0.0000
   136 H29      2.3258   4.9938   8.7064   H         3 RES3   0.0000
   137 H30      1.9671   4.9350   7.1810   H         3 RES3   0.0000
   138 H31      2.8505   6.1061   7.7337   H         3 RES3   0.0000
@<TRIPOS>BOND
     1     1     8    1
     2     2    33    2
     3     3    33    1
     4     4    41    2
     5     5    41    1
     6     6    57    2
     7     7    57    1
     8     8    17   ar
     9     9     1    1
    10    10    11    1
    11    12    13    1
    12    14     1    1
    13    15    16    1
    14    17    18   ar
    15    18    19    1
    16    20    18   ar
    17    21    20    1
    18    22    10    1
    19    23     8   ar
    20    24    23    1
    21    25     9   ar
    22    26    25   ar
    23    27    26    1
    24    28    26   ar
    25    29    28    1
    26    30    12    1
    27    31     9   ar
    28    32    31    1
    29    33    10   am
    30    34     3    1
    31    35    34    1
    32    36    34    1
    33    37    34    1
    34    38    37    1
    35    39    37    1
    36    40    37    1
    37    41    12   am
    38    42     5    1
    39    43    42    1
    40    44    42    1
    41    45    42    1
    42    46    45    1
    43    47    45    1
    44    48    45    1
    45    49    14   ar
    46    50    49   ar
    47    51    50    1
    48    52    50   ar
    49    53    52    1
    50    54    15    1
    51    55    14   ar
    52    56    55    1
    53    57    15   am
    54    58     7    1
    55    59    58    1
    56    60    58    1
    57    61    58    1
    58    62    61    1
    59    63    61    1
    60    64    61    1
    61    65    96    2
    62    66    96    1
    63    67   104    2
    64    68   104    1
    65    69   120    2
    66    70   120    1
    67    71     1    1
    68    72     1    1
    69    73    74    1
    70    75    76    1
    71    77     1    1
    72    78    79    1
    73    80    71   ar
    74    81    80   ar
    75    82    81    1
    76    83    81   ar
    77    84    83    1
    78    85    73    1
    79    86    71   ar
    80    87    86    1
    81    88    72   ar
    82    89    88   ar
    83    90    89    1
    84    91    89   ar
    85    92    91    1
    86    93    75    1
    87    94    72   ar
    88    95    94    1
    89    96    73   am
    90    97    66    1
    91    98    97    1
    92    99    97    1
    93   100    97    1
    94   101   100    1
    95   102   100    1
    96   103   100    1
    97   104    75   am
    98   105    68    1
    99   106   105    1
   100   107   105    1
   101   108   105    1
   102   109   108    1
   103   110   108    1
   104   111   108    1
   105   112    49    1
   106   113   112   ar
   107   114   113    1
   108   115   113   ar
   109   116   115    1
   110   117    78    1
   111   118    77   ar
   112   119   118    1
   113   120    78   am
   114   121    70    1
   115   122   121    1
   116   123   121    1
   117   124   121    1
   118   125   124    1
   119   126   124    1
   120   127   124    1
   121    17    25    1
   122    20    22   ar
   123    22    23   ar
   124    28    30   ar
   125    30    31   ar
   126    52    54   ar
   127    54    55   ar
   128    77   112   ar
   129    80    88    1
   130    83    85   ar
   131    85    86   ar
   132    91    93   ar
   133    93    94   ar
   134   115   117   ar
   135   117   118   ar
   136   128   132    1
   137   129   132    1
   138   130   132    1
   139   131   132    1
   140   133   134    1
   141   135   133    1
   142   136   135    1
   143   137   135    1
   144   138   135    1
@<TRIPOS>SUBSTRUCTURE
     1 RES1        1 GROUP             0 ****  ****    0  
     2 RES2      128 GROUP             0 ****  ****    0  
     3 RES3      133 GROUP             0 ****  ****    0  
@<TRIPOS>CRYSIN
   18.7740   25.5700   15.4700   90.0000  117.8300   90.0000    15     1
