@<TRIPOS>MOLECULE
IRUSEU
   197   199     7     0     0
SMALL
USER_CHARGES
****
Generated from the CSD

@<TRIPOS>ATOM
     1 Fe1      4.5722   9.7120  -0.0311   Fe        1 RES1   2.0000
     2 N1       6.3830  10.1938   0.5549   N.ar      1 RES1   0.0000
     3 N2       5.2822   7.8941   0.2691   N.ar      1 RES1   0.0000
     4 N3       8.5220  13.0629   1.1819   N.am      1 RES1   0.0000
     5 H1       8.0275  13.6088   0.7375   H         1 RES1   0.0000
     6 N4       4.4791   4.3766  -0.1579   N.am      1 RES1   0.0000
     7 H2       3.8301   4.5343  -0.6992   H         1 RES1   0.0000
     8 N5       3.8690   9.6735   1.8224   N.ar      1 RES1   0.0000
     9 N6       2.7454   9.0863  -0.4229   N.ar      1 RES1   0.0000
    10 N7       4.7653  10.3179   5.2846   N.am      1 RES1   0.0000
    11 H3       5.4786  10.7495   5.0703   H         1 RES1   0.0000
    12 N8       0.5352   8.1680  -3.1487   N.am      1 RES1   0.0000
    13 H4       1.0462   8.4971  -3.7576   H         1 RES1   0.0000
    14 N9       4.0312  11.5672  -0.4240   N.ar      1 RES1   0.0000
    15 N10      5.1102   9.7780  -1.9217   N.ar      1 RES1   0.0000
    16 N11      2.6482  14.5566   1.1052   N.am      1 RES1   0.0000
    17 H5       2.3018  14.1625   1.7863   H         1 RES1   0.0000
    18 N12      6.5111   7.7463  -4.5809   N.am      1 RES1   0.0000
    19 H6       6.8883   7.1788  -4.0554   H         1 RES1   0.0000
    20 O1      10.4526  12.9801   2.3908   O.2       1 RES1   0.0000
    21 O2       9.5327  14.9133   1.7074   O.3       1 RES1   0.0000
    22 O3       5.4187   2.6997   1.0375   O.2       1 RES1   0.0000
    23 O4       3.8264   2.3292  -0.4917   O.3       1 RES1   0.0000
    24 O5       3.5981   9.6203   7.0777   O.2       1 RES1   0.0000
    25 O6       5.5186  10.7002   7.2807   O.3       1 RES1   0.0000
    26 O7      -1.4681   7.1039  -2.8870   O.2       1 RES1   0.0000
    27 O8      -0.5050   7.4212  -4.9185   O.3       1 RES1   0.0000
    28 O9       2.9883  16.6040   0.2301   O.2       1 RES1   0.0000
    29 O10      2.1579  16.3222   2.2735   O.3       1 RES1   0.0000
    30 O11      6.1985   8.1857  -6.7823   O.2       1 RES1   0.0000
    31 O12      7.0205   6.2309  -6.0537   O.3       1 RES1   0.0000
    32 C1       6.8982  11.4254   0.6225   C.ar      1 RES1   0.0000
    33 H9       6.3932  12.1308   0.2887   H         1 RES1   0.0000
    34 C2       8.1416  11.7072   1.1593   C.ar      1 RES1   0.0000
    35 C3       8.9008  10.6509   1.6352   C.ar      1 RES1   0.0000
    36 H10      9.7397  10.7968   2.0096   H         1 RES1   0.0000
    37 C4       8.3861   9.3799   1.5382   C.ar      1 RES1   0.0000
    38 H11      8.8897   8.6607   1.8427   H         1 RES1   0.0000
    39 C5       7.1438   9.1553   1.0037   C.ar      1 RES1   0.0000
    40 C6       6.5106   7.8547   0.8345   C.ar      1 RES1   0.0000
    41 C7       7.0874   6.6467   1.1526   C.ar      1 RES1   0.0000
    42 H12      7.9240   6.6270   1.5563   H         1 RES1   0.0000
    43 C8       6.4345   5.4585   0.8751   C.ar      1 RES1   0.0000
    44 H13      6.8152   4.6427   1.1097   H         1 RES1   0.0000
    45 C9       5.2134   5.4999   0.2481   C.ar      1 RES1   0.0000
    46 C10      4.6580   6.7374  -0.0113   C.ar      1 RES1   0.0000
    47 H14      3.8118   6.7709  -0.3970   H         1 RES1   0.0000
    48 C11      9.5801  13.5930   1.8269   C.2       1 RES1   0.0000
    49 C12     10.6189  15.7173   2.3344   C.3       1 RES1   0.0000
    50 H15     11.4760  15.2443   2.3119   H         1 RES1   0.0000
    51 C13     10.6803  16.9883   1.5653   C.3       1 RES1   0.0000
    52 H16      9.8104  17.3982   1.5540   H         1 RES1   0.0000
    53 H17     10.9595  16.8050   0.6676   H         1 RES1   0.0000
    54 H18     11.3075  17.5834   1.9826   H         1 RES1   0.0000
    55 C14     10.1383  15.8572   3.6584   C.3       1 RES1   0.0000
    56 H19      9.3844  16.4503   3.6652   H         1 RES1   0.0000
    57 H20     10.8339  16.2158   4.2155   H         1 RES1   0.0000
    58 H21      9.8724  14.9980   3.9945   H         1 RES1   0.0000
    59 C15      4.6487   3.0938   0.1850   C.2       1 RES1   0.0000
    60 C16      3.7226   0.8828  -0.1601   C.3       1 RES1   0.0000
    61 H22      3.8593   0.7271   0.7984   H         1 RES1   0.0000
    62 C17      4.7570   0.2581  -0.9450   C.3       1 RES1   0.0000
    63 H23      4.7298  -0.6917  -0.8120   H         1 RES1   0.0000
    64 H24      5.6135   0.5951  -0.6744   H         1 RES1   0.0000
    65 H25      4.6163   0.4552  -1.8743   H         1 RES1   0.0000
    66 C18      2.3963   0.4316  -0.5909   C.3       1 RES1   0.0000
    67 H26      2.2185   0.7606  -1.4751   H         1 RES1   0.0000
    68 H27      1.7328   0.7666   0.0158   H         1 RES1   0.0000
    69 H28      2.3719  -0.5281  -0.5954   H         1 RES1   0.0000
    70 C19      4.5121  10.0282   2.9479   C.ar      1 RES1   0.0000
    71 H29      5.3619  10.3987   2.8690   H         1 RES1   0.0000
    72 C20      3.9799   9.8706   4.2268   C.ar      1 RES1   0.0000
    73 C21      2.7171   9.3149   4.3373   C.ar      1 RES1   0.0000
    74 H30      2.3324   9.1848   5.1741   H         1 RES1   0.0000
    75 C22      2.0397   8.9543   3.1983   C.ar      1 RES1   0.0000
    76 H31      1.1874   8.5877   3.2569   H         1 RES1   0.0000
    77 C23      2.6350   9.1415   1.9465   C.ar      1 RES1   0.0000
    78 C24      1.9742   8.8183   0.6676   C.ar      1 RES1   0.0000
    79 C25      0.7141   8.3079   0.5346   C.ar      1 RES1   0.0000
    80 H32      0.2143   8.1227   1.2947   H         1 RES1   0.0000
    81 C26      0.1676   8.0596  -0.7105   C.ar      1 RES1   0.0000
    82 H33     -0.6888   7.7049  -0.7962   H         1 RES1   0.0000
    83 C27      0.9374   8.3552  -1.8247   C.ar      1 RES1   0.0000
    84 C28      2.2044   8.8636  -1.6285   C.ar      1 RES1   0.0000
    85 H34      2.7142   9.0646  -2.3795   H         1 RES1   0.0000
    86 C29      4.5455  10.1603   6.5905   C.2       1 RES1   0.0000
    87 C30      5.4436  10.6608   8.7468   C.3       1 RES1   0.0000
    88 H35      4.7112  10.0972   9.0693   H         1 RES1   0.0000
    89 C31      6.7436  10.2213   9.2407   C.3       1 RES1   0.0000
    90 H36      7.0275   9.4469   8.7490   H         1 RES1   0.0000
    91 H37      6.6730   9.9987  10.1723   H         1 RES1   0.0000
    92 H38      7.3847  10.9268   9.1280   H         1 RES1   0.0000
    93 C32      5.2689  12.0678   9.1144   C.3       1 RES1   0.0000
    94 H39      6.1247  12.4520   9.3197   H         1 RES1   0.0000
    95 H40      4.6967  12.1289   9.8813   H         1 RES1   0.0000
    96 H41      4.8740  12.5427   8.3791   H         1 RES1   0.0000
    97 C33     -0.5784   7.5177  -3.5749   C.2       1 RES1   0.0000
    98 C34     -1.5429   6.6231  -5.6026   C.3       1 RES1   0.0000
    99 H42     -2.4198   6.8280  -5.2169   H         1 RES1   0.0000
   100 C35     -1.4983   7.1019  -7.0326   C.3       1 RES1   0.0000
   101 H43     -1.6042   8.0557  -7.0529   H         1 RES1   0.0000
   102 H44     -2.2076   6.6901  -7.5311   H         1 RES1   0.0000
   103 H45     -0.6531   6.8655  -7.4228   H         1 RES1   0.0000
   104 C36     -1.2547   5.1747  -5.4290   C.3       1 RES1   0.0000
   105 H46     -0.3999   4.9698  -5.8146   H         1 RES1   0.0000
   106 H47     -1.9361   4.6584  -5.8665   H         1 RES1   0.0000
   107 H48     -1.2418   4.9599  -4.4929   H         1 RES1   0.0000
   108 C37      3.5098  12.4461   0.4579   C.ar      1 RES1   0.0000
   109 H49      3.3806  12.1742   1.3375   H         1 RES1   0.0000
   110 C38      3.1636  13.7290   0.1015   C.ar      1 RES1   0.0000
   111 C39      3.3277  14.1172  -1.2202   C.ar      1 RES1   0.0000
   112 H50      3.0737  14.9684  -1.4976   H         1 RES1   0.0000
   113 C40      3.8687  13.2304  -2.0999   C.ar      1 RES1   0.0000
   114 H51      3.9898  13.4826  -2.9885   H         1 RES1   0.0000
   115 C41      4.2358  11.9692  -1.7006   C.ar      1 RES1   0.0000
   116 C42      4.8393  10.9367  -2.5510   C.ar      1 RES1   0.0000
   117 C43      5.1341  11.0845  -3.8997   C.ar      1 RES1   0.0000
   118 H52      4.9492  11.8884  -4.3305   H         1 RES1   0.0000
   119 C44      5.6955  10.0598  -4.5944   C.ar      1 RES1   0.0000
   120 H53      5.8997  10.1662  -5.4944   H         1 RES1   0.0000
   121 C45      5.9532   8.8814  -3.9697   C.ar      1 RES1   0.0000
   122 C46      5.6628   8.7848  -2.6231   C.ar      1 RES1   0.0000
   123 H54      5.8621   7.9907  -2.1856   H         1 RES1   0.0000
   124 C47      2.6356  15.8808   1.1210   C.2       1 RES1   0.0000
   125 C48      2.2271  17.7765   2.5510   C.3       1 RES1   0.0000
   126 H55      2.2524  18.2810   1.7119   H         1 RES1   0.0000
   127 C49      1.0532  18.1115   3.2885   C.3       1 RES1   0.0000
   128 H56      0.2799  17.7726   2.8329   H         1 RES1   0.0000
   129 H57      0.9847  19.0653   3.3674   H         1 RES1   0.0000
   130 H58      1.1039  17.7213   4.1659   H         1 RES1   0.0000
   131 C50      3.5180  18.0307   3.3697   C.3       1 RES1   0.0000
   132 H59      3.6467  18.9766   3.4780   H         1 RES1   0.0000
   133 H60      4.2695  17.6563   2.9051   H         1 RES1   0.0000
   134 H61      3.4365  17.6189   4.2336   H         1 RES1   0.0000
   135 C51      6.5296   7.4409  -5.8868   C.2       1 RES1   0.0000
   136 C52      7.1717   5.6989  -7.4206   C.3       1 RES1   0.0000
   137 H62      7.4471   6.3630  -8.0882   H         1 RES1   0.0000
   138 C53      5.8690   5.0447  -7.7047   C.3       1 RES1   0.0000
   139 H63      5.2195   5.3324  -7.0619   H         1 RES1   0.0000
   140 H64      5.9720   4.0909  -7.6529   H         1 RES1   0.0000
   141 H65      5.5760   5.2870  -8.5866   H         1 RES1   0.0000
   142 C54      8.0296   4.4988  -7.3619   C.3       1 RES1   0.0000
   143 H66      7.6719   3.8820  -6.7191   H         1 RES1   0.0000
   144 H67      8.9179   4.7530  -7.0980   H         1 RES1   0.0000
   145 H68      8.0576   4.0830  -8.2258   H         1 RES1   0.0000
   146 B1      10.5455   6.1364   3.2073   B         2 RES2  -1.0000
   147 F1      10.5368   7.1650   2.3931   F         2 RES2   0.0000
   148 F2       9.3688   5.5511   3.1577   F         2 RES2   0.0000
   149 F3      10.7828   6.5068   4.4771   F         2 RES2   0.0000
   150 F4      11.5388   5.3304   2.8780   F         2 RES2   0.0000
   151 B2      -1.2602   7.3148   4.5358   B         3 RES3  -1.0000
   152 F5      -1.2287   7.9315   3.4035   F         3 RES3   0.0000
   153 F6      -0.1552   7.4901   5.2124   F         3 RES3   0.0000
   154 F7      -2.2737   7.6537   5.2463   F         3 RES3   0.0000
   155 F8      -1.4841   6.0181   4.3914   F         3 RES3   0.0000
   156 O13      7.0063  12.0855   4.5989   O.3       4 RES4   0.0000
   157 C55      5.2991  13.7979   3.7712   C.3       4 RES4   0.0000
   158 H69      5.2822  13.2068   3.0156   H         4 RES4   0.0000
   159 H70      5.3533  14.7064   3.4667   H         4 RES4   0.0000
   160 H71      4.4991  13.6817   4.2877   H         4 RES4   0.0000
   161 C56      6.5300  13.4767   4.6486   C.3       4 RES4   0.0000
   162 H72      7.2564  14.0580   4.3779   H         4 RES4   0.0000
   163 H73      6.3117  13.6915   5.5688   H         4 RES4   0.0000
   164 C57      8.2297  11.8569   5.3478   C.3       4 RES4   0.0000
   165 H74      8.1432  12.1564   6.2657   H         4 RES4   0.0000
   166 H75      8.9844  12.3062   4.9350   H         4 RES4   0.0000
   167 C58      8.3813  10.3159   5.2688   C.3       4 RES4   0.0000
   168 H76      7.5474   9.9258   4.9914   H         4 RES4   0.0000
   169 H77      8.6185   9.9731   6.1349   H         4 RES4   0.0000
   170 H78      9.0659  10.0913   4.6373   H         4 RES4   0.0000
   171 O14     -1.3772   4.8417   9.3242   O.3       5 RES5   0.0000
   172 C59      0.2021   4.4259   7.5920   C.3       5 RES5   0.0000
   173 H79      0.8957   5.0486   7.8243   H         5 RES5   0.0000
   174 H80      0.2435   4.2348   6.6537   H         5 RES5   0.0000
   175 H81      0.3222   3.6140   8.0904   H         5 RES5   0.0000
   176 C60     -1.0548   4.9855   7.9032   C.3       5 RES5   0.0000
   177 H82     -1.7408   4.5500   7.3732   H         5 RES5   0.0000
   178 H83     -1.0540   5.9275   7.6709   H         5 RES5   0.0000
   179 C61     -2.6419   5.4348   9.6760   C.3       5 RES5   0.0000
   180 H84     -3.3603   4.9323   9.2610   H         5 RES5   0.0000
   181 H85     -2.6763   6.3433   9.3377   H         5 RES5   0.0000
   182 C62     -2.8295   5.4467  11.1308   C.3       5 RES5   0.0000
   183 H86     -2.5883   4.5895  11.4917   H         5 RES5   0.0000
   184 H87     -3.7497   5.6319  11.3338   H         5 RES5   0.0000
   185 H88     -2.2729   6.1245  11.5210   H         5 RES5   0.0000
   186 O15      6.6175  14.6985  -0.1398   O.3       6 RES6   0.0000
   187 H7       7.0953  14.7556  -0.8052   H         6 RES6   0.0000
   188 C63      6.4201  16.1173   0.4872   C.3       6 RES6   0.0000
   189 H89      6.5239  16.0641   1.4390   H         6 RES6   0.0000
   190 H90      5.5417  16.4405   0.2774   H         6 RES6   0.0000
   191 H91      7.0776  16.7203   0.1286   H         6 RES6   0.0000
   192 O16     -1.2916   0.8158   6.2342   O.3       7 RES7   0.0000
   193 H8      -0.5126   0.6385   6.4146   H         7 RES7   0.0000
   194 C64     -1.3810   1.3814   4.7681   C.3       7 RES7   0.0000
   195 H92     -2.2587   1.2237   4.4162   H         7 RES7   0.0000
   196 H93     -0.7317   0.9400   4.2155   H         7 RES7   0.0000
   197 H94     -1.2030   2.3253   4.7771   H         7 RES7   0.0000
@<TRIPOS>BOND
     1     1     2    1
     2     2    32   ar
     3     3     1    1
     4     4     5    1
     5     6     7    1
     6     8     1    1
     7     9     1    1
     8    10    11    1
     9    12    13    1
    10    14     1    1
    11    15     1    1
    12    16    17    1
    13    18    19    1
    14    20    48    2
    15    21    48    1
    16    22    59    2
    17    23    59    1
    18    24    86    2
    19    25    86    1
    20    26    97    2
    21    27    97    1
    22    28   124    2
    23    29   124    1
    24    30   135    2
    25    31   135    1
    26    32    33    1
    27    34     4    1
    28    35    34   ar
    29    36    35    1
    30    37    35   ar
    31    38    37    1
    32    39     2   ar
    33    40     3   ar
    34    41    40   ar
    35    42    41    1
    36    43    41   ar
    37    44    43    1
    38    45     6    1
    39    46     3   ar
    40    47    46    1
    41    48     4   am
    42    49    21    1
    43    50    49    1
    44    51    49    1
    45    52    51    1
    46    53    51    1
    47    54    51    1
    48    55    49    1
    49    56    55    1
    50    57    55    1
    51    58    55    1
    52    59     6   am
    53    60    23    1
    54    61    60    1
    55    62    60    1
    56    63    62    1
    57    64    62    1
    58    65    62    1
    59    66    60    1
    60    67    66    1
    61    68    66    1
    62    69    66    1
    63    70     8   ar
    64    71    70    1
    65    72    10    1
    66    73    72   ar
    67    74    73    1
    68    75    73   ar
    69    76    75    1
    70    77     8   ar
    71    78     9   ar
    72    79    78   ar
    73    80    79    1
    74    81    79   ar
    75    82    81    1
    76    83    12    1
    77    84     9   ar
    78    85    84    1
    79    86    10   am
    80    87    25    1
    81    88    87    1
    82    89    87    1
    83    90    89    1
    84    91    89    1
    85    92    89    1
    86    93    87    1
    87    94    93    1
    88    95    93    1
    89    96    93    1
    90    97    12   am
    91    98    27    1
    92    99    98    1
    93   100    98    1
    94   101   100    1
    95   102   100    1
    96   103   100    1
    97   104    98    1
    98   105   104    1
    99   106   104    1
   100   107   104    1
   101   108    14   ar
   102   109   108    1
   103   110    16    1
   104   111   110   ar
   105   112   111    1
   106   113   111   ar
   107   114   113    1
   108   115    14   ar
   109   116    15   ar
   110   117   116   ar
   111   118   117    1
   112   119   117   ar
   113   120   119    1
   114   121    18    1
   115   122    15   ar
   116   123   122    1
   117   124    16   am
   118   125    29    1
   119   126   125    1
   120   127   125    1
   121   128   127    1
   122   129   127    1
   123   130   127    1
   124   131   125    1
   125   132   131    1
   126   133   131    1
   127   134   131    1
   128   135    18   am
   129   136    31    1
   130   137   136    1
   131   138   136    1
   132   139   138    1
   133   140   138    1
   134   141   138    1
   135   142   136    1
   136   143   142    1
   137   144   142    1
   138   145   142    1
   139    32    34   ar
   140    37    39   ar
   141    39    40    1
   142    43    45   ar
   143    45    46   ar
   144    70    72   ar
   145    75    77   ar
   146    77    78    1
   147    81    83   ar
   148    83    84   ar
   149   108   110   ar
   150   113   115   ar
   151   115   116    1
   152   119   121   ar
   153   121   122   ar
   154   146   147    1
   155   148   146    1
   156   149   146    1
   157   150   146    1
   158   151   152    1
   159   153   151    1
   160   154   151    1
   161   155   151    1
   162   156   161    1
   163   157   158    1
   164   159   157    1
   165   160   157    1
   166   161   157    1
   167   162   161    1
   168   163   161    1
   169   164   156    1
   170   165   164    1
   171   166   164    1
   172   167   164    1
   173   168   167    1
   174   169   167    1
   175   170   167    1
   176   171   176    1
   177   172   173    1
   178   174   172    1
   179   175   172    1
   180   176   172    1
   181   177   176    1
   182   178   176    1
   183   179   171    1
   184   180   179    1
   185   181   179    1
   186   182   179    1
   187   183   182    1
   188   184   182    1
   189   185   182    1
   190   186   187    1
   191   188   186    1
   192   189   188    1
   193   190   188    1
   194   191   188    1
   195   192   193    1
   196   194   192    1
   197   195   194    1
   198   196   194    1
   199   197   194    1
@<TRIPOS>SUBSTRUCTURE
     1 RES1        1 GROUP             0 ****  ****    0  
     2 RES2      146 GROUP             0 ****  ****    0  
     3 RES3      151 GROUP             0 ****  ****    0  
     4 RES4      156 GROUP             0 ****  ****    0  
     5 RES5      171 GROUP             0 ****  ****    0  
     6 RES6      186 GROUP             0 ****  ****    0  
     7 RES7      192 GROUP             0 ****  ****    0  
@<TRIPOS>CRYSIN
   18.4694   19.7057   23.7480   90.0000  108.2390   90.0000    14     1
