@<TRIPOS>MOLECULE
IRUTEV
   152   156     5     0     0
SMALL
USER_CHARGES
****
Generated from the CSD

@<TRIPOS>ATOM
     1 Fe1      1.1522   9.1501   4.6816   Fe        1 RES1   2.0000
     2 C1       4.5254   9.4416  -1.3076   C.3       1 RES1   0.0000
     3 H1       3.6770   9.9304  -1.3472   H         1 RES1   0.0000
     4 H2       5.0428   9.6185  -2.1205   H         1 RES1   0.0000
     5 H3       5.0366   9.7339  -0.5244   H         1 RES1   0.0000
     6 C2       4.2560   7.9949  -1.2054   C.3       1 RES1   0.0000
     7 H4       3.7060   7.6928  -1.9705   H         1 RES1   0.0000
     8 H5       5.1046   7.4865  -1.2054   H         1 RES1   0.0000
     9 O1       3.5419   7.7830   0.0404   O.3       1 RES1   0.0000
    10 C3       3.3741   6.5296   0.4304   C.2       1 RES1   0.0000
    11 O2       3.6766   5.5689  -0.2193   O.2       1 RES1   0.0000
    12 C4       2.6931   6.4480   1.7627   C.ar      1 RES1   0.0000
    13 C5       2.3064   5.2231   2.2755   C.ar      1 RES1   0.0000
    14 H6       2.4843   4.4212   1.7990   H         1 RES1   0.0000
    15 C6       1.6542   5.1904   3.4941   C.ar      1 RES1   0.0000
    16 H7       1.3846   4.3622   3.8700   H         1 RES1   0.0000
    17 C7       1.3949   6.3790   4.1619   C.ar      1 RES1   0.0000
    18 N1       1.7977   7.5843   3.6708   N.ar      1 RES1   0.0000
    19 C8       2.4493   7.5992   2.4965   C.ar      1 RES1   0.0000
    20 H8       2.7563   8.4321   2.1551   H         1 RES1   0.0000
    21 C9       0.6735   6.4694   5.4414   C.ar      1 RES1   0.0000
    22 C10      0.1717   5.3624   6.1027   C.ar      1 RES1   0.0000
    23 H9       0.2921   4.4899   5.7448   H         1 RES1   0.0000
    24 C11     -0.5078   5.5459   7.2899   C.ar      1 RES1   0.0000
    25 H10     -0.8727   4.8019   7.7549   H         1 RES1   0.0000
    26 C12     -0.6476   6.8273   7.7928   C.ar      1 RES1   0.0000
    27 C13     -0.1208   7.8967   7.0821   C.ar      1 RES1   0.0000
    28 H11     -0.2083   8.7735   7.4383   H         1 RES1   0.0000
    29 N2       0.5099   7.7378   5.9078   N.ar      1 RES1   0.0000
    30 C14     -1.3756   6.9759   9.0987   C.2       1 RES1   0.0000
    31 O3      -1.8037   6.0359   9.6973   O.2       1 RES1   0.0000
    32 O4      -1.4323   8.2231   9.5189   O.3       1 RES1   0.0000
    33 C15     -2.1394   8.4496  10.7856   C.3       1 RES1   0.0000
    34 H12     -1.7745   9.2574  11.2258   H         1 RES1   0.0000
    35 H13     -1.9892   7.6781  11.3891   H         1 RES1   0.0000
    36 C16     -3.6063   8.6262  10.5597   C.3       1 RES1   0.0000
    37 H14     -3.7506   9.3213   9.8853   H         1 RES1   0.0000
    38 H15     -4.0364   8.8890  11.3990   H         1 RES1   0.0000
    39 H16     -3.9922   7.7812  10.2464   H         1 RES1   0.0000
    40 C17      7.2012   5.4184   8.4903   C.3       1 RES1   0.0000
    41 H17      6.6391   5.5314   9.2851   H         1 RES1   0.0000
    42 H18      7.9562   4.8313   8.7046   H         1 RES1   0.0000
    43 H19      6.6714   5.0180   7.7697   H         1 RES1   0.0000
    44 C18      7.7164   6.7521   8.0484   C.3       1 RES1   0.0000
    45 H20      8.3701   7.0861   8.7129   H         1 RES1   0.0000
    46 H21      8.1844   6.6514   7.1827   H         1 RES1   0.0000
    47 O5       6.6354   7.7314   7.9000   O.3       1 RES1   0.0000
    48 C19      5.9110   7.6619   6.7886   C.2       1 RES1   0.0000
    49 O6       6.0808   6.8614   5.9036   O.2       1 RES1   0.0000
    50 C20      4.8308   8.6937   6.7754   C.ar      1 RES1   0.0000
    51 C21      4.7644   9.7285   7.6906   C.ar      1 RES1   0.0000
    52 H22      5.4427   9.8371   8.3468   H         1 RES1   0.0000
    53 C22      3.6979  10.6029   7.6378   C.ar      1 RES1   0.0000
    54 H23      3.6464  11.3329   8.2446   H         1 RES1   0.0000
    55 C23      2.7006  10.4099   6.6897   C.ar      1 RES1   0.0000
    56 N3       2.7596   9.3785   5.7922   N.ar      1 RES1   0.0000
    57 C24      3.8204   8.5621   5.8421   C.ar      1 RES1   0.0000
    58 H24      3.8817   7.8598   5.2056   H         1 RES1   0.0000
    59 C25      1.4882  11.2234   6.5792   C.ar      1 RES1   0.0000
    60 C26      1.2754  12.4050   7.2618   C.ar      1 RES1   0.0000
    61 H25      1.9435  12.7501   7.8423   H         1 RES1   0.0000
    62 C27      0.0857  13.0810   7.0920   C.ar      1 RES1   0.0000
    63 H26     -0.0742  13.8996   7.5488   H         1 RES1   0.0000
    64 C28     -0.8693  12.5475   6.2461   C.ar      1 RES1   0.0000
    65 C29     -0.6011  11.3616   5.5799   C.ar      1 RES1   0.0000
    66 H27     -1.2583  11.0062   4.9929   H         1 RES1   0.0000
    67 N4       0.5466  10.7007   5.7335   N.ar      1 RES1   0.0000
    68 C30     -2.1636  13.2701   6.0433   C.2       1 RES1   0.0000
    69 O7      -2.4769  14.2779   6.6422   O.2       1 RES1   0.0000
    70 O8      -2.9222  12.6573   5.1364   O.3       1 RES1   0.0000
    71 C31     -4.1772  13.3030   4.7951   C.3       1 RES1   0.0000
    72 H28     -4.0151  14.2263   4.4752   H         1 RES1   0.0000
    73 H29     -4.7718  13.3421   5.5865   H         1 RES1   0.0000
    74 C32     -4.7998  12.4775   3.7167   C.3       1 RES1   0.0000
    75 H30     -4.2258  12.4922   2.9219   H         1 RES1   0.0000
    76 H31     -5.6791  12.8435   3.4908   H         1 RES1   0.0000
    77 H32     -4.9015  11.5540   4.0283   H         1 RES1   0.0000
    78 C33      6.3422  14.0053  -0.6942   C.3       1 RES1   0.0000
    79 H33      6.3413  13.1701  -1.2087   H         1 RES1   0.0000
    80 H34      7.2059  14.4547  -0.8047   H         1 RES1   0.0000
    81 H35      5.6244  14.5898  -1.0157   H         1 RES1   0.0000
    82 C34      6.1240  13.6958   0.7602   C.3       1 RES1   0.0000
    83 H36      6.8536  13.1210   1.1015   H         1 RES1   0.0000
    84 H37      6.1073  14.5333   1.2895   H         1 RES1   0.0000
    85 O9       4.8473  13.0063   0.8687   O.3       1 RES1   0.0000
    86 C35      4.5961  12.4097   2.0364   C.2       1 RES1   0.0000
    87 O10      5.3550  12.3871   2.9631   O.2       1 RES1   0.0000
    88 C36      3.2605  11.7394   2.0265   C.ar      1 RES1   0.0000
    89 C37      2.4120  11.7478   0.9382   C.ar      1 RES1   0.0000
    90 H38      2.6612  12.1999   0.1402   H         1 RES1   0.0000
    91 C38     -3.8340   7.4315   3.2896   C.2       1 RES1   0.0000
    92 C39      1.2021  11.0954   1.0141   C.ar      1 RES1   0.0000
    93 H39      0.6021  11.1069   0.2770   H         1 RES1   0.0000
    94 C40      0.8687  10.4204   2.1832   C.ar      1 RES1   0.0000
    95 N5       1.7175  10.3679   3.2500   N.ar      1 RES1   0.0000
    96 C41      2.8728  11.0382   3.1676   C.ar      1 RES1   0.0000
    97 H40      3.4552  11.0357   3.9195   H         1 RES1   0.0000
    98 C42     -0.3883   9.6958   2.3794   C.ar      1 RES1   0.0000
    99 C43     -1.4112   9.6507   1.4527   C.ar      1 RES1   0.0000
   100 H41     -1.3313  10.1097   0.6266   H         1 RES1   0.0000
   101 C44     -2.5552   8.9283   1.7429   C.ar      1 RES1   0.0000
   102 H42     -3.2687   8.8865   1.1163   H         1 RES1   0.0000
   103 C45     -2.6520   8.2678   2.9549   C.ar      1 RES1   0.0000
   104 C46     -1.5955   8.3752   3.8535   C.ar      1 RES1   0.0000
   105 H43     -1.6695   7.9458   4.6978   H         1 RES1   0.0000
   106 N6      -0.4767   9.0577   3.5793   N.ar      1 RES1   0.0000
   107 O11     -4.8661   7.4727   2.6739   O.2       1 RES1   0.0000
   108 O12     -3.5918   6.6249   4.3156   O.3       1 RES1   0.0000
   109 C47     -4.7278   5.8482   4.7984   C.3       1 RES1   0.0000
   110 H44     -5.0660   5.2489   4.0877   H         1 RES1   0.0000
   111 H45     -5.4612   6.4475   5.0836   H         1 RES1   0.0000
   112 C48     -4.2174   5.0401   5.9724   C.3       1 RES1   0.0000
   113 H46     -3.5094   4.4359   5.6690   H         1 RES1   0.0000
   114 H47     -4.9529   4.5194   6.3549   H         1 RES1   0.0000
   115 H48     -3.8574   5.6468   6.6534   H         1 RES1   0.0000
   116 Cl1     -0.4172  13.8439   2.6907   Cl        2 RES2   0.0000
   117 O13      0.6050  13.3028   3.5384   O.3       2 RES2  -1.0000
   118 O14     -1.1791  12.7816   2.0930   O.2       2 RES2   0.0000
   119 O15     -1.3033  14.6790   3.4751   O.2       2 RES2   0.0000
   120 O16      0.1916  14.6485   1.6575   O.2       2 RES2   0.0000
   121 Cl2     -4.1443   9.4701   6.6529   Cl        3 RES3   0.0000
   122 O17     -2.7493   9.6371   6.8166   O.3       3 RES3  -1.0000
   123 O18     -4.5621   8.2946   7.2602   O.2       3 RES3   0.0000
   124 O19     -4.7819  10.6231   7.2487   O.2       3 RES3   0.0000
   125 O20     -4.4727   9.4124   5.2683   O.2       3 RES3   0.0000
   126 N7      -9.5069   8.8178   2.7026   N.1       4 RES4   0.0000
   127 C49     -8.5745   9.0707   3.2616   C.1       4 RES4   0.0000
   128 C50     -7.3752   9.3950   3.9838   C.3       4 RES4   0.0000
   129 H49     -7.4685   9.1100   4.9171   H         4 RES4   0.0000
   130 H50     -7.2235  10.3627   3.9525   H         4 RES4   0.0000
   131 H51     -6.6138   8.9307   3.5765   H         4 RES4   0.0000
   132 C51    -10.0013   7.7837  11.1335   C.3       5 RES5   0.0000
   133 H52    -10.7342   8.1841  11.6480   H         5 RES5   0.0000
   134 H53     -9.8547   6.8626  11.4369   H         5 RES5   0.0000
   135 H54    -10.2331   7.7788  10.1821   H         5 RES5   0.0000
   136 C52     -8.7638   8.5746  11.3380   C.3       5 RES5   0.0000
   137 H55     -8.0130   8.1374  10.8416   H         5 RES5   0.0000
   138 C53     -8.4164   8.6385  12.7709   C.3       5 RES5   0.0000
   139 H56     -7.5484   9.0781  12.8797   H         5 RES5   0.0000
   140 H57     -8.3705   7.7297  13.1369   H         5 RES5   0.0000
   141 H58     -9.1032   9.1469  13.2507   H         5 RES5   0.0000
   142 O21     -9.0149   9.9113  10.7477   O.3       5 RES5   0.0000
   143 C54     -7.9201  10.9080  10.7460   C.3       5 RES5   0.0000
   144 H59     -7.6960  11.0971  11.7024   H         5 RES5   0.0000
   145 C55     -6.7000  10.4610  10.1112   C.3       5 RES5   0.0000
   146 H60     -6.8630  10.3185   9.1565   H         5 RES5   0.0000
   147 H61     -6.4073   9.6209  10.5234   H         5 RES5   0.0000
   148 H62     -6.0040  11.1413  10.2266   H         5 RES5   0.0000
   149 C56     -8.5367  12.1115  10.2101   C.3       5 RES5   0.0000
   150 H63     -8.6599  12.0133   9.2438   H         5 RES5   0.0000
   151 H64     -7.9579  12.8828  10.3898   H         5 RES5   0.0000
   152 H65     -9.4072  12.2515  10.6388   H         5 RES5   0.0000
@<TRIPOS>BOND
     1     1    18    1
     2     2     3    1
     3     4     2    1
     4     5     2    1
     5     6     2    1
     6     7     6    1
     7     8     6    1
     8     9     6    1
     9    10     9    1
    10    11    10    2
    11    12    10    1
    12    13    12   ar
    13    14    13    1
    14    15    13   ar
    15    16    15    1
    16    17    15   ar
    17    18    17   ar
    18    19    12   ar
    19    20    19    1
    20    21    17    1
    21    22    21   ar
    22    23    22    1
    23    24    22   ar
    24    25    24    1
    25    26    24   ar
    26    27    26   ar
    27    28    27    1
    28    29     1    1
    29    30    26    1
    30    31    30    2
    31    32    30    1
    32    33    32    1
    33    34    33    1
    34    35    33    1
    35    36    33    1
    36    37    36    1
    37    38    36    1
    38    39    36    1
    39    40    41    1
    40    42    40    1
    41    43    40    1
    42    44    40    1
    43    45    44    1
    44    46    44    1
    45    47    44    1
    46    48    47    1
    47    49    48    2
    48    50    48    1
    49    51    50   ar
    50    52    51    1
    51    53    51   ar
    52    54    53    1
    53    55    53   ar
    54    56     1    1
    55    57    50   ar
    56    58    57    1
    57    59    55    1
    58    60    59   ar
    59    61    60    1
    60    62    60   ar
    61    63    62    1
    62    64    62   ar
    63    65    64   ar
    64    66    65    1
    65    67     1    1
    66    68    64    1
    67    69    68    2
    68    70    68    1
    69    71    70    1
    70    72    71    1
    71    73    71    1
    72    74    71    1
    73    75    74    1
    74    76    74    1
    75    77    74    1
    76    78    79    1
    77    80    78    1
    78    81    78    1
    79    82    78    1
    80    83    82    1
    81    84    82    1
    82    85    82    1
    83    86    85    1
    84    87    86    2
    85    88    86    1
    86    89    88   ar
    87    90    89    1
    88    91   103    1
    89    92    89   ar
    90    93    92    1
    91    94    92   ar
    92    95     1    1
    93    96    88   ar
    94    97    96    1
    95    98    94    1
    96    99    98   ar
    97   100    99    1
    98   101    99   ar
    99   102   101    1
   100   103   101   ar
   101   104   103   ar
   102   105   104    1
   103   106     1    1
   104   107    91    2
   105   108    91    1
   106   109   108    1
   107   110   109    1
   108   111   109    1
   109   112   109    1
   110   113   112    1
   111   114   112    1
   112   115   112    1
   113    18    19   ar
   114    21    29   ar
   115    27    29   ar
   116    55    56   ar
   117    56    57   ar
   118    59    67   ar
   119    65    67   ar
   120    94    95   ar
   121    95    96   ar
   122    98   106   ar
   123   104   106   ar
   124   116   117    1
   125   118   116    2
   126   119   116    2
   127   120   116    2
   128   121   122    1
   129   123   121    2
   130   124   121    2
   131   125   121    2
   132   126   127    3
   133   127   128    1
   134   128   129    1
   135   130   128    1
   136   131   128    1
   137   132   133    1
   138   134   132    1
   139   135   132    1
   140   136   132    1
   141   137   136    1
   142   138   136    1
   143   139   138    1
   144   140   138    1
   145   141   138    1
   146   142   136    1
   147   143   142    1
   148   144   143    1
   149   145   143    1
   150   146   145    1
   151   147   145    1
   152   148   145    1
   153   149   143    1
   154   150   149    1
   155   151   149    1
   156   152   149    1
@<TRIPOS>SUBSTRUCTURE
     1 RES1        1 GROUP             0 ****  ****    0  
     2 RES2      116 GROUP             0 ****  ****    0  
     3 RES3      121 GROUP             0 ****  ****    0  
     4 RES4      126 GROUP             0 ****  ****    0  
     5 RES5      132 GROUP             0 ****  ****    0  
@<TRIPOS>CRYSIN
   14.9147   24.5620   16.5450   90.0000   94.7070   90.0000    14     1
