@<TRIPOS>MOLECULE
ITEXOU
   126   134     2     0     0
SMALL
USER_CHARGES
****
Generated from the CSD

@<TRIPOS>ATOM
     1 Fe1      0.8613   1.0429  10.3770   Fe        1 RES1   0.0000
     2 S1       2.5933   1.6464   8.9328   S.3       1 RES1   0.0000
     3 S2       2.1519   0.3299  12.1411   S.3       1 RES1   0.0000
     4 S3      -0.9428   0.2146  11.5012   S.3       1 RES1  -1.0000
     5 Si1      3.5664   3.3823  11.4510   Si        1 RES1   0.0000
     6 Si2      2.0426   2.9846   5.9107   Si        1 RES1   0.0000
     7 Si3      3.9411  -2.3606  12.4218   Si        1 RES1   0.0000
     8 Si4     -3.5106   0.1351  13.6938   Si        1 RES1   0.0000
     9 O1       2.1234   3.1057  12.2048   O.3       1 RES1   0.0000
    10 O2       0.6410  -1.2472   8.5100   O.2       1 RES1   0.0000
    11 O3      -0.6822   3.2277   9.2583   O.2       1 RES1   0.0000
    12 C1       4.3827   4.6262  12.5577   C.3       1 RES1   0.0000
    13 C2       2.8712   3.3697   8.6865   C.ar      1 RES1   0.0000
    14 C3       3.3596   4.1477   9.7778   C.ar      1 RES1   0.0000
    15 C4       3.7116   5.4860   9.5297   C.ar      1 RES1   0.0000
    16 C5       3.5686   6.0478   8.2774   C.ar      1 RES1   0.0000
    17 C6       3.0800   5.2822   7.2287   C.ar      1 RES1   0.0000
    18 C7       2.7036   3.9454   7.4032   C.ar      1 RES1   0.0000
    19 C8       3.2274   1.6872   5.3115   C.3       1 RES1   0.0000
    20 C9       0.3816   2.2475   6.1780   C.3       1 RES1   0.0000
    21 C10      1.8482   4.2171   4.5148   C.3       1 RES1   0.0000
    22 C11      3.9153   0.5372  11.8288   C.ar      1 RES1   0.0000
    23 C12      4.4961   1.7705  11.5109   C.ar      1 RES1   0.0000
    24 C13      5.8842   1.7906  11.2705   C.ar      1 RES1   0.0000
    25 C14      6.6291   0.6159  11.3073   C.ar      1 RES1   0.0000
    26 C15      6.0071  -0.5897  11.6252   C.ar      1 RES1   0.0000
    27 C16      4.6465  -0.6761  11.9044   C.ar      1 RES1   0.0000
    28 C17      2.4420  -2.8726  11.4236   C.3       1 RES1   0.0000
    29 C18      3.5013  -2.3710  14.2228   C.3       1 RES1   0.0000
    30 C19      5.2790  -3.6228  12.1525   C.3       1 RES1   0.0000
    31 C20     -0.9132   1.2164  12.9395   C.ar      1 RES1   0.0000
    32 C21      0.2065   2.0437  13.0966   C.ar      1 RES1   0.0000
    33 C22      0.2729   2.9051  14.1957   C.ar      1 RES1   0.0000
    34 C23     -0.7622   2.9560  15.0971   C.ar      1 RES1   0.0000
    35 C24     -1.8698   2.1333  14.9323   C.ar      1 RES1   0.0000
    36 C25     -1.9902   1.2272  13.8642   C.ar      1 RES1   0.0000
    37 C26     -3.0438  -1.6609  13.8002   C.3       1 RES1   0.0000
    38 C27     -4.4315   0.4152  12.1002   C.3       1 RES1   0.0000
    39 C28     -4.6570   0.5001  15.1281   C.3       1 RES1   0.0000
    40 C29      1.2788   1.9851  12.0691   C.2       1 RES1   0.0000
    41 C30      0.7013  -0.3427   9.2099   C.1       1 RES1   0.0000
    42 C31     -0.0981   2.3247   9.6848   C.1       1 RES1   0.0000
    43 H1       4.4930   4.2480  13.4436   H         1 RES1   0.0000
    44 H2       5.2526   4.8577  12.1952   H         1 RES1   0.0000
    45 H3       3.8325   5.4227  12.6100   H         1 RES1   0.0000
    46 H4       4.0529   6.0262  10.2605   H         1 RES1   0.0000
    47 H5       3.8249   6.9709   8.1301   H         1 RES1   0.0000
    48 H6       2.9775   5.6882   6.3525   H         1 RES1   0.0000
    49 H7       3.3483   1.0250   6.0094   H         1 RES1   0.0000
    50 H8       2.8688   1.2580   4.5187   H         1 RES1   0.0000
    51 H9       4.0810   2.0947   5.1002   H         1 RES1   0.0000
    52 H10     -0.2484   2.9452   6.4184   H         1 RES1   0.0000
    53 H11      0.0849   1.8091   5.3639   H         1 RES1   0.0000
    54 H12      0.4320   1.5961   6.8953   H         1 RES1   0.0000
    55 H13      2.7028   4.6339   4.3326   H         1 RES1   0.0000
    56 H14      1.5303   3.7664   3.7181   H         1 RES1   0.0000
    57 H15      1.2081   4.8963   4.7784   H         1 RES1   0.0000
    58 H16      6.3195   2.6334  11.0669   H         1 RES1   0.0000
    59 H17      7.5812   0.6421  11.1193   H         1 RES1   0.0000
    60 H18      6.5371  -1.4031  11.6349   H         1 RES1   0.0000
    61 H19      1.7365  -2.2197  11.5496   H         1 RES1   0.0000
    62 H20      2.6767  -2.9159  10.4835   H         1 RES1   0.0000
    63 H21      2.1345  -3.7432  11.7202   H         1 RES1   0.0000
    64 H22      3.1797  -3.2508  14.4748   H         1 RES1   0.0000
    65 H23      4.2887  -2.1518  14.7462   H         1 RES1   0.0000
    66 H24      2.8087  -1.7134  14.3915   H         1 RES1   0.0000
    67 H25      4.9523  -4.4996  12.4084   H         1 RES1   0.0000
    68 H26      5.5279  -3.6305  11.2143   H         1 RES1   0.0000
    69 H27      6.0541  -3.3975  12.6895   H         1 RES1   0.0000
    70 H28      1.0518   3.4700  14.3159   H         1 RES1   0.0000
    71 H29     -0.7176   3.5580  15.8570   H         1 RES1   0.0000
    72 H30     -2.5991   2.1888  15.5682   H         1 RES1   0.0000
    73 H31     -3.8460  -2.2043  13.7401   H         1 RES1   0.0000
    74 H32     -2.4473  -1.8847  13.0694   H         1 RES1   0.0000
    75 H33     -2.6008  -1.8323  14.6454   H         1 RES1   0.0000
    76 H34     -4.6765   1.3522  12.0362   H         1 RES1   0.0000
    77 H35     -3.8638   0.1775  11.3500   H         1 RES1   0.0000
    78 H36     -5.2327  -0.1297  12.0847   H         1 RES1   0.0000
    79 H37     -4.1994   0.3195  15.9636   H         1 RES1   0.0000
    80 H38     -4.9218   1.4325  15.0990   H         1 RES1   0.0000
    81 H39     -5.4466  -0.0617  15.0641   H         1 RES1   0.0000
    82 P1      -0.4011   8.5662   9.2990   P.3       2 RES2   1.0000
    83 C32     -0.6625   7.6069  10.7839   C.ar      2 RES2   0.0000
    84 C33     -0.1134   6.3195  10.8770   C.ar      2 RES2   0.0000
    85 C34     -0.2845   5.6094  12.0439   C.ar      2 RES2   0.0000
    86 C35     -0.9850   6.1404  13.1101   C.ar      2 RES2   0.0000
    87 C36     -1.5230   7.3985  13.0229   C.ar      2 RES2   0.0000
    88 C37     -1.3753   8.1471  11.8637   C.ar      2 RES2   0.0000
    89 C38     -1.4450  10.0164   9.2874   C.ar      2 RES2   0.0000
    90 C39     -1.1008  11.1016  10.0996   C.ar      2 RES2   0.0000
    91 C40     -1.9016  12.2145  10.1306   C.ar      2 RES2   0.0000
    92 C41     -3.0510  12.2608   9.4037   C.ar      2 RES2   0.0000
    93 C42     -3.3948  11.2065   8.5798   C.ar      2 RES2   0.0000
    94 C43     -2.6026  10.0843   8.5256   C.ar      2 RES2   0.0000
    95 C44     -0.7882   7.5173   7.8858   C.ar      2 RES2   0.0000
    96 C45     -1.7816   6.5649   8.0215   C.ar      2 RES2   0.0000
    97 C46     -2.1724   5.8333   6.8662   C.ar      2 RES2   0.0000
    98 C47     -1.6068   6.0756   5.6740   C.ar      2 RES2   0.0000
    99 C48     -0.5935   7.0079   5.5403   C.ar      2 RES2   0.0000
   100 C49     -0.1879   7.7257   6.6433   C.ar      2 RES2   0.0000
   101 C50      1.3099   9.1474   9.2777   C.ar      2 RES2   0.0000
   102 C51      1.6779  10.1708   8.3782   C.ar      2 RES2   0.0000
   103 C52      2.9888  10.5968   8.3763   C.ar      2 RES2   0.0000
   104 C53      3.9286  10.0504   9.2137   C.ar      2 RES2   0.0000
   105 C54      3.5742   9.0872  10.0957   C.ar      2 RES2   0.0000
   106 C55      2.2579   8.6364  10.1500   C.ar      2 RES2   0.0000
   107 H40      0.3664   5.9367  10.1268   H         2 RES2   0.0000
   108 H41      0.1152   4.7296  12.1254   H         2 RES2   0.0000
   109 H42     -1.1153   5.6125  13.9146   H         2 RES2   0.0000
   110 H43     -2.0117   7.7689  13.7770   H         2 RES2   0.0000
   111 H44     -1.7519   9.0378  11.8016   H         2 RES2   0.0000
   112 H45     -0.2899  11.0661  10.6308   H         2 RES2   0.0000
   113 H46     -1.6482  12.9801  10.6715   H         2 RES2   0.0000
   114 H47     -3.6394  13.0280   9.4793   H         2 RES2   0.0000
   115 H48     -4.1946  11.2667   8.0332   H         2 RES2   0.0000
   116 H49     -2.8450   9.3403   7.9537   H         2 RES2   0.0000
   117 H50     -2.1946   6.3982   8.8842   H         2 RES2   0.0000
   118 H51     -2.8651   5.1572   6.9457   H         2 RES2   0.0000
   119 H52     -1.9134   5.5909   4.8928   H         2 RES2   0.0000
   120 H53     -0.1749   7.1546   4.6776   H         2 RES2   0.0000
   121 H54      0.5359   8.3663   6.5657   H         2 RES2   0.0000
   122 H55      1.0180  10.5675   7.7909   H         2 RES2   0.0000
   123 H56      3.2627  11.2945   7.7579   H         2 RES2   0.0000
   124 H57      4.8495  10.3591   9.1769   H         2 RES2   0.0000
   125 H58      4.2375   8.7105  10.6947   H         2 RES2   0.0000
   126 H59      1.9931   7.9634  10.7956   H         2 RES2   0.0000
@<TRIPOS>BOND
     1     1     2    1
     2     2    13    1
     3     3     1    1
     4     4     1    1
     5     5     9    1
     6     6    18    1
     7     7    27    1
     8     8    36    1
     9     9    40    1
    10    10    41    3
    11    11    42    3
    12    12     5    1
    13    13    14   ar
    14    14     5    1
    15    15    14   ar
    16    16    15   ar
    17    17    16   ar
    18    18    13   ar
    19    19     6    1
    20    20     6    1
    21    21     6    1
    22    22     3    1
    23    23     5    1
    24    24    23   ar
    25    25    24   ar
    26    26    25   ar
    27    27    22   ar
    28    28     7    1
    29    29     7    1
    30    30     7    1
    31    31     4    1
    32    32    31   ar
    33    33    32   ar
    34    34    33   ar
    35    35    34   ar
    36    36    31   ar
    37    37     8    1
    38    38     8    1
    39    39     8    1
    40    40     1    2
    41    41     1    1
    42    42     1    1
    43    43    12    1
    44    44    12    1
    45    45    12    1
    46    46    15    1
    47    47    16    1
    48    48    17    1
    49    49    19    1
    50    50    19    1
    51    51    19    1
    52    52    20    1
    53    53    20    1
    54    54    20    1
    55    55    21    1
    56    56    21    1
    57    57    21    1
    58    58    24    1
    59    59    25    1
    60    60    26    1
    61    61    28    1
    62    62    28    1
    63    63    28    1
    64    64    29    1
    65    65    29    1
    66    66    29    1
    67    67    30    1
    68    68    30    1
    69    69    30    1
    70    70    33    1
    71    71    34    1
    72    72    35    1
    73    73    37    1
    74    74    37    1
    75    75    37    1
    76    76    38    1
    77    77    38    1
    78    78    38    1
    79    79    39    1
    80    80    39    1
    81    81    39    1
    82    17    18   ar
    83    22    23   ar
    84    26    27   ar
    85    32    40    1
    86    35    36   ar
    87    82    83    1
    88    83    84   ar
    89    84    85   ar
    90    85    86   ar
    91    86    87   ar
    92    87    88   ar
    93    88    83   ar
    94    89    82    1
    95    90    89   ar
    96    91    90   ar
    97    92    91   ar
    98    93    92   ar
    99    94    89   ar
   100    95    82    1
   101    96    95   ar
   102    97    96   ar
   103    98    97   ar
   104    99    98   ar
   105   100    95   ar
   106   101    82    1
   107   102   101   ar
   108   103   102   ar
   109   104   103   ar
   110   105   104   ar
   111   106   101   ar
   112   107    84    1
   113   108    85    1
   114   109    86    1
   115   110    87    1
   116   111    88    1
   117   112    90    1
   118   113    91    1
   119   114    92    1
   120   115    93    1
   121   116    94    1
   122   117    96    1
   123   118    97    1
   124   119    98    1
   125   120    99    1
   126   121   100    1
   127   122   102    1
   128   123   103    1
   129   124   104    1
   130   125   105    1
   131   126   106    1
   132    93    94   ar
   133    99   100   ar
   134   105   106   ar
@<TRIPOS>SUBSTRUCTURE
     1 RES1        1 GROUP             0 ****  ****    0  
     2 RES2       82 GROUP             0 ****  ****    0  
@<TRIPOS>CRYSIN
   18.7170   15.4360   20.5710   90.0000  109.5500   90.0000   231     1
