@<TRIPOS>MOLECULE
IVAMAW
   103   103     5     0     0
SMALL
NO_CHARGES
****
Generated from the CSD

@<TRIPOS>ATOM
     1 Er1     13.0854   7.3386  19.7529   Er        1 RES1   0.0000
     2 Fe1     17.5139  10.4223  19.6274   Fe        1 RES1   0.0000
     3 O1      11.9712   8.5633  18.2122   O.3       1 RES1   0.0000
     4 N1      15.0426   8.6243  19.6062   N.1       1 RES1   0.0000
     5 C1      16.6378  11.6595  18.4479   C.1       1 RES1   0.0000
     6 N2      15.0906   5.3072  21.4189   N.ar      1 RES1   0.0000
     7 O2      12.2475   9.1793  20.7808   O.3       1 RES1   0.0000
     8 O3      14.5398   5.6234  20.2301   O.3       1 RES1   0.0000
     9 C2      19.0606  11.5706  19.6652   C.1       1 RES1   0.0000
    10 C3      15.9908   9.2885  19.5900   C.1       1 RES1   0.0000
    11 N3      16.2844  12.0062  21.9777   N.1       1 RES1   0.0000
    12 O4      13.0149   6.9276  21.9899   O.3       1 RES1   0.0000
    13 C4      18.2545   9.4231  18.1146   C.1       1 RES1   0.0000
    14 N4      18.8059   8.5176  21.6871   N.1       1 RES1   0.0000
    15 N5      12.0347  10.4264  20.3114   N.ar      1 RES1   0.0000
    16 N6      18.6391   8.7907  17.2408   N.1       1 RES1   0.0000
    17 N7      14.7370   5.7478  17.4176   N.ar      1 RES1   0.0000
    18 N8      16.1407  12.3973  17.7509   N.1       1 RES1   0.0000
    19 C5      14.6054   4.4347  17.3424   C.ar      1 RES1   0.0000
    20 C6      10.8215  10.8277  20.0574   C.ar      1 RES1   0.0000
    21 N9      19.9619  12.2704  19.6875   N.1       1 RES1   0.0000
    22 C7      12.9047  12.5282  19.6834   C.ar      1 RES1   0.0000
    23 H1      13.6328  13.0946  19.5656   H         1 RES1   0.0000
    24 O5      13.6681   6.4768  17.7184   O.3       1 RES1   0.0000
    25 C8      16.7679  11.4106  21.1120   C.1       1 RES1   0.0000
    26 C9      13.0837  11.2620  20.1590   C.ar      1 RES1   0.0000
    27 H2      13.9379  10.9725  20.3825   H         1 RES1   0.0000
    28 C10     18.3514   9.2161  20.9413   C.1       1 RES1   0.0000
    29 C11     15.9264   6.3942  17.1168   C.ar      1 RES1   0.0000
    30 H3      15.9742   7.3226  17.1493   H         1 RES1   0.0000
    31 C12     10.5960  12.1243  19.5534   C.ar      1 RES1   0.0000
    32 H4       9.7337  12.4012  19.3420   H         1 RES1   0.0000
    33 C13     11.6330  12.9549  19.3786   C.ar      1 RES1   0.0000
    34 H5      11.4951  13.8159  19.0535   H         1 RES1   0.0000
    35 N10     11.5401   8.4376  16.9522   N.ar      1 RES1   0.0000
    36 N11     12.1892   7.5677  22.8536   N.ar      1 RES1   0.0000
    37 C14     14.1178   8.9215  23.4612   C.3       1 RES1   0.0000
    38 H6      14.3261   9.6555  24.0444   H         1 RES1   0.0000
    39 H7      14.6546   8.1620  23.6990   H         1 RES1   0.0000
    40 H8      14.3045   9.1729  22.5528   H         1 RES1   0.0000
    41 C15     10.8965   7.2070  22.8942   C.ar      1 RES1   0.0000
    42 H9      10.5847   6.5314  22.3374   H         1 RES1   0.0000
    43 C16     16.0637   6.1009  21.8639   C.ar      1 RES1   0.0000
    44 H10     16.3489   6.8222  21.3518   H         1 RES1   0.0000
    45 C17     14.6750   4.2099  22.0854   C.ar      1 RES1   0.0000
    46 C18     15.7557   3.6867  16.9888   C.ar      1 RES1   0.0000
    47 H11     15.6962   2.7596  16.9502   H         1 RES1   0.0000
    48 C19     12.1422   9.1539  16.0073   C.ar      1 RES1   0.0000
    49 C20     17.0109   5.6729  16.7754   C.ar      1 RES1   0.0000
    50 H12     17.8169   6.0958  16.5864   H         1 RES1   0.0000
    51 C21     12.6949   8.5798  23.5933   C.ar      1 RES1   0.0000
    52 C22     10.4607   7.6363  16.7267   C.ar      1 RES1   0.0000
    53 H13     10.1017   7.1118  17.4054   H         1 RES1   0.0000
    54 C23     11.8121   9.2224  24.4306   C.ar      1 RES1   0.0000
    55 H14     12.1133   9.9336  24.9488   H         1 RES1   0.0000
    56 C24     13.3350   3.8226  17.6716   C.3       1 RES1   0.0000
    57 H15     13.4018   2.8714  17.5659   H         1 RES1   0.0000
    58 H16     13.1064   4.0296  18.5800   H         1 RES1   0.0000
    59 H17     12.6554   4.1617  17.0843   H         1 RES1   0.0000
    60 C25     10.0434   7.8318  23.7518   C.ar      1 RES1   0.0000
    61 H18      9.1553   7.5626  23.8006   H         1 RES1   0.0000
    62 C26     11.6120   9.1158  14.7209   C.ar      1 RES1   0.0000
    63 H19     12.0180   9.6085  14.0442   H         1 RES1   0.0000
    64 C27      9.7101   9.8600  20.3053   C.3       1 RES1   0.0000
    65 H20      8.8716  10.2702  20.0817   H         1 RES1   0.0000
    66 H21      9.8390   9.0789  19.7627   H         1 RES1   0.0000
    67 H22      9.7070   9.6072  21.2319   H         1 RES1   0.0000
    68 C28     16.2469   4.7382  23.7904   C.ar      1 RES1   0.0000
    69 H23     16.6427   4.5350  24.6094   H         1 RES1   0.0000
    70 C29      9.9298   7.6261  15.4891   C.ar      1 RES1   0.0000
    71 H24      9.1688   7.1207  15.3204   H         1 RES1   0.0000
    72 C30     10.4822   8.8326  24.5179   C.ar      1 RES1   0.0000
    73 H25      9.9040   9.2631  25.1052   H         1 RES1   0.0000
    74 C31     16.9098   4.2658  16.7124   C.ar      1 RES1   0.0000
    75 H26     17.6480   3.7527  16.4787   H         1 RES1   0.0000
    76 C32     10.5183   8.3767  14.4385   C.ar      1 RES1   0.0000
    77 H27     10.1608   8.3601  13.5809   H         1 RES1   0.0000
    78 C33     15.2705   3.9356  23.2824   C.ar      1 RES1   0.0000
    79 H28     15.0038   3.1838  23.7620   H         1 RES1   0.0000
    80 C34     13.6029   3.4289  21.4717   C.3       1 RES1   0.0000
    81 H29     13.3921   2.6783  22.0326   H         1 RES1   0.0000
    82 H30     12.8240   3.9801  21.3681   H         1 RES1   0.0000
    83 H31     13.8886   3.1152  20.6101   H         1 RES1   0.0000
    84 C35     16.6443   5.8456  23.0914   C.ar      1 RES1   0.0000
    85 H32     17.2923   6.4171  23.4368   H         1 RES1   0.0000
    86 C36     13.3055   9.9463  16.3731   C.3       1 RES1   0.0000
    87 H33     13.6345  10.4073  15.5968   H         1 RES1   0.0000
    88 H34     13.0607  10.5864  17.0437   H         1 RES1   0.0000
    89 H35     13.9921   9.3685  16.7165   H         1 RES1   0.0000
    90 Er1B    21.8200  13.6884  19.7529   Er        1 RES1   0.0000
    91 N9B     11.2273   5.9206  19.6875   N.3       1 RES1   0.0000
    92 O6      14.1732  13.1060  23.6096   O.3       2 RES2   0.0000
    93 H36     14.7704  12.4710  23.1869   H         2 RES2   0.0000
    94 H37     14.7736  13.6267  24.1623   H         2 RES2   0.0000
    95 O7      20.2326   6.7752  15.6984   O.3       3 RES3   0.0000
    96 H38     20.7243   5.9815  15.9321   H         3 RES3   0.0000
    97 H39     19.7685   7.0356  16.4808   H         3 RES3   0.0000
    98 O8      14.2837  13.4463  15.8874   O.3       4 RES4   0.0000
    99 H40     14.6715  13.2584  15.0176   H         4 RES4   0.0000
   100 H41     14.6012  12.7250  16.4401   H         4 RES4   0.0000
   101 O9      20.1603   6.4095  23.1381   O.3       5 RES5   0.0000
   102 H42     19.9396   7.3277  23.0040   H         5 RES5   0.0000
   103 H43     21.0540   6.3879  23.4511   H         5 RES5   0.0000
@<TRIPOS>BOND
     1     1     3    1
     2     2     5    1
     3     3    35    1
     4     4     1    1
     5     5    18    3
     6     6     8    1
     7     7     1    1
     8     8     1    1
     9     9     2    1
    10    10     2    1
    11    11    25    3
    12    12     1    1
    13    13     2    1
    14    14    28    3
    15    15     7    1
    16    16    13    3
    17    17    19   ar
    18    19    46   ar
    19    20    15   ar
    20    21     9    3
    21    22    23    1
    22    24     1    1
    23    25     2    1
    24    26    15   ar
    25    27    26    1
    26    28     2    1
    27    29    17   ar
    28    30    29    1
    29    31    20   ar
    30    32    31    1
    31    33    22   ar
    32    34    33    1
    33    35    48   ar
    34    36    12    1
    35    37    38    1
    36    39    37    1
    37    40    37    1
    38    41    36   ar
    39    42    41    1
    40    43     6   ar
    41    44    43    1
    42    45     6   ar
    43    46    47    1
    44    48    62   ar
    45    49    29   ar
    46    50    49    1
    47    51    36   ar
    48    52    35   ar
    49    53    52    1
    50    54    51   ar
    51    55    54    1
    52    56    19    1
    53    57    56    1
    54    58    56    1
    55    59    56    1
    56    60    41   ar
    57    61    60    1
    58    62    63    1
    59    64    20    1
    60    65    64    1
    61    66    64    1
    62    67    64    1
    63    68    69    1
    64    70    52   ar
    65    71    70    1
    66    72    54   ar
    67    73    72    1
    68    74    46   ar
    69    75    74    1
    70    76    62   ar
    71    77    76    1
    72    78    45   ar
    73    79    78    1
    74    80    45    1
    75    81    80    1
    76    82    80    1
    77    83    80    1
    78    84    43   ar
    79    85    84    1
    80    86    48    1
    81    87    86    1
    82    88    86    1
    83    89    86    1
    84    90    21   un
    85    91     1   un
    86     4    10    3
    87    17    24    1
    88    22    26   ar
    89    31    33   ar
    90    37    51    1
    91    49    74   ar
    92    60    72   ar
    93    68    78   ar
    94    68    84   ar
    95    70    76   ar
    96    92    93    1
    97    94    92    1
    98    95    96    1
    99    97    95    1
   100    98    99    1
   101   100    98    1
   102   101   102    1
   103   103   101    1
@<TRIPOS>SUBSTRUCTURE
     1 RES1        1 GROUP             0 ****  ****    0  
     2 RES2       92 GROUP             0 ****  ****    0  
     3 RES3       95 GROUP             0 ****  ****    0  
     4 RES4       98 GROUP             0 ****  ****    0  
     5 RES5      101 GROUP             0 ****  ****    0  
@<TRIPOS>CRYSIN
   17.4692   12.6996   20.3970   90.0000   94.9300   90.0000     9     1
