@<TRIPOS>MOLECULE
IVIMAE
   129   136     6     0     0
SMALL
USER_CHARGES
****
Generated from the CSD

@<TRIPOS>ATOM
     1 Fe1      9.0771   3.6446   3.0512   Fe        1 RES1   2.0000
     2 N1       9.7548   5.3344   4.5093   N.3       1 RES1   0.0000
     3 N2       8.7454   2.6974   5.1474   N.3       1 RES1   0.0000
     4 N3       9.8695   5.0761   1.7758   N.2       1 RES1   0.0000
     5 N4      10.8404   7.0413   1.4685   N.pl3     1 RES1   0.0000
     6 H1      11.2849   7.7317   1.6594   H         1 RES1   0.0000
     7 N5       7.3253   4.6859   3.3512   N.2       1 RES1   0.0000
     8 N6       6.1462   6.2929   4.3186   N.pl3     1 RES1   0.0000
     9 H2       6.0427   6.9632   4.7635   H         1 RES1   0.0000
    10 N7      10.9287   2.6866   3.4462   N.2       1 RES1   0.0000
    11 N8      11.9153   0.9689   4.4316   N.pl3     1 RES1   0.0000
    12 H3      12.0453   0.3855   5.0067   H         1 RES1   0.0000
    13 N9       6.6190   1.8140   7.6635   N.pl3     1 RES1   0.0000
    14 H4       6.5682   2.5879   7.9105   H         1 RES1   0.0000
    15 N10      6.8583   0.1230   6.3413   N.pl3     1 RES1   1.0000
    16 H5       6.9712  -0.2725   5.6933   H         1 RES1   0.0000
    17 O1       8.3562   2.3343   2.0652   O.3       1 RES1   0.0000
    18 C1      10.2516   4.6602   5.7477   C.3       1 RES1   0.0000
    19 H6      11.0754   4.1544   5.4930   H         1 RES1   0.0000
    20 C2      10.6538   5.6285   6.8691   C.3       1 RES1   0.0000
    21 H7      11.3155   6.2782   6.5230   H         1 RES1   0.0000
    22 H8       9.8575   6.1333   7.1724   H         1 RES1   0.0000
    23 C3      11.2519   4.8716   8.0407   C.3       1 RES1   0.0000
    24 H9      12.0739   4.4048   7.7503   H         1 RES1   0.0000
    25 H10     11.4943   5.5072   8.7602   H         1 RES1   0.0000
    26 C4      10.2493   3.8646   8.5657   C.3       1 RES1   0.0000
    27 H11      9.4482   4.3385   8.9033   H         1 RES1   0.0000
    28 H12     10.6487   3.3613   9.3195   H         1 RES1   0.0000
    29 C5       9.8382   2.8936   7.4642   C.3       1 RES1   0.0000
    30 H13      9.1779   2.2515   7.8247   H         1 RES1   0.0000
    31 H14     10.6324   2.3816   7.1681   H         1 RES1   0.0000
    32 C6       9.2299   3.6228   6.2569   C.3       1 RES1   0.0000
    33 H15      8.4333   4.1298   6.5888   H         1 RES1   0.0000
    34 C7      10.8574   6.0388   3.7993   C.3       1 RES1   0.0000
    35 H16     11.7117   5.5563   3.9324   H         1 RES1   0.0000
    36 H17     10.9592   6.9583   4.1512   H         1 RES1   0.0000
    37 C8      10.5124   6.0806   2.3445   C.2       1 RES1   0.0000
    38 C9       9.7797   5.3923   0.4177   C.ar      1 RES1   0.0000
    39 C10      9.2097   4.7024  -0.6466   C.ar      1 RES1   0.0000
    40 H18      8.7840   3.8622  -0.5178   H         1 RES1   0.0000
    41 C11      9.2831   5.2769  -1.8897   C.ar      1 RES1   0.0000
    42 H19      8.9199   4.8173  -2.6378   H         1 RES1   0.0000
    43 C12      9.8816   6.5267  -2.0785   C.ar      1 RES1   0.0000
    44 H20      9.8993   6.9018  -2.9511   H         1 RES1   0.0000
    45 C13     10.4511   7.2338  -1.0357   C.ar      1 RES1   0.0000
    46 H21     10.8580   8.0828  -1.1673   H         1 RES1   0.0000
    47 C14     10.3948   6.6350   0.2160   C.ar      1 RES1   0.0000
    48 C15      8.6143   6.2718   4.7477   C.3       1 RES1   0.0000
    49 H22      8.4886   6.3961   5.7219   H         1 RES1   0.0000
    50 H23      8.8227   7.1547   4.3515   H         1 RES1   0.0000
    51 C16      7.3586   5.7464   4.1512   C.2       1 RES1   0.0000
    52 C17      5.9883   4.5362   2.9611   C.ar      1 RES1   0.0000
    53 C18      5.3942   3.6422   2.0742   C.ar      1 RES1   0.0000
    54 H24      5.8952   2.9611   1.6408   H         1 RES1   0.0000
    55 C19      4.0398   3.7966   1.8553   C.ar      1 RES1   0.0000
    56 H25      3.6031   3.2214   1.2388   H         1 RES1   0.0000
    57 C20      3.2915   4.7792   2.5162   C.ar      1 RES1   0.0000
    58 H26      2.3555   4.8296   2.3603   H         1 RES1   0.0000
    59 C21      3.8758   5.6776   3.3845   C.ar      1 RES1   0.0000
    60 H27      3.3680   6.3494   3.8265   H         1 RES1   0.0000
    61 C22      5.2394   5.5502   3.5776   C.ar      1 RES1   0.0000
    62 C23      9.5137   1.4233   5.0110   C.3       1 RES1   0.0000
    63 H28      9.6874   1.0386   5.9064   H         1 RES1   0.0000
    64 H29      8.9884   0.7685   4.4874   H         1 RES1   0.0000
    65 C24     10.8051   1.7032   4.3215   C.2       1 RES1   0.0000
    66 C25     12.2403   2.5901   2.9468   C.ar      1 RES1   0.0000
    67 C26     12.9203   3.3672   2.0141   C.ar      1 RES1   0.0000
    68 H30     12.4999   4.0979   1.5764   H         1 RES1   0.0000
    69 C27     14.2381   3.0279   1.7538   C.ar      1 RES1   0.0000
    70 H31     14.7286   3.5283   1.1129   H         1 RES1   0.0000
    71 C28     14.8626   1.9630   2.4146   C.ar      1 RES1   0.0000
    72 H32     15.7708   1.7654   2.2158   H         1 RES1   0.0000
    73 C29     14.1980   1.1945   3.3430   C.ar      1 RES1   0.0000
    74 H33     14.6249   0.4763   3.7965   H         1 RES1   0.0000
    75 C30     12.8721   1.5198   3.5833   C.ar      1 RES1   0.0000
    76 C31      7.2999   2.3630   5.2899   C.3       1 RES1   0.0000
    77 H34      6.9957   1.9471   4.4445   H         1 RES1   0.0000
    78 H35      6.7973   3.2091   5.3986   H         1 RES1   0.0000
    79 C32      6.9307   1.4474   6.4228   C.2       1 RES1   0.0000
    80 C33      6.3328   0.6867   8.4241   C.ar      1 RES1   0.0000
    81 C34      5.9559   0.5387   9.7501   C.ar      1 RES1   0.0000
    82 H36      5.8573   1.2817  10.3323   H         1 RES1   0.0000
    83 C35      5.7331  -0.7543  10.1707   C.ar      1 RES1   0.0000
    84 H37      5.4758  -0.9060  11.0733   H         1 RES1   0.0000
    85 C36      5.8758  -1.8488   9.3124   C.ar      1 RES1   0.0000
    86 H38      5.7081  -2.7205   9.6486   H         1 RES1   0.0000
    87 C37      6.2493  -1.7055   7.9978   C.ar      1 RES1   0.0000
    88 H39      6.3461  -2.4504   7.4170   H         1 RES1   0.0000
    89 C38      6.4789  -0.3960   7.5686   C.ar      1 RES1   0.0000
    90 C39      8.3710   1.2257   1.1973   C.3       1 RES1   0.0000
    91 H40      8.1882   1.5395   0.2761   H         1 RES1   0.0000
    92 H41      7.6416   0.6089   1.4562   H         1 RES1   0.0000
    93 C40      9.6558   0.4815   1.2045   C.3       1 RES1   0.0000
    94 H42      9.8025   0.1007   2.1057   H         1 RES1   0.0000
    95 H43     10.3956   1.1123   1.0185   H         1 RES1   0.0000
    96 C41      9.6877  -0.6457   0.1731   C.3       1 RES1   0.0000
    97 H44      8.9878  -1.2989   0.3805   H         1 RES1   0.0000
    98 H45     10.5636  -1.0877   0.1974   H         1 RES1   0.0000
    99 H46      9.5346  -0.2750  -0.7210   H         1 RES1   0.0000
   100 Cl1      5.5984   5.2629   7.9290   Cl        2 RES2   0.0000
   101 O2       6.5536   4.3915   8.6057   O.3       2 RES2  -1.0000
   102 O3       6.3370   6.3008   7.2797   O.2       2 RES2   0.0000
   103 O4       4.8912   4.4731   6.9721   O.2       2 RES2   0.0000
   104 O5       4.7300   5.8038   8.9061   O.2       2 RES2   0.0000
   105 Cl2      2.8655   2.1670  11.0005   Cl        3 RES3   0.0000
   106 O6       3.9449   1.9795  11.9090   O.2       3 RES3   0.0000
   107 O7       3.3002   2.9073   9.8485   O.2       3 RES3   0.0000
   108 O8       1.8051   2.8791  11.6541   O.2       3 RES3   0.0000
   109 O9       2.3635   0.8824  10.5649   O.3       3 RES3  -1.0000
   110 Cl3     -0.3177   1.6878   7.3217   Cl        4 RES4   0.0000
   111 O10      0.8450   2.1425   8.0293   O.2       4 RES4   0.0000
   112 O11     -1.3544   1.3804   8.3009   O.3       4 RES4  -1.0000
   113 O12     -0.7914   2.6986   6.4297   O.2       4 RES4   0.0000
   114 O13      0.0004   0.4842   6.5868   O.2       4 RES4   0.0000
   115 C42     10.1340   2.3284  12.5252   C.3       5 RES5   0.0000
   116 H47     10.2702   1.8513  13.3821   H         5 RES5   0.0000
   117 H48     10.2329   1.6745  11.7886   H         5 RES5   0.0000
   118 C43      8.7313   2.9439  12.4895   C.3       5 RES5   0.0000
   119 H49      8.6840   3.6928  13.1346   H         5 RES5   0.0000
   120 H50      8.5517   3.3048  11.5854   H         5 RES5   0.0000
   121 C44      7.6932   1.9250  12.8342   C.3       5 RES5   0.0000
   122 H51      7.7307   1.1884  12.1891   H         5 RES5   0.0000
   123 H52      6.8059   2.3399  12.8056   H         5 RES5   0.0000
   124 H53      7.8624   1.5788  13.7354   H         5 RES5   0.0000
   125 O14     11.0992   3.3601  12.3894   O.3       5 RES5   0.0000
   126 H54     11.8804   3.0200  11.9731   H         5 RES5   0.0000
   127 O15     -0.8950   2.6370  10.8616   O.3       6 RES6   0.0000
   128 H55     -0.1248   2.5044  11.1148   H         6 RES6   0.0000
   129 H56     -0.9516   2.3080  10.1278   H         6 RES6   0.0000
@<TRIPOS>BOND
     1     1     2    1
     2     2    18    1
     3     3     1    1
     4     4     1    1
     5     5     6    1
     6     7     1    1
     7     8     9    1
     8    10     1    1
     9    11    12    1
    10    13    14    1
    11    15    16    1
    12    17     1    1
    13    18    19    1
    14    20    18    1
    15    21    20    1
    16    22    20    1
    17    23    20    1
    18    24    23    1
    19    25    23    1
    20    26    23    1
    21    27    26    1
    22    28    26    1
    23    29    26    1
    24    30    29    1
    25    31    29    1
    26    32     3    1
    27    33    32    1
    28    34     2    1
    29    35    34    1
    30    36    34    1
    31    37     4    2
    32    38     4    1
    33    39    38   ar
    34    40    39    1
    35    41    39   ar
    36    42    41    1
    37    43    41   ar
    38    44    43    1
    39    45    43   ar
    40    46    45    1
    41    47     5    1
    42    48     2    1
    43    49    48    1
    44    50    48    1
    45    51     7    2
    46    52     7    1
    47    53    52   ar
    48    54    53    1
    49    55    53   ar
    50    56    55    1
    51    57    55   ar
    52    58    57    1
    53    59    57   ar
    54    60    59    1
    55    61     8    1
    56    62     3    1
    57    63    62    1
    58    64    62    1
    59    65    10    2
    60    66    10    1
    61    67    66   ar
    62    68    67    1
    63    69    67   ar
    64    70    69    1
    65    71    69   ar
    66    72    71    1
    67    73    71   ar
    68    74    73    1
    69    75    11    1
    70    76     3    1
    71    77    76    1
    72    78    76    1
    73    79    13    1
    74    80    13    1
    75    81    80   ar
    76    82    81    1
    77    83    81   ar
    78    84    83    1
    79    85    83   ar
    80    86    85    1
    81    87    85   ar
    82    88    87    1
    83    89    15    1
    84    90    17    1
    85    91    90    1
    86    92    90    1
    87    93    90    1
    88    94    93    1
    89    95    93    1
    90    96    93    1
    91    97    96    1
    92    98    96    1
    93    99    96    1
    94     5    37    1
    95     8    51    1
    96    11    65    1
    97    15    79    2
    98    18    32    1
    99    29    32    1
   100    34    37    1
   101    38    47   ar
   102    45    47   ar
   103    48    51    1
   104    52    61   ar
   105    59    61   ar
   106    62    65    1
   107    66    75   ar
   108    73    75   ar
   109    76    79    1
   110    80    89   ar
   111    87    89   ar
   112   100   101    1
   113   102   100    2
   114   103   100    2
   115   104   100    2
   116   105   106    2
   117   107   105    2
   118   108   105    2
   119   109   105    1
   120   110   111    2
   121   112   110    1
   122   113   110    2
   123   114   110    2
   124   115   116    1
   125   117   115    1
   126   118   115    1
   127   119   118    1
   128   120   118    1
   129   121   118    1
   130   122   121    1
   131   123   121    1
   132   124   121    1
   133   125   115    1
   134   126   125    1
   135   127   128    1
   136   129   127    1
@<TRIPOS>SUBSTRUCTURE
     1 RES1        1 GROUP             0 ****  ****    0  
     2 RES2      100 GROUP             0 ****  ****    0  
     3 RES3      105 GROUP             0 ****  ****    0  
     4 RES4      110 GROUP             0 ****  ****    0  
     5 RES5      115 GROUP             0 ****  ****    0  
     6 RES6      127 GROUP             0 ****  ****    0  
@<TRIPOS>CRYSIN
   14.0650   24.5530   14.9440   90.0000  106.8189   90.0000   231     1
