@<TRIPOS>MOLECULE
IWOLAJ
   124   129     4     0     0
SMALL
NO_CHARGES
****
Generated from the CSD

@<TRIPOS>ATOM
     1 Fe1      6.9099  17.1370  25.3513   Fe        1 RES1   0.0000
     2 S1       3.5159  18.7026  20.6242   S.3       1 RES1   0.0000
     3 C1       2.9763  17.4134  19.5352   C.ar      1 RES1   0.0000
     4 C2       1.9223  16.5576  19.8537   C.ar      1 RES1   0.0000
     5 C3       1.6123  15.5308  18.9523   C.ar      1 RES1   0.0000
     6 C4       2.3788  15.3490  17.8077   C.ar      1 RES1   0.0000
     7 H1       2.1530  14.6546  17.1996   H         1 RES1   0.0000
     8 C5       3.4615  16.1611  17.5403   C.ar      1 RES1   0.0000
     9 H2       4.0100  16.0022  16.7798   H         1 RES1   0.0000
    10 C6       3.7311  17.2008  18.3922   C.ar      1 RES1   0.0000
    11 H3       4.4509  17.7886  18.1951   H         1 RES1   0.0000
    12 O1       1.1690  16.7972  20.9814   O.3       1 RES1   0.0000
    13 C7       1.3297  15.8360  22.0498   C.3       1 RES1   0.0000
    14 H4       1.3777  14.9250  21.6667   H         1 RES1   0.0000
    15 H5       0.5421  15.8759  22.6496   H         1 RES1   0.0000
    16 C8       2.5825  16.1117  22.8500   C.ar      1 RES1   0.0000
    17 C9       2.6577  17.1813  23.7318   C.ar      1 RES1   0.0000
    18 H6       1.9031  17.7443  23.8588   H         1 RES1   0.0000
    19 C10      3.8277  17.4293  24.4272   C.ar      1 RES1   0.0000
    20 H7       3.8558  18.1698  25.0227   H         1 RES1   0.0000
    21 N1       4.9236  16.6669  24.2964   N.ar      1 RES1   0.0000
    22 C11      4.8424  15.6321  23.4568   C.ar      1 RES1   0.0000
    23 H8       5.6041  15.0713  23.3610   H         1 RES1   0.0000
    24 C12      3.7135  15.3320  22.7203   C.ar      1 RES1   0.0000
    25 H9       3.7151  14.5904  22.1267   H         1 RES1   0.0000
    26 S2       0.3254  14.3401  19.2451   S.3       1 RES1   0.0000
    27 C13     -1.1145  15.3588  19.3960   C.ar      1 RES1   0.0000
    28 C14     -1.5478  16.2012  18.3477   C.ar      1 RES1   0.0000
    29 C15     -2.6714  16.9991  18.5448   C.ar      1 RES1   0.0000
    30 C16     -3.3815  16.9153  19.7353   C.ar      1 RES1   0.0000
    31 H10     -4.1473  17.4650  19.8618   H         1 RES1   0.0000
    32 C17     -2.9929  16.0510  20.7358   C.ar      1 RES1   0.0000
    33 H11     -3.4999  15.9911  21.5385   H         1 RES1   0.0000
    34 C18     -1.8702  15.2774  20.5689   C.ar      1 RES1   0.0000
    35 H12     -1.6040  14.6790  21.2570   H         1 RES1   0.0000
    36 O2      -0.8401  16.2888  17.1707   O.3       1 RES1   0.0000
    37 C19     -0.9555  15.1418  16.2884   C.3       1 RES1   0.0000
    38 H13     -1.0018  14.3133  16.8276   H         1 RES1   0.0000
    39 H14     -0.1531  15.0868  15.7114   H         1 RES1   0.0000
    40 C20     -2.1943  15.2533  15.4234   C.ar      1 RES1   0.0000
    41 C21     -2.2100  16.0908  14.3364   C.ar      1 RES1   0.0000
    42 H15     -1.4185  16.5519  14.0825   H         1 RES1   0.0000
    43 C22     -3.3743  16.2699  13.6069   C.ar      1 RES1   0.0000
    44 H16     -3.3582  16.8644  12.8658   H         1 RES1   0.0000
    45 N2      -4.5279  15.6400  13.8960   N.ar      1 RES1   0.0000
    46 C23     -4.4900  14.7883  14.9312   C.ar      1 RES1   0.0000
    47 H17     -5.2800  14.3067  15.1458   H         1 RES1   0.0000
    48 C24     -3.3560  14.5720  15.7054   C.ar      1 RES1   0.0000
    49 H18     -3.3835  13.9543  16.4279   H         1 RES1   0.0000
    50 S3      -3.3620  18.0002  17.2451   S.3       1 RES1   0.0000
    51 C25     -2.1931  19.2609  16.8243   C.ar      1 RES1   0.0000
    52 C26     -1.5471  20.0621  17.7592   C.ar      1 RES1   0.0000
    53 C27     -0.7987  21.1579  17.3371   C.ar      1 RES1   0.0000
    54 C28     -0.7166  21.4434  15.9704   C.ar      1 RES1   0.0000
    55 H19     -0.1979  22.1836  15.6763   H         1 RES1   0.0000
    56 C29     -1.3621  20.6832  15.0629   C.ar      1 RES1   0.0000
    57 H20     -1.3102  20.9048  14.1403   H         1 RES1   0.0000
    58 C30     -2.1034  19.5794  15.4618   C.ar      1 RES1   0.0000
    59 H21     -2.5477  19.0431  14.8165   H         1 RES1   0.0000
    60 O3      -1.6000  19.7301  19.1064   O.3       1 RES1   0.0000
    61 C31     -2.6006  20.4281  19.8580   C.3       1 RES1   0.0000
    62 H22     -3.4825  20.3330  19.4194   H         1 RES1   0.0000
    63 H23     -2.3774  21.3924  19.9095   H         1 RES1   0.0000
    64 C32     -2.6446  19.8292  21.2499   C.ar      1 RES1   0.0000
    65 C33     -3.7507  20.0721  22.0498   C.ar      1 RES1   0.0000
    66 H24     -4.4285  20.6721  21.7648   H         1 RES1   0.0000
    67 C34     -3.8542  19.4307  23.2668   C.ar      1 RES1   0.0000
    68 H25     -4.6144  19.6082  23.8085   H         1 RES1   0.0000
    69 N3      -2.9259  18.5623  23.7253   N.ar      1 RES1   0.0000
    70 C35     -1.8437  18.3941  22.9686   C.ar      1 RES1   0.0000
    71 H26     -1.1590  17.8218  23.2932   H         1 RES1   0.0000
    72 C36     -1.6497  18.9976  21.7431   C.ar      1 RES1   0.0000
    73 H27     -0.8526  18.8480  21.2469   H         1 RES1   0.0000
    74 S4      -0.0838  22.3483  18.4332   S.3       1 RES1   0.0000
    75 C37      0.6718  21.4886  19.7834   C.ar      1 RES1   0.0000
    76 C38      1.5117  20.3926  19.6295   C.ar      1 RES1   0.0000
    77 C39      2.2070  19.8877  20.7270   C.ar      1 RES1   0.0000
    78 C40      2.0311  20.4815  21.9802   C.ar      1 RES1   0.0000
    79 H28      2.5060  20.1468  22.7326   H         1 RES1   0.0000
    80 C41      1.1703  21.5520  22.1293   C.ar      1 RES1   0.0000
    81 H29      1.0404  21.9398  22.9865   H         1 RES1   0.0000
    82 C42      0.5047  22.0484  21.0458   C.ar      1 RES1   0.0000
    83 H30     -0.0789  22.7909  21.1539   H         1 RES1   0.0000
    84 O4       1.6401  19.7858  18.4000   O.3       1 RES1   0.0000
    85 C43      2.5990  20.3999  17.5269   C.3       1 RES1   0.0000
    86 H31      3.4569  20.5347  18.0041   H         1 RES1   0.0000
    87 H32      2.2682  21.2816  17.2223   H         1 RES1   0.0000
    88 C44      2.7998  19.4881  16.3535   C.ar      1 RES1   0.0000
    89 C45      1.8257  18.6031  15.9153   C.ar      1 RES1   0.0000
    90 H33      0.9602  18.6020  16.3072   H         1 RES1   0.0000
    91 C46      2.1391  17.7241  14.8967   C.ar      1 RES1   0.0000
    92 H34      1.4648  17.1215  14.6028   H         1 RES1   0.0000
    93 N4       3.3455  17.6693  14.2947   N.ar      1 RES1   0.0000
    94 C47      4.2597  18.5572  14.7074   C.ar      1 RES1   0.0000
    95 H35      5.1108  18.5510  14.2836   H         1 RES1   0.0000
    96 C48      4.0393  19.4766  15.7084   C.ar      1 RES1   0.0000
    97 H36      4.7195  20.0914  15.9553   H         1 RES1   0.0000
    98 N5       5.9229  18.6175  26.4784   N.2       1 RES1   0.0000
    99 C49      5.4969  19.5012  27.0770   C.1       1 RES1   0.0000
   100 S5       4.9297  20.7503  27.9679   S.2       1 RES1   0.0000
   101 N6       7.8882  15.5955  24.2851   N.2       1 RES1   0.0000
   102 C50      8.5312  14.6345  24.1868   C.1       1 RES1   0.0000
   103 S6       9.4810  13.3155  24.0971   S.2       1 RES1   0.0000
   104 Fe1     -3.4455  17.1370  25.3513   Fe        1 RES1   0.0000
   105 Fe1C    -6.5059  16.1086  12.7821   Fe        1 RES1   0.0000
   106 Fe1C     3.8495  16.1086  12.7821   Fe        1 RES1   0.0000
   107 N2C      8.8879  17.6055  26.4651   N.3       1 RES1   0.0000
   108 N3       7.4295  18.5623  23.7253   N.3       1 RES1   0.0000
   109 N4C      6.4058  15.5762  26.8638   N.3       1 RES1   0.0000
   110 C51      4.3042  12.6643  18.5923   C.3       2 RES2   0.0000
   111 H37      3.7399  13.2650  18.0267   H         2 RES2   0.0000
   112 Cl1      5.0277  11.4821  17.5410   Cl        2 RES2   0.0000
   113 Cl2      3.2557  11.9172  19.7823   Cl        2 RES2   0.0000
   114 Cl3      5.5070  13.6418  19.3530   Cl        2 RES2   0.0000
   115 C52      4.7577   0.5319  13.5521   C.3       3 RES3   0.0000
   116 H38      4.6147  -0.4145  13.2579   H         3 RES3   0.0000
   117 Cl4      6.3811   0.6793  14.1463   Cl        3 RES3   0.0000
   118 Cl5      3.5935   0.8983  14.8321   Cl        3 RES3   0.0000
   119 Cl6      4.4898   1.5750  12.1878   Cl        3 RES3   0.0000
   120 C53      7.4503  -0.0089   0.1810   C.3       4 RES4   0.0000
   121 H39      7.8608   0.1596   1.0759   H         4 RES4   0.0000
   122 Cl7      6.5680  -1.3702   0.4080   Cl        4 RES4   0.0000
   123 Cl8      6.2442   1.4579  -0.0483   Cl        4 RES4   0.0000
   124 Cl9      8.6422   0.2068  -0.8213   Cl        4 RES4   0.0000
@<TRIPOS>BOND
     1     1    21    1
     2     2     3    1
     3     3     4   ar
     4     4     5   ar
     5     5     6   ar
     6     6     7    1
     7     8     6   ar
     8     9     8    1
     9    10     3   ar
    10    11    10    1
    11    12     4    1
    12    13    12    1
    13    14    13    1
    14    15    13    1
    15    16    13    1
    16    17    16   ar
    17    18    17    1
    18    19    17   ar
    19    20    19    1
    20    21    19   ar
    21    22    21   ar
    22    23    22    1
    23    24    16   ar
    24    25    24    1
    25    26     5    1
    26    27    26    1
    27    28    27   ar
    28    29    28   ar
    29    30    29   ar
    30    31    30    1
    31    32    30   ar
    32    33    32    1
    33    34    27   ar
    34    35    34    1
    35    36    28    1
    36    37    36    1
    37    38    37    1
    38    39    37    1
    39    40    37    1
    40    41    40   ar
    41    42    41    1
    42    43    41   ar
    43    44    43    1
    44    45    43   ar
    45    46    45   ar
    46    47    46    1
    47    48    40   ar
    48    49    48    1
    49    50    29    1
    50    51    50    1
    51    52    51   ar
    52    53    52   ar
    53    54    53   ar
    54    55    54    1
    55    56    54   ar
    56    57    56    1
    57    58    51   ar
    58    59    58    1
    59    60    52    1
    60    61    60    1
    61    62    61    1
    62    63    61    1
    63    64    61    1
    64    65    64   ar
    65    66    65    1
    66    67    65   ar
    67    68    67    1
    68    69    67   ar
    69    70    69   ar
    70    71    70    1
    71    72    64   ar
    72    73    72    1
    73    74    53    1
    74    75    74    1
    75    76    75   ar
    76    77     2    1
    77    78    77   ar
    78    79    78    1
    79    80    78   ar
    80    81    80    1
    81    82    75   ar
    82    83    82    1
    83    84    76    1
    84    85    84    1
    85    86    85    1
    86    87    85    1
    87    88    85    1
    88    89    88   ar
    89    90    89    1
    90    91    89   ar
    91    92    91    1
    92    93    91   ar
    93    94    93   ar
    94    95    94    1
    95    96    88   ar
    96    97    96    1
    97    98     1    1
    98    99    98    2
    99   100    99    2
   100   101     1    1
   101   102   101    2
   102   103   102    2
   103   104    69   un
   104   105    45   un
   105   106    93   un
   106   107     1   un
   107   108     1   un
   108   109     1   un
   109     8    10   ar
   110    22    24   ar
   111    32    34   ar
   112    46    48   ar
   113    56    58   ar
   114    70    72   ar
   115    76    77   ar
   116    80    82   ar
   117    94    96   ar
   118   110   111    1
   119   112   110    1
   120   113   110    1
   121   114   110    1
   122   115   116    1
   123   117   115    1
   124   118   115    1
   125   119   115    1
   126   120   121    1
   127   122   120    1
   128   123   120    1
   129   124   120    1
@<TRIPOS>SUBSTRUCTURE
     1 RES1        1 GROUP             0 ****  ****    0  
     2 RES2      110 GROUP             0 ****  ****    0  
     3 RES3      115 GROUP             0 ****  ****    0  
     4 RES4      120 GROUP             0 ****  ****    0  
@<TRIPOS>CRYSIN
   10.3554   22.1637   25.4925   90.0000   99.5620   90.0000   231     1
