@<TRIPOS>MOLECULE
JADSOA
   121   130     1     0     0
SMALL
NO_CHARGES
****
Generated from the CSD

@<TRIPOS>ATOM
     1 Fe1      2.0817  13.5274  13.4397   Fe        1 RES1   0.0000
     2 N1       3.7755  13.8134  14.1662   N.ar      1 RES1   0.0000
     3 N2       3.2094  12.9334  11.9382   N.2       1 RES1   0.0000
     4 N3       1.5926  14.1743  15.2394   N.2       1 RES1   0.0000
     5 N4       6.2418  14.6432  15.0504   N.ar      1 RES1   0.0000
     6 N5       1.8095  15.3364  12.7180   N.2       1 RES1   0.0000
     7 N6       0.3936  13.3346  12.6585   N.ar      1 RES1   0.0000
     8 N7       1.6961  11.6220  13.8978   N.2       1 RES1   0.0000
     9 N8      -2.0717  13.0290  11.4764   N.ar      1 RES1   0.0000
    10 C1       3.8779  14.4878  15.3643   C.ar      1 RES1   0.0000
    11 C2       5.1235  14.9574  15.7616   C.ar      1 RES1   0.0000
    12 C3       6.1429  13.9463  13.9073   C.ar      1 RES1   0.0000
    13 C4       4.8904  13.5862  13.3791   C.ar      1 RES1   0.0000
    14 C5       4.5330  13.0398  12.1047   C.2       1 RES1   0.0000
    15 C6       0.5719  11.1309  13.3944   C.2       1 RES1   0.0000
    16 C7      -0.2341  12.1114  12.7063   C.ar      1 RES1   0.0000
    17 C8      -1.5017  11.9869  12.1322   C.ar      1 RES1   0.0000
    18 C9      -1.4347  14.2164  11.4089   C.ar      1 RES1   0.0000
    19 C10     -0.1850  14.4095  12.0186   C.ar      1 RES1   0.0000
    20 C11      0.6590  15.5683  12.0831   C.2       1 RES1   0.0000
    21 C12      2.5751  14.6367  15.9889   C.2       1 RES1   0.0000
    22 C13      2.6295  12.2566  10.8330   C.ar      1 RES1   0.0000
    23 C14      2.7887  10.8787  10.6719   C.ar      1 RES1   0.0000
    24 H1       3.3929  10.4064  11.2327   H         1 RES1   0.0000
    25 C15      2.0670  10.1863   9.6927   C.ar      1 RES1   0.0000
    26 C16      1.1702  10.8909   8.8979   C.ar      1 RES1   0.0000
    27 H2       0.6522  10.4234   8.2534   H         1 RES1   0.0000
    28 C17      1.0153  12.2764   9.0290   C.ar      1 RES1   0.0000
    29 C18      1.7630  12.9541   9.9862   C.ar      1 RES1   0.0000
    30 H3       1.6842  13.8975  10.0652   H         1 RES1   0.0000
    31 C19      0.2380  14.2242  15.6954   C.ar      1 RES1   0.0000
    32 C20     -0.6164  15.1813  15.1551   C.ar      1 RES1   0.0000
    33 H4      -0.2807  15.8099  14.5270   H         1 RES1   0.0000
    34 C21     -1.9601  15.2269  15.5260   C.ar      1 RES1   0.0000
    35 C22     -2.4341  14.2939  16.4494   C.ar      1 RES1   0.0000
    36 H5      -3.3510  14.3097  16.6976   H         1 RES1   0.0000
    37 C23     -1.5891  13.3379  17.0157   C.ar      1 RES1   0.0000
    38 C24     -0.2466  13.3032  16.6249   C.ar      1 RES1   0.0000
    39 H6       0.3371  12.6505  16.9934   H         1 RES1   0.0000
    40 C25      2.5095  10.8058  14.7377   C.ar      1 RES1   0.0000
    41 C26      1.9680  10.2592  15.9047   C.ar      1 RES1   0.0000
    42 H7       1.0566  10.4204  16.1184   H         1 RES1   0.0000
    43 C27      2.7466   9.4809  16.7584   C.ar      1 RES1   0.0000
    44 C28      4.0915   9.2741  16.4353   C.ar      1 RES1   0.0000
    45 H8       4.6334   8.7529  17.0160   H         1 RES1   0.0000
    46 C29      4.6548   9.8147  15.2824   C.ar      1 RES1   0.0000
    47 C30      3.8545  10.5851  14.4320   C.ar      1 RES1   0.0000
    48 H9       4.2275  10.9600  13.6427   H         1 RES1   0.0000
    49 C31      2.7328  16.3735  13.0352   C.ar      1 RES1   0.0000
    50 C32      3.9926  16.3733  12.4231   C.ar      1 RES1   0.0000
    51 H10      4.1641  15.7841  11.6979   H         1 RES1   0.0000
    52 C33      4.9949  17.2297  12.8692   C.ar      1 RES1   0.0000
    53 C34      4.7094  18.1164  13.9131   C.ar      1 RES1   0.0000
    54 H11      5.3935  18.6950  14.2290   H         1 RES1   0.0000
    55 C35      2.4620  17.2821  14.0580   C.ar      1 RES1   0.0000
    56 H12      1.6004  17.2965  14.4579   H         1 RES1   0.0000
    57 C36      3.4460  18.1726  14.5017   C.ar      1 RES1   0.0000
    58 C37      6.3729  17.1926  12.2527   C.3       1 RES1   0.0000
    59 H13      6.4138  16.4746  11.5871   H         1 RES1   0.0000
    60 H14      7.0393  17.0282  12.9521   H         1 RES1   0.0000
    61 H15      6.5597  18.0514  11.8189   H         1 RES1   0.0000
    62 C38      3.1367  19.1625  15.5995   C.3       1 RES1   0.0000
    63 H16      3.9674  19.5861  15.9008   H         1 RES1   0.0000
    64 H17      2.7167  18.6953  16.3516   H         1 RES1   0.0000
    65 H18      2.5254  19.8482  15.2583   H         1 RES1   0.0000
    66 C39      5.3841  15.8146  16.9728   C.3       1 RES1   0.0000
    67 H19      5.1719  15.3072  17.7839   H         1 RES1   0.0000
    68 H20      4.8220  16.6164  16.9326   H         1 RES1   0.0000
    69 H21      6.3279  16.0779  16.9898   H         1 RES1   0.0000
    70 C40      7.4558  13.5788  13.2716   C.3       1 RES1   0.0000
    71 H22      7.6381  14.1859  12.5242   H         1 RES1   0.0000
    72 H23      7.4120  12.6574  12.9409   H         1 RES1   0.0000
    73 H24      8.1726  13.6539  13.9357   H         1 RES1   0.0000
    74 C41      2.3504  15.2642  17.3367   C.3       1 RES1   0.0000
    75 H25      1.3990  15.2133  17.5663   H         1 RES1   0.0000
    76 H26      2.6303  16.2031  17.3107   H         1 RES1   0.0000
    77 H27      2.8754  14.7854  18.0116   H         1 RES1   0.0000
    78 C42      5.5017  12.6997  10.9962   C.3       1 RES1   0.0000
    79 H28      5.0065  12.5521  10.1634   H         1 RES1   0.0000
    80 H29      5.9949  11.8862  11.2314   H         1 RES1   0.0000
    81 H30      6.1321  13.4402  10.8745   H         1 RES1   0.0000
    82 C43     -2.8585  16.2870  14.9390   C.3       1 RES1   0.0000
    83 H31     -2.7276  17.1300  15.4216   H         1 RES1   0.0000
    84 H32     -3.7935  16.0052  15.0216   H         1 RES1   0.0000
    85 H33     -2.6380  16.4147  13.9928   H         1 RES1   0.0000
    86 C44     -2.1152  12.3592  18.0358   C.3       1 RES1   0.0000
    87 H34     -2.7900  12.7996  18.5935   H         1 RES1   0.0000
    88 H35     -1.3773  12.0476  18.6005   H         1 RES1   0.0000
    89 H36     -2.5201  11.5942  17.5760   H         1 RES1   0.0000
    90 C45      0.3317  16.9195  11.5106   C.3       1 RES1   0.0000
    91 H37     -0.4166  17.3119  12.0072   H         1 RES1   0.0000
    92 H38      0.0833  16.8233  10.5676   H         1 RES1   0.0000
    93 H39      1.1149  17.5039  11.5844   H         1 RES1   0.0000
    94 C46     -2.1888  15.2792  10.6549   C.3       1 RES1   0.0000
    95 H40     -3.0335  14.9081  10.3247   H         1 RES1   0.0000
    96 H41     -1.6489  15.5874   9.8974   H         1 RES1   0.0000
    97 H42     -2.3746  16.0337  11.2521   H         1 RES1   0.0000
    98 C47     -2.3807  10.7673  12.2404   C.3       1 RES1   0.0000
    99 H43     -3.2483  10.9517  11.8238   H         1 RES1   0.0000
   100 H44     -2.5132  10.5428  13.1852   H         1 RES1   0.0000
   101 H45     -1.9521  10.0140  11.7829   H         1 RES1   0.0000
   102 C48      0.0486  13.0282   8.1534   C.3       1 RES1   0.0000
   103 H46     -0.1991  13.8706   8.5885   H         1 RES1   0.0000
   104 H47     -0.7546  12.4849   8.0120   H         1 RES1   0.0000
   105 H48      0.4704  13.2185   7.2894   H         1 RES1   0.0000
   106 C49      2.2418   8.6946   9.5164   C.3       1 RES1   0.0000
   107 H49      3.1877   8.4930   9.3582   H         1 RES1   0.0000
   108 H50      1.7107   8.3917   8.7505   H         1 RES1   0.0000
   109 H51      1.9402   8.2323  10.3262   H         1 RES1   0.0000
   110 C50      0.2375   9.6605  13.4180   C.3       1 RES1   0.0000
   111 H52      1.0193   9.1524  13.7199   H         1 RES1   0.0000
   112 H53     -0.0140   9.3682  12.5170   H         1 RES1   0.0000
   113 H54     -0.5101   9.5053  14.0323   H         1 RES1   0.0000
   114 C51      2.1481   8.8519  17.9863   C.3       1 RES1   0.0000
   115 H55      1.3502   9.3537  18.2545   H         1 RES1   0.0000
   116 H56      2.8040   8.8679  18.7143   H         1 RES1   0.0000
   117 H57      1.9001   7.9243  17.7904   H         1 RES1   0.0000
   118 C52      6.1068   9.5689  14.9475   C.3       1 RES1   0.0000
   119 H58      6.6229   9.4822  15.7760   H         1 RES1   0.0000
   120 H59      6.4533  10.3214  14.4240   H         1 RES1   0.0000
   121 H60      6.1863   8.7435  14.4252   H         1 RES1   0.0000
@<TRIPOS>BOND
     1     1     2    1
     2     2    10   ar
     3     3     1    1
     4     4     1    1
     5     5    11   ar
     6     6     1    1
     7     7     1    1
     8     8     1    1
     9     9    17   ar
    10    10    11   ar
    11    11    66    1
    12    12     5   ar
    13    13     2   ar
    14    14     3    2
    15    15     8    2
    16    16     7   ar
    17    17    16   ar
    18    18     9   ar
    19    19     7   ar
    20    20     6    1
    21    21     4    1
    22    22     3    1
    23    23    22   ar
    24    24    23    1
    25    25    23   ar
    26    26    25   ar
    27    27    26    1
    28    28    26   ar
    29    29    22   ar
    30    30    29    1
    31    31     4    1
    32    32    31   ar
    33    33    32    1
    34    34    32   ar
    35    35    34   ar
    36    36    35    1
    37    37    35   ar
    38    38    31   ar
    39    39    38    1
    40    40     8    1
    41    41    40   ar
    42    42    41    1
    43    43    41   ar
    44    44    43   ar
    45    45    44    1
    46    46    44   ar
    47    47    40   ar
    48    48    47    1
    49    49     6    1
    50    50    49   ar
    51    51    50    1
    52    52    50   ar
    53    53    52   ar
    54    54    53    1
    55    55    49   ar
    56    56    55    1
    57    57    53   ar
    58    58    52    1
    59    59    58    1
    60    60    58    1
    61    61    58    1
    62    62    57    1
    63    63    62    1
    64    64    62    1
    65    65    62    1
    66    66    67    1
    67    68    66    1
    68    69    66    1
    69    70    12    1
    70    71    70    1
    71    72    70    1
    72    73    70    1
    73    74    21    1
    74    75    74    1
    75    76    74    1
    76    77    74    1
    77    78    14    1
    78    79    78    1
    79    80    78    1
    80    81    78    1
    81    82    34    1
    82    83    82    1
    83    84    82    1
    84    85    82    1
    85    86    37    1
    86    87    86    1
    87    88    86    1
    88    89    86    1
    89    90    20    1
    90    91    90    1
    91    92    90    1
    92    93    90    1
    93    94    18    1
    94    95    94    1
    95    96    94    1
    96    97    94    1
    97    98    17    1
    98    99    98    1
    99   100    98    1
   100   101    98    1
   101   102    28    1
   102   103   102    1
   103   104   102    1
   104   105   102    1
   105   106    25    1
   106   107   106    1
   107   108   106    1
   108   109   106    1
   109   110    15    1
   110   111   110    1
   111   112   110    1
   112   113   110    1
   113   114    43    1
   114   115   114    1
   115   116   114    1
   116   117   114    1
   117   118    46    1
   118   119   118    1
   119   120   118    1
   120   121   118    1
   121    10    21    1
   122    12    13   ar
   123    13    14    1
   124    15    16    1
   125    18    19   ar
   126    19    20    1
   127    28    29   ar
   128    37    38   ar
   129    46    47   ar
   130    55    57   ar
@<TRIPOS>SUBSTRUCTURE
     1 RES1        1 GROUP             0 ****  ****    0  
@<TRIPOS>CRYSIN
   12.1273   21.0570   17.6570   90.0000   95.8710   90.0000    14     1
