@<TRIPOS>MOLECULE
JAJGAG
   167   176     1     0     0
SMALL
NO_CHARGES
****
Generated from the CSD

@<TRIPOS>ATOM
     1 Fe1      3.9964   6.0640   4.1532   Fe        1 RES1   0.0000
     2 O1       5.3828   7.4252   4.2781   O.3       1 RES1   0.0000
     3 O2       3.8458   2.5449   4.7699   O.3       1 RES1   0.0000
     4 O3       5.2381   4.8085   4.9991   O.3       1 RES1   0.0000
     5 O4       3.6061   9.4983   3.7259   O.3       1 RES1   0.0000
     6 N1       3.3809   6.8714   5.7309   N.2       1 RES1   0.0000
     7 N2       2.4504   4.8907   4.4862   N.2       1 RES1   0.0000
     8 N3       4.6207   5.2635   2.5775   N.2       1 RES1   0.0000
     9 N4       2.8400   7.0040   2.8777   N.2       1 RES1   0.0000
    10 C1       2.1328   6.5400   6.1195   C.2       1 RES1   0.0000
    11 C2       1.3020   7.1737   7.0828   C.2       1 RES1   0.0000
    12 H1       1.5980   7.9332   7.5305   H         1 RES1   0.0000
    13 C3       0.0662   6.6581   7.3454   C.2       1 RES1   0.0000
    14 H2      -0.4769   7.0768   7.9736   H         1 RES1   0.0000
    15 C4      -0.4092   5.4966   6.6812   C.2       1 RES1   0.0000
    16 H3      -1.2381   5.1448   6.9138   H         1 RES1   0.0000
    17 C5       0.3232   4.8907   5.7142   C.2       1 RES1   0.0000
    18 H4      -0.0130   4.1456   5.2708   H         1 RES1   0.0000
    19 C6       1.6161   5.4041   5.3797   C.2       1 RES1   0.0000
    20 C7       4.3073   7.7052   6.3419   C.ar      1 RES1   0.0000
    21 C8       5.4333   7.9309   5.5013   C.ar      1 RES1   0.0000
    22 C9       6.5136   8.7246   5.9788   C.ar      1 RES1   0.0000
    23 C10      6.3840   9.2535   7.2534   C.ar      1 RES1   0.0000
    24 H5       7.0772   9.7841   7.5741   H         1 RES1   0.0000
    25 C11      5.2701   9.0423   8.1010   C.ar      1 RES1   0.0000
    26 C12      4.2465   8.2488   7.6344   C.ar      1 RES1   0.0000
    27 H6       3.5123   8.0724   8.1774   H         1 RES1   0.0000
    28 C13      2.1067   3.7691   3.6793   C.ar      1 RES1   0.0000
    29 C14      2.8826   2.6171   3.8095   C.ar      1 RES1   0.0000
    30 C15      2.6666   1.5122   2.9706   C.ar      1 RES1   0.0000
    31 C16      1.6301   1.6147   2.0470   C.ar      1 RES1   0.0000
    32 H7       1.4638   0.8855   1.4943   H         1 RES1   0.0000
    33 C17      0.8250   2.7454   1.9006   C.ar      1 RES1   0.0000
    34 C18      1.0834   3.8257   2.7285   C.ar      1 RES1   0.0000
    35 H8       0.5703   4.5974   2.6508   H         1 RES1   0.0000
    36 C19      7.7341   8.9966   5.0904   C.3       1 RES1   0.0000
    37 C20      7.2880   9.7393   3.8251   C.3       1 RES1   0.0000
    38 H9       6.6990   9.1781   3.3154   H         1 RES1   0.0000
    39 H10      8.0577   9.9599   3.2954   H         1 RES1   0.0000
    40 H11      6.8281  10.5449   4.0722   H         1 RES1   0.0000
    41 C21      8.7786   9.8747   5.7980   C.3       1 RES1   0.0000
    42 H12      8.3928  10.7299   6.0013   H         1 RES1   0.0000
    43 H13      9.5380   9.9947   5.2232   H         1 RES1   0.0000
    44 H14      9.0573   9.4478   6.6115   H         1 RES1   0.0000
    45 C22      8.4208   7.6777   4.6919   C.3       1 RES1   0.0000
    46 H15      8.7845   7.2571   5.4744   H         1 RES1   0.0000
    47 H16      9.1280   7.8607   4.0690   H         1 RES1   0.0000
    48 H17      7.7781   7.0930   4.2837   H         1 RES1   0.0000
    49 C23      5.2283   9.7031   9.4811   C.3       1 RES1   0.0000
    50 C24      5.4510  11.2137   9.3198   C.3       1 RES1   0.0000
    51 H18      6.3279  11.3716   8.9623   H         1 RES1   0.0000
    52 H19      5.3725  11.6419  10.1755   H         1 RES1   0.0000
    53 H20      4.7920  11.5723   8.7210   H         1 RES1   0.0000
    54 C25      3.8792   9.5522  10.1685   C.3       1 RES1   0.0000
    55 H21      3.1865   9.8770   9.5886   H         1 RES1   0.0000
    56 H22      3.8772  10.0586  10.9842   H         1 RES1   0.0000
    57 H23      3.7227   8.6260  10.3665   H         1 RES1   0.0000
    58 C26      6.3083   9.1275  10.3667   C.3       1 RES1   0.0000
    59 H24      6.1348   8.1954  10.5191   H         1 RES1   0.0000
    60 H25      6.3162   9.5927  11.2063   H         1 RES1   0.0000
    61 H26      7.1616   9.2275   9.9376   H         1 RES1   0.0000
    62 C27      3.5782   0.2755   3.0493   C.3       1 RES1   0.0000
    63 C28      5.0267   0.6896   2.7280   C.3       1 RES1   0.0000
    64 H27      5.0567   1.1033   1.8623   H         1 RES1   0.0000
    65 H28      5.5899  -0.0879   2.7308   H         1 RES1   0.0000
    66 H29      5.3363   1.3113   3.3908   H         1 RES1   0.0000
    67 C29      3.4949  -0.3723   4.4451   C.3       1 RES1   0.0000
    68 H30      3.7854   0.2580   5.1083   H         1 RES1   0.0000
    69 H31      4.0597  -1.1482   4.4719   H         1 RES1   0.0000
    70 H32      2.5879  -0.6305   4.6244   H         1 RES1   0.0000
    71 C30      3.1782  -0.7799   2.0133   C.3       1 RES1   0.0000
    72 H33      2.2853  -1.0830   2.1934   H         1 RES1   0.0000
    73 H34      3.7844  -1.5228   2.0628   H         1 RES1   0.0000
    74 H35      3.2145  -0.3955   1.1343   H         1 RES1   0.0000
    75 C31     -0.2981   2.7488   0.8514   C.3       1 RES1   0.0000
    76 C32      0.2932   2.4315  -0.5305   C.3       1 RES1   0.0000
    77 H36      0.9531   3.0916  -0.7554   H         1 RES1   0.0000
    78 H37     -0.4063   2.4415  -1.1879   H         1 RES1   0.0000
    79 H38      0.7025   1.5634  -0.5119   H         1 RES1   0.0000
    80 C33     -1.3357   1.6898   1.2274   C.3       1 RES1   0.0000
    81 H39     -0.9165   0.8267   1.2552   H         1 RES1   0.0000
    82 H40     -2.0381   1.6835   0.5728   H         1 RES1   0.0000
    83 H41     -1.7041   1.8947   2.0899   H         1 RES1   0.0000
    84 C34     -1.0021   4.1035   0.7687   C.3       1 RES1   0.0000
    85 H42     -1.4304   4.2932   1.6067   H         1 RES1   0.0000
    86 H43     -1.6607   4.0797   0.0708   H         1 RES1   0.0000
    87 H44     -0.3570   4.7881   0.5769   H         1 RES1   0.0000
    88 C35      3.8699   5.4319   1.4744   C.2       1 RES1   0.0000
    89 C36      3.9255   4.7223   0.2477   C.2       1 RES1   0.0000
    90 H45      4.5297   4.0238   0.1388   H         1 RES1   0.0000
    91 C37      3.0876   5.0700  -0.7724   C.2       1 RES1   0.0000
    92 H46      3.1196   4.5979  -1.5730   H         1 RES1   0.0000
    93 C38      2.1650   6.1450  -0.6284   C.2       1 RES1   0.0000
    94 H47      1.6467   6.4017  -1.3567   H         1 RES1   0.0000
    95 C39      2.0267   6.8053   0.5566   C.2       1 RES1   0.0000
    96 H48      1.3971   7.4843   0.6436   H         1 RES1   0.0000
    97 C40      2.8559   6.4469   1.6636   C.2       1 RES1   0.0000
    98 C41      5.8116   4.5594   2.7340   C.ar      1 RES1   0.0000
    99 C42      6.1356   4.3882   4.1058   C.ar      1 RES1   0.0000
   100 C43      7.3399   3.7272   4.4572   C.ar      1 RES1   0.0000
   101 C44      8.1309   3.2761   3.4083   C.ar      1 RES1   0.0000
   102 H49      8.9177   2.8295   3.6238   H         1 RES1   0.0000
   103 C45      7.8295   3.4448   2.0398   C.ar      1 RES1   0.0000
   104 C46      6.6667   4.1117   1.7140   C.ar      1 RES1   0.0000
   105 H50      6.4499   4.2642   0.8226   H         1 RES1   0.0000
   106 C47      1.8451   7.9534   3.2497   C.ar      1 RES1   0.0000
   107 C48      2.2786   9.1886   3.7346   C.ar      1 RES1   0.0000
   108 C49      1.3522  10.1266   4.2206   C.ar      1 RES1   0.0000
   109 C50      0.0055   9.7720   4.1639   C.ar      1 RES1   0.0000
   110 H51     -0.6199  10.3870   4.4731   H         1 RES1   0.0000
   111 C51     -0.4649   8.5535   3.6732   C.ar      1 RES1   0.0000
   112 C52      0.4798   7.6430   3.2188   C.ar      1 RES1   0.0000
   113 H52      0.2029   6.8181   2.8903   H         1 RES1   0.0000
   114 C53      7.7012   3.4276   5.9239   C.3       1 RES1   0.0000
   115 C54      6.7843   2.3115   6.4336   C.3       1 RES1   0.0000
   116 H53      5.8742   2.6169   6.4265   H         1 RES1   0.0000
   117 H54      7.0355   2.0751   7.3295   H         1 RES1   0.0000
   118 H55      6.8686   1.5432   5.8643   H         1 RES1   0.0000
   119 C55      9.1446   2.9385   6.0613   C.3       1 RES1   0.0000
   120 H56      9.2426   2.0993   5.6061   H         1 RES1   0.0000
   121 H57      9.3569   2.8257   6.9906   H         1 RES1   0.0000
   122 H58      9.7393   3.5848   5.6734   H         1 RES1   0.0000
   123 C56      7.5436   4.6551   6.8223   C.3       1 RES1   0.0000
   124 H59      8.1726   5.3295   6.5557   H         1 RES1   0.0000
   125 H60      7.7078   4.4071   7.7349   H         1 RES1   0.0000
   126 H61      6.6512   4.9995   6.7398   H         1 RES1   0.0000
   127 C57      8.7851   2.8912   0.9763   C.3       1 RES1   0.0000
   128 C58      8.9809   1.3878   1.2127   C.3       1 RES1   0.0000
   129 H62      9.3985   1.2493   2.0665   H         1 RES1   0.0000
   130 H63      9.5407   1.0249   0.5215   H         1 RES1   0.0000
   131 H64      8.1287   0.9468   1.1982   H         1 RES1   0.0000
   132 C59      8.2451   3.0784  -0.4400   C.3       1 RES1   0.0000
   133 H65      7.3931   2.6429  -0.5177   H         1 RES1   0.0000
   134 H66      8.8593   2.6944  -1.0700   H         1 RES1   0.0000
   135 H67      8.1435   4.0153  -0.6225   H         1 RES1   0.0000
   136 C60     10.1332   3.6104   1.0827   C.3       1 RES1   0.0000
   137 H68     10.0090   4.5485   0.9247   H         1 RES1   0.0000
   138 H69     10.7387   3.2527   0.4286   H         1 RES1   0.0000
   139 H70     10.4975   3.4785   1.9611   H         1 RES1   0.0000
   140 C61      1.8124  11.4679   4.8130   C.3       1 RES1   0.0000
   141 C62      0.6292  12.3004   5.3277   C.3       1 RES1   0.0000
   142 H71      0.0408  12.5058   4.5974   H         1 RES1   0.0000
   143 H72      0.9562  13.1162   5.7141   H         1 RES1   0.0000
   144 H73      0.1513  11.8001   5.9929   H         1 RES1   0.0000
   145 C63      2.7339  11.2125   6.0222   C.3       1 RES1   0.0000
   146 H74      2.2609  10.7005   6.6823   H         1 RES1   0.0000
   147 H75      3.0041  12.0519   6.4015   H         1 RES1   0.0000
   148 H76      3.5102  10.7260   5.7358   H         1 RES1   0.0000
   149 C64      2.5505  12.2866   3.7416   C.3       1 RES1   0.0000
   150 H77      3.3067  11.7887   3.4229   H         1 RES1   0.0000
   151 H78      2.8503  13.1153   4.1224   H         1 RES1   0.0000
   152 H79      1.9551  12.4673   3.0105   H         1 RES1   0.0000
   153 C65     -1.9744   8.2522   3.6834   C.3       1 RES1   0.0000
   154 C66     -2.4990   8.3256   5.1254   C.3       1 RES1   0.0000
   155 H80     -2.0377   7.6809   5.6668   H         1 RES1   0.0000
   156 H81     -3.4399   8.1359   5.1336   H         1 RES1   0.0000
   157 H82     -2.3469   9.2059   5.4767   H         1 RES1   0.0000
   158 C67     -2.7130   9.2888   2.8326   C.3       1 RES1   0.0000
   159 H83     -2.5514  10.1667   3.1860   H         1 RES1   0.0000
   160 H84     -3.6551   9.1051   2.8508   H         1 RES1   0.0000
   161 H85     -2.3958   9.2448   1.9276   H         1 RES1   0.0000
   162 C68     -2.2894   6.8628   3.1372   C.3       1 RES1   0.0000
   163 H86     -1.9964   6.8035   2.2250   H         1 RES1   0.0000
   164 H87     -3.2362   6.7093   3.1799   H         1 RES1   0.0000
   165 H88     -1.8340   6.2013   3.6633   H         1 RES1   0.0000
   166 H89      4.1470   3.3590   4.9762   H         1 RES1   0.0000
   167 H90      4.0802   8.7827   3.6542   H         1 RES1   0.0000
@<TRIPOS>BOND
     1     1     2    1
     2     2    21    1
     3     3    29    1
     4     4     1    1
     5     5   107    1
     6     6     1    1
     7     7     1    1
     8     8     1    1
     9     9     1    1
    10    10     6    1
    11    11    10    1
    12    12    11    1
    13    13    11    2
    14    14    13    1
    15    15    13    1
    16    16    15    1
    17    17    15    2
    18    18    17    1
    19    19     7    2
    20    20     6    1
    21    21    20   ar
    22    22    21   ar
    23    23    22   ar
    24    24    23    1
    25    25    23   ar
    26    26    20   ar
    27    27    26    1
    28    28     7    1
    29    29    28   ar
    30    30    29   ar
    31    31    30   ar
    32    32    31    1
    33    33    31   ar
    34    34    28   ar
    35    35    34    1
    36    36    22    1
    37    37    36    1
    38    38    37    1
    39    39    37    1
    40    40    37    1
    41    41    36    1
    42    42    41    1
    43    43    41    1
    44    44    41    1
    45    45    36    1
    46    46    45    1
    47    47    45    1
    48    48    45    1
    49    49    25    1
    50    50    49    1
    51    51    50    1
    52    52    50    1
    53    53    50    1
    54    54    49    1
    55    55    54    1
    56    56    54    1
    57    57    54    1
    58    58    49    1
    59    59    58    1
    60    60    58    1
    61    61    58    1
    62    62    30    1
    63    63    62    1
    64    64    63    1
    65    65    63    1
    66    66    63    1
    67    67    62    1
    68    68    67    1
    69    69    67    1
    70    70    67    1
    71    71    62    1
    72    72    71    1
    73    73    71    1
    74    74    71    1
    75    75    33    1
    76    76    75    1
    77    77    76    1
    78    78    76    1
    79    79    76    1
    80    80    75    1
    81    81    80    1
    82    82    80    1
    83    83    80    1
    84    84    75    1
    85    85    84    1
    86    86    84    1
    87    87    84    1
    88    88     8    2
    89    89    88    1
    90    90    89    1
    91    91    89    2
    92    92    91    1
    93    93    91    1
    94    94    93    1
    95    95    93    2
    96    96    95    1
    97    97     9    2
    98    98     8    1
    99    99     4    1
   100   100    99   ar
   101   101   100   ar
   102   102   101    1
   103   103   101   ar
   104   104    98   ar
   105   105   104    1
   106   106     9    1
   107   107   106   ar
   108   108   107   ar
   109   109   108   ar
   110   110   109    1
   111   111   109   ar
   112   112   106   ar
   113   113   112    1
   114   114   100    1
   115   115   114    1
   116   116   115    1
   117   117   115    1
   118   118   115    1
   119   119   114    1
   120   120   119    1
   121   121   119    1
   122   122   119    1
   123   123   114    1
   124   124   123    1
   125   125   123    1
   126   126   123    1
   127   127   103    1
   128   128   127    1
   129   129   128    1
   130   130   128    1
   131   131   128    1
   132   132   127    1
   133   133   132    1
   134   134   132    1
   135   135   132    1
   136   136   127    1
   137   137   136    1
   138   138   136    1
   139   139   136    1
   140   140   108    1
   141   141   140    1
   142   142   141    1
   143   143   141    1
   144   144   141    1
   145   145   140    1
   146   146   145    1
   147   147   145    1
   148   148   145    1
   149   149   140    1
   150   150   149    1
   151   151   149    1
   152   152   149    1
   153   153   111    1
   154   154   153    1
   155   155   154    1
   156   156   154    1
   157   157   154    1
   158   158   153    1
   159   159   158    1
   160   160   158    1
   161   161   158    1
   162   162   153    1
   163   163   162    1
   164   164   162    1
   165   165   162    1
   166   166     3    1
   167   167     5    1
   168    10    19    1
   169    17    19    1
   170    25    26   ar
   171    33    34   ar
   172    88    97    1
   173    95    97    1
   174    98    99   ar
   175   103   104   ar
   176   111   112   ar
@<TRIPOS>SUBSTRUCTURE
     1 RES1        1 GROUP             0 ****  ****    0  
@<TRIPOS>CRYSIN
   15.0168   15.4772   16.4464   94.1070  107.1950  115.6630     2     1
