@<TRIPOS>MOLECULE
JAMYOO
   123   134     2     0     0
SMALL
USER_CHARGES
****
Generated from the CSD

@<TRIPOS>ATOM
     1 Fe1    -11.5688   4.9982  20.8196   Fe        1 RES1   1.0000
     2 O1     -11.2208   6.6073  19.6609   O.co2     1 RES1   0.0000
     3 O2     -10.1901   7.5427  17.9243   O.co2     1 RES1   0.0000
     4 O3     -10.7076   4.2091  18.9391   O.3       1 RES1   0.0000
     5 H1     -10.6514   3.3710  18.6239   H         1 RES1   0.0000
     6 N1     -11.7469   2.9829  21.6295   N.3       1 RES1   0.0000
     7 N2     -13.6229   4.4323  20.2534   N.ar      1 RES1   0.0000
     8 N3     -12.0496   5.4901  22.9786   N.ar      1 RES1   0.0000
     9 N4      -9.5343   4.6499  21.6904   N.ar      1 RES1   0.0000
    10 C1     -12.6893   2.2424  20.7575   C.3       1 RES1   0.0000
    11 H2     -13.0238   1.4672  21.2351   H         1 RES1   0.0000
    12 H3     -12.2174   1.9288  19.9693   H         1 RES1   0.0000
    13 C2     -13.8499   3.1026  20.3314   C.ar      1 RES1   0.0000
    14 C3     -15.0642   2.5305  19.9812   C.ar      1 RES1   0.0000
    15 H4     -15.1981   1.6147  20.0708   H         1 RES1   0.0000
    16 C4     -16.0741   3.3428  19.4969   C.ar      1 RES1   0.0000
    17 H5     -16.8898   2.9795  19.2350   H         1 RES1   0.0000
    18 C5     -15.8496   4.7015  19.4101   C.ar      1 RES1   0.0000
    19 H6     -16.5146   5.2642  19.0852   H         1 RES1   0.0000
    20 C6     -14.6257   5.2283  19.8085   C.ar      1 RES1   0.0000
    21 C7     -14.3656   6.7016  19.7703   C.3       1 RES1   0.0000
    22 H7     -13.6721   6.8872  19.1336   H         1 RES1   0.0000
    23 H8     -14.0908   7.0002  20.6409   H         1 RES1   0.0000
    24 H9     -15.1672   7.1621  19.5128   H         1 RES1   0.0000
    25 C8     -12.2934   3.0931  23.0040   C.3       1 RES1   0.0000
    26 H10    -11.9939   2.3322  23.5250   H         1 RES1   0.0000
    27 H11    -13.2610   3.0628  22.9622   H         1 RES1   0.0000
    28 C9     -11.8705   4.3598  23.6963   C.ar      1 RES1   0.0000
    29 C10    -11.3864   4.3633  24.9893   C.ar      1 RES1   0.0000
    30 H12    -11.2425   3.5662  25.4454   H         1 RES1   0.0000
    31 C11    -11.1208   5.5812  25.5918   C.ar      1 RES1   0.0000
    32 H13    -10.7654   5.6140  26.4502   H         1 RES1   0.0000
    33 C12    -11.3874   6.7382  24.9070   C.ar      1 RES1   0.0000
    34 H14    -11.2607   7.5631  25.3174   H         1 RES1   0.0000
    35 C13    -11.8498   6.6728  23.5895   C.ar      1 RES1   0.0000
    36 C14    -12.1554   7.9081  22.8122   C.3       1 RES1   0.0000
    37 H15    -13.1068   8.0378  22.7786   H         1 RES1   0.0000
    38 H16    -11.8122   7.8177  21.9187   H         1 RES1   0.0000
    39 H17    -11.7441   8.6637  23.2376   H         1 RES1   0.0000
    40 C15    -10.4017   2.3620  21.6201   C.3       1 RES1   0.0000
    41 H18    -10.2515   1.9526  20.7544   H         1 RES1   0.0000
    42 H19    -10.3754   1.6587  22.2883   H         1 RES1   0.0000
    43 C16     -9.2903   3.3406  21.8979   C.ar      1 RES1   0.0000
    44 C17     -8.0511   2.8547  22.2670   C.ar      1 RES1   0.0000
    45 H20     -7.9227   1.9467  22.4187   H         1 RES1   0.0000
    46 C18     -7.0060   3.7468  22.4049   C.ar      1 RES1   0.0000
    47 H21     -6.1514   3.4460  22.6168   H         1 RES1   0.0000
    48 C19     -7.2498   5.0841  22.2230   C.ar      1 RES1   0.0000
    49 H22     -6.5581   5.6973  22.3269   H         1 RES1   0.0000
    50 C20     -8.5196   5.5308  21.8837   C.ar      1 RES1   0.0000
    51 C21     -8.8014   6.9900  21.7455   C.3       1 RES1   0.0000
    52 H23     -9.0805   7.3441  22.5926   H         1 RES1   0.0000
    53 H24     -9.4986   7.1216  21.0998   H         1 RES1   0.0000
    54 H25     -8.0055   7.4429  21.4549   H         1 RES1   0.0000
    55 C22     -9.9976   5.1754  18.1415   C.3       1 RES1   0.0000
    56 C23    -10.5103   6.5638  18.6096   C.2       1 RES1   0.0000
    57 C24     -8.4826   5.0533  18.4016   C.ar      1 RES1   0.0000
    58 C25     -7.9282   3.7818  18.5449   C.ar      1 RES1   0.0000
    59 H26     -8.4687   3.0307  18.4427   H         1 RES1   0.0000
    60 C26     -6.5834   3.6236  18.8393   C.ar      1 RES1   0.0000
    61 H27     -6.2327   2.7689  18.9451   H         1 RES1   0.0000
    62 C27     -5.7571   4.7236  18.9777   C.ar      1 RES1   0.0000
    63 H28     -4.8576   4.6133  19.1843   H         1 RES1   0.0000
    64 C28     -6.2858   5.9856  18.8070   C.ar      1 RES1   0.0000
    65 H29     -5.7335   6.7301  18.8775   H         1 RES1   0.0000
    66 C29     -7.6384   6.1531  18.5304   C.ar      1 RES1   0.0000
    67 H30     -7.9846   7.0109  18.4306   H         1 RES1   0.0000
    68 C30    -10.4103   4.9960  16.6830   C.ar      1 RES1   0.0000
    69 C31     -9.5018   4.9783  15.6421   C.ar      1 RES1   0.0000
    70 H31     -8.5898   5.0274  15.8194   H         1 RES1   0.0000
    71 C32     -9.9529   4.8878  14.3293   C.ar      1 RES1   0.0000
    72 H32     -9.3375   4.8965  13.6334   H         1 RES1   0.0000
    73 C33    -11.3002   4.7855  14.0450   C.ar      1 RES1   0.0000
    74 H33    -11.5911   4.7144  13.1647   H         1 RES1   0.0000
    75 C34    -12.2159   4.7899  15.0846   C.ar      1 RES1   0.0000
    76 H34    -13.1244   4.7180  14.9039   H         1 RES1   0.0000
    77 C35    -11.7743   4.9016  16.3919   C.ar      1 RES1   0.0000
    78 H35    -12.3938   4.9143  17.0852   H         1 RES1   0.0000
    79 C36     -3.3721   5.8341  14.5230   C.ar      2 RES2   0.0000
    80 C37     -4.1085   6.5916  13.6007   C.ar      2 RES2   0.0000
    81 H36     -3.6916   7.3025  13.1696   H         2 RES2   0.0000
    82 C38     -5.4427   6.3193  13.3073   C.ar      2 RES2   0.0000
    83 H37     -5.8898   6.8396  12.6792   H         2 RES2   0.0000
    84 C39     -6.1077   5.2867  13.9351   C.ar      2 RES2   0.0000
    85 H38     -7.0041   5.1190  13.7493   H         2 RES2   0.0000
    86 C40     -5.4195   4.5043  14.8455   C.ar      2 RES2   0.0000
    87 H39     -5.8521   3.8077  15.2832   H         2 RES2   0.0000
    88 C41     -4.0786   4.7655  15.1020   C.ar      2 RES2   0.0000
    89 H40     -3.6244   4.2040  15.6866   H         2 RES2   0.0000
    90 C42     -1.7791   6.7397  16.5098   C.ar      2 RES2   0.0000
    91 C43     -0.8812   7.7372  16.9185   C.ar      2 RES2   0.0000
    92 H41     -0.2823   8.0807  16.2953   H         2 RES2   0.0000
    93 C44     -0.8488   8.2331  18.2144   C.ar      2 RES2   0.0000
    94 H42     -0.2428   8.9041  18.4330   H         2 RES2   0.0000
    95 C45     -1.7063   7.7424  19.1840   C.ar      2 RES2   0.0000
    96 H43     -1.6960   8.0842  20.0490   H         2 RES2   0.0000
    97 C46     -2.5762   6.7310  18.8316   C.ar      2 RES2   0.0000
    98 H44     -3.1437   6.3672  19.4717   H         2 RES2   0.0000
    99 C47     -2.6093   6.2536  17.5291   C.ar      2 RES2   0.0000
   100 H45     -3.2128   5.5771  17.3219   H         2 RES2   0.0000
   101 C48     -1.1514   7.2569  13.9389   C.ar      2 RES2   0.0000
   102 C49     -0.1696   6.9471  12.9872   C.ar      2 RES2   0.0000
   103 H46      0.1399   6.0709  12.9328   H         2 RES2   0.0000
   104 C50      0.3635   7.8948  12.1183   C.ar      2 RES2   0.0000
   105 H47      1.0131   7.6452  11.5004   H         2 RES2   0.0000
   106 C51     -0.0683   9.1998  12.1707   C.ar      2 RES2   0.0000
   107 H48      0.2864   9.8358  11.5922   H         2 RES2   0.0000
   108 C52     -1.0383   9.5565  13.0966   C.ar      2 RES2   0.0000
   109 H49     -1.3384  10.4355  13.1430   H         2 RES2   0.0000
   110 C53     -1.5607   8.5991  13.9534   C.ar      2 RES2   0.0000
   111 H50     -2.2111   8.8589  14.5658   H         2 RES2   0.0000
   112 C54     -0.9494   4.7499  14.9049   C.ar      2 RES2   0.0000
   113 C55      0.1213   4.4932  15.7714   C.ar      2 RES2   0.0000
   114 H51      0.3529   5.1392  16.3992   H         2 RES2   0.0000
   115 C56      0.8503   3.3131  15.7308   C.ar      2 RES2   0.0000
   116 H52      1.5538   3.1818  16.3243   H         2 RES2   0.0000
   117 C57      0.5336   2.3340  14.8121   C.ar      2 RES2   0.0000
   118 H53      1.0072   1.5338  14.7952   H         2 RES2   0.0000
   119 C58     -0.4949   2.5562  13.9196   C.ar      2 RES2   0.0000
   120 H54     -0.7070   1.9098  13.2855   H         2 RES2   0.0000
   121 C59     -1.2150   3.7446  13.9660   C.ar      2 RES2   0.0000
   122 H55     -1.8991   3.8767  13.3507   H         2 RES2   0.0000
   123 B1      -1.8082   6.1515  14.9597   B         2 RES2  -1.0000
@<TRIPOS>BOND
     1     1     2    1
     2     2    56    1
     3     3    56    2
     4     4     1    1
     5     5     4    1
     6     6     1    1
     7     7     1    1
     8     8     1    1
     9     9     1    1
    10    10     6    1
    11    11    10    1
    12    12    10    1
    13    13     7   ar
    14    14    13   ar
    15    15    14    1
    16    16    14   ar
    17    17    16    1
    18    18    16   ar
    19    19    18    1
    20    20     7   ar
    21    21    20    1
    22    22    21    1
    23    23    21    1
    24    24    21    1
    25    25     6    1
    26    26    25    1
    27    27    25    1
    28    28     8   ar
    29    29    28   ar
    30    30    29    1
    31    31    29   ar
    32    32    31    1
    33    33    31   ar
    34    34    33    1
    35    35     8   ar
    36    36    35    1
    37    37    36    1
    38    38    36    1
    39    39    36    1
    40    40     6    1
    41    41    40    1
    42    42    40    1
    43    43     9   ar
    44    44    43   ar
    45    45    44    1
    46    46    44   ar
    47    47    46    1
    48    48    46   ar
    49    49    48    1
    50    50     9   ar
    51    51    50    1
    52    52    51    1
    53    53    51    1
    54    54    51    1
    55    55     4    1
    56    56    55    1
    57    57    55    1
    58    58    57   ar
    59    59    58    1
    60    60    58   ar
    61    61    60    1
    62    62    60   ar
    63    63    62    1
    64    64    62   ar
    65    65    64    1
    66    66    57   ar
    67    67    66    1
    68    68    55    1
    69    69    68   ar
    70    70    69    1
    71    71    69   ar
    72    72    71    1
    73    73    71   ar
    74    74    73    1
    75    75    73   ar
    76    76    75    1
    77    77    68   ar
    78    78    77    1
    79    10    13    1
    80    18    20   ar
    81    25    28    1
    82    33    35   ar
    83    40    43    1
    84    48    50   ar
    85    64    66   ar
    86    75    77   ar
    87    79    80   ar
    88    80    81    1
    89    82    80   ar
    90    83    82    1
    91    84    82   ar
    92    85    84    1
    93    86    84   ar
    94    87    86    1
    95    88    79   ar
    96    89    88    1
    97    90    91   ar
    98    91    92    1
    99    93    91   ar
   100    94    93    1
   101    95    93   ar
   102    96    95    1
   103    97    95   ar
   104    98    97    1
   105    99    90   ar
   106   100    99    1
   107   101   102   ar
   108   102   103    1
   109   104   102   ar
   110   105   104    1
   111   106   104   ar
   112   107   106    1
   113   108   106   ar
   114   109   108    1
   115   110   101   ar
   116   111   110    1
   117   112   113   ar
   118   113   114    1
   119   115   113   ar
   120   116   115    1
   121   117   115   ar
   122   118   117    1
   123   119   117   ar
   124   120   119    1
   125   121   112   ar
   126   122   121    1
   127   123    79    1
   128    86    88   ar
   129    90   123    1
   130    97    99   ar
   131   101   123    1
   132   108   110   ar
   133   112   123    1
   134   119   121   ar
@<TRIPOS>SUBSTRUCTURE
     1 RES1        1 GROUP             0 ****  ****    0  
     2 RES2       79 GROUP             0 ****  ****    0  
@<TRIPOS>CRYSIN
   16.5701   11.8991   27.7929   90.0000  119.6430   90.0000    14     1
