@<TRIPOS>MOLECULE
JAMZIJ
   131   140     3     0     0
SMALL
USER_CHARGES
****
Generated from the CSD

@<TRIPOS>ATOM
     1 Fe1     13.8383   2.9520   4.0324   Fe        1 RES1   1.0000
     2 O1      13.4314   1.3633   5.3031   O.co2     1 RES1   0.0000
     3 O2      12.3064   0.6515   7.1097   O.co2     1 RES1   0.0000
     4 O3      12.6342   3.7976   5.5085   O.3       1 RES1   0.0000
     5 H1      12.4847   4.7151   5.5196   H         1 RES1   0.0000
     6 N1      12.0936   2.7731   2.7213   N.ar      1 RES1   0.0000
     7 N2      14.6438   1.8942   2.2590   N.3       1 RES1   0.0000
     8 N3      14.6779   4.7015   2.9279   N.3       1 RES1   0.0000
     9 N4      15.7432   3.3416   5.0256   N.ar      1 RES1   0.0000
    10 C1      10.9617   3.4951   2.7472   C.ar      1 RES1   0.0000
    11 H2      10.8137   4.0500   3.4781   H         1 RES1   0.0000
    12 C2      10.0031   3.4622   1.7517   C.ar      1 RES1   0.0000
    13 H3       9.2387   3.9897   1.8046   H         1 RES1   0.0000
    14 C3      10.2151   2.6287   0.6881   C.ar      1 RES1   0.0000
    15 H4       9.5982   2.5958  -0.0076   H         1 RES1   0.0000
    16 C4      11.3497   1.8317   0.6477   C.ar      1 RES1   0.0000
    17 H5      11.4980   1.2507  -0.0630   H         1 RES1   0.0000
    18 C5      12.2571   1.9238   1.6912   C.ar      1 RES1   0.0000
    19 C6      13.5304   1.0904   1.7466   C.3       1 RES1   0.0000
    20 H6      13.3915   0.3218   2.3213   H         1 RES1   0.0000
    21 H7      13.7458   0.7663   0.8569   H         1 RES1   0.0000
    22 C7      15.7979   1.0040   2.5531   C.3       1 RES1   0.0000
    23 H8      16.0040   0.4787   1.7743   H         1 RES1   0.0000
    24 H9      15.5749   0.4207   3.2815   H         1 RES1   0.0000
    25 H10     16.5611   1.5361   2.7901   H         1 RES1   0.0000
    26 C8      15.0326   2.9266   1.2602   C.3       1 RES1   0.0000
    27 H11     14.2485   3.1984   0.7561   H         1 RES1   0.0000
    28 H12     15.6755   2.5514   0.6402   H         1 RES1   0.0000
    29 C9      15.6302   4.1273   1.9382   C.3       1 RES1   0.0000
    30 H13     16.4504   3.8692   2.3893   H         1 RES1   0.0000
    31 H14     15.8523   4.7981   1.2728   H         1 RES1   0.0000
    32 C10     13.6836   5.5633   2.2507   C.3       1 RES1   0.0000
    33 H15     13.2241   5.0528   1.5778   H         1 RES1   0.0000
    34 H16     14.1329   6.3047   1.8348   H         1 RES1   0.0000
    35 H17     13.0510   5.8908   2.8934   H         1 RES1   0.0000
    36 C11     15.4053   5.4781   3.9545   C.3       1 RES1   0.0000
    37 H18     14.7708   5.9386   4.5266   H         1 RES1   0.0000
    38 H19     15.9632   6.1455   3.5260   H         1 RES1   0.0000
    39 C12     16.2655   4.5571   4.7912   C.ar      1 RES1   0.0000
    40 C13     17.5130   4.9232   5.2676   C.ar      1 RES1   0.0000
    41 H20     17.8408   5.7771   5.1012   H         1 RES1   0.0000
    42 C14     18.2667   4.0227   5.9884   C.ar      1 RES1   0.0000
    43 H21     19.1039   4.2603   6.3161   H         1 RES1   0.0000
    44 C15     17.7554   2.7675   6.2127   C.ar      1 RES1   0.0000
    45 H22     18.2466   2.1273   6.6740   H         1 RES1   0.0000
    46 C16     16.4960   2.4798   5.7339   C.ar      1 RES1   0.0000
    47 H23     16.1436   1.6373   5.9103   H         1 RES1   0.0000
    48 C17     12.0405   2.9596   6.5051   C.3       1 RES1   0.0000
    49 C18     12.4060   3.4008   7.8938   C.ar      1 RES1   0.0000
    50 C19     13.5649   4.1523   8.0955   C.ar      1 RES1   0.0000
    51 H24     14.0871   4.4013   7.3671   H         1 RES1   0.0000
    52 C20     13.9415   4.5275   9.3733   C.ar      1 RES1   0.0000
    53 H25     14.6941   5.0619   9.4918   H         1 RES1   0.0000
    54 C21     13.2272   4.1250  10.4571   C.ar      1 RES1   0.0000
    55 H26     13.5102   4.3627  11.3089   H         1 RES1   0.0000
    56 C22     12.0876   3.3689  10.2983   C.ar      1 RES1   0.0000
    57 H27     11.6004   3.0870  11.0393   H         1 RES1   0.0000
    58 C23     11.6775   3.0335   9.0104   C.ar      1 RES1   0.0000
    59 H28     10.8920   2.5492   8.8969   H         1 RES1   0.0000
    60 C24     10.5220   2.9187   6.2379   C.ar      1 RES1   0.0000
    61 C25      9.7534   4.0261   6.6236   C.ar      1 RES1   0.0000
    62 H29     10.1491   4.7311   7.0823   H         1 RES1   0.0000
    63 C26      8.4136   4.0682   6.3186   C.ar      1 RES1   0.0000
    64 H30      7.9088   4.8072   6.5732   H         1 RES1   0.0000
    65 C27      7.8155   3.0381   5.6482   C.ar      1 RES1   0.0000
    66 H31      6.9076   3.0824   5.4516   H         1 RES1   0.0000
    67 C28      8.5450   1.9352   5.2600   C.ar      1 RES1   0.0000
    68 H32      8.1353   1.2336   4.8064   H         1 RES1   0.0000
    69 C29      9.9179   1.8851   5.5549   C.ar      1 RES1   0.0000
    70 H33     10.4217   1.1495   5.2903   H         1 RES1   0.0000
    71 C30     12.6456   1.5338   6.2833   C.2       1 RES1   0.0000
    72 C31      2.6484   1.3041   2.4196   C.ar      2 RES2   0.0000
    73 C32      2.0854   1.1495   1.1417   C.ar      2 RES2   0.0000
    74 H34      2.0216   0.2945   0.7788   H         2 RES2   0.0000
    75 C33      1.6188   2.2331   0.3982   C.ar      2 RES2   0.0000
    76 H35      1.2549   2.0932  -0.4461   H         2 RES2   0.0000
    77 C34      1.6930   3.5042   0.9073   C.ar      2 RES2   0.0000
    78 H36      1.4063   4.2319   0.4058   H         2 RES2   0.0000
    79 C35      2.2020   3.6850   2.1751   C.ar      2 RES2   0.0000
    80 H37      2.2348   4.5400   2.5405   H         2 RES2   0.0000
    81 C36      2.6657   2.6026   2.9110   C.ar      2 RES2   0.0000
    82 H38      3.0015   2.7527   3.7654   H         2 RES2   0.0000
    83 C37      4.9783   0.0625   2.6212   C.ar      2 RES2   0.0000
    84 C38      5.5120   1.0097   1.7517   C.ar      2 RES2   0.0000
    85 H39      4.9501   1.6725   1.4215   H         2 RES2   0.0000
    86 C39      6.8525   1.0165   1.3534   C.ar      2 RES2   0.0000
    87 H40      7.1700   1.6873   0.7914   H         2 RES2   0.0000
    88 C40      7.6973   0.0250   1.7945   C.ar      2 RES2   0.0000
    89 H41      8.5809   0.0011   1.5021   H         2 RES2   0.0000
    90 C41      7.2313  -0.9369   2.6741   C.ar      2 RES2   0.0000
    91 H42      7.7993  -1.6020   2.9892   H         2 RES2   0.0000
    92 C42      5.9024  -0.8925   3.0774   C.ar      2 RES2   0.0000
    93 H43      5.6089  -1.5304   3.6873   H         2 RES2   0.0000
    94 C43      3.4773   0.2149   4.7963   C.ar      2 RES2   0.0000
    95 C44      4.3177   1.1984   5.3760   C.ar      2 RES2   0.0000
    96 H44      4.8417   1.7271   4.8190   H         2 RES2   0.0000
    97 C45      4.3853   1.3996   6.7471   C.ar      2 RES2   0.0000
    98 H45      4.9189   2.0796   7.0898   H         2 RES2   0.0000
    99 C46      3.6623   0.5958   7.6090   C.ar      2 RES2   0.0000
   100 H46      3.7184   0.7106   8.5290   H         2 RES2   0.0000
   101 C47      2.8602  -0.3741   7.0697   C.ar      2 RES2   0.0000
   102 H47      2.3645  -0.9210   7.6368   H         2 RES2   0.0000
   103 C48      2.7752  -0.5571   5.7036   C.ar      2 RES2   0.0000
   104 H48      2.2198  -1.2302   5.3785   H         2 RES2   0.0000
   105 C49      2.6621  -1.3599   2.7649   C.ar      2 RES2   0.0000
   106 C50      1.2796  -1.4758   3.0043   C.ar      2 RES2   0.0000
   107 H49      0.8268  -0.7390   3.3471   H         2 RES2   0.0000
   108 C51      0.5634  -2.6333   2.7548   C.ar      2 RES2   0.0000
   109 H50     -0.3468  -2.6663   2.9388   H         2 RES2   0.0000
   110 C52      1.2083  -3.7441   2.2305   C.ar      2 RES2   0.0000
   111 H51      0.7348  -4.5241   2.0566   H         2 RES2   0.0000
   112 C53      2.5497  -3.6805   1.9684   C.ar      2 RES2   0.0000
   113 H52      2.9912  -4.4195   1.6156   H         2 RES2   0.0000
   114 C54      3.2596  -2.5003   2.2331   C.ar      2 RES2   0.0000
   115 H53      4.1703  -2.4775   2.0440   H         2 RES2   0.0000
   116 B1       3.4154   0.0455   3.1454   B         2 RES2  -1.0000
   117 O4       7.5239   5.8328   1.9036   O.3       3 RES3   0.0000
   118 C55      9.1575   6.9152   3.2009   C.3       3 RES3   0.0000
   119 H54      9.7638   6.1955   3.0119   H         3 RES3   0.0000
   120 H55      9.3220   7.2472   4.0855   H         3 RES3   0.0000
   121 H56      9.2920   7.6224   2.5657   H         3 RES3   0.0000
   122 C56      7.7826   6.4320   3.1076   C.3       3 RES3   0.0000
   123 H57      7.6186   5.7953   3.8234   H         3 RES3   0.0000
   124 H58      7.1740   7.1779   3.2311   H         3 RES3   0.0000
   125 C57      6.2201   5.3303   1.7466   C.3       3 RES3   0.0000
   126 H59      5.5850   6.0443   1.9079   H         3 RES3   0.0000
   127 H60      6.0664   4.6401   2.4120   H         3 RES3   0.0000
   128 C58      5.9801   4.7743   0.4209   C.3       3 RES3   0.0000
   129 H61      6.0116   5.4769  -0.2319   H         3 RES3   0.0000
   130 H62      5.1165   4.3570   0.4007   H         3 RES3   0.0000
   131 H63      6.6555   4.1216   0.2218   H         3 RES3   0.0000
@<TRIPOS>BOND
     1     1     2    1
     2     2    71    1
     3     3    71    2
     4     4     1    1
     5     5     4    1
     6     6     1    1
     7     7     1    1
     8     8     1    1
     9     9     1    1
    10    10     6   ar
    11    11    10    1
    12    12    10   ar
    13    13    12    1
    14    14    12   ar
    15    15    14    1
    16    16    14   ar
    17    17    16    1
    18    18     6   ar
    19    19     7    1
    20    20    19    1
    21    21    19    1
    22    22     7    1
    23    23    22    1
    24    24    22    1
    25    25    22    1
    26    26     7    1
    27    27    26    1
    28    28    26    1
    29    29     8    1
    30    30    29    1
    31    31    29    1
    32    32     8    1
    33    33    32    1
    34    34    32    1
    35    35    32    1
    36    36     8    1
    37    37    36    1
    38    38    36    1
    39    39     9   ar
    40    40    39   ar
    41    41    40    1
    42    42    40   ar
    43    43    42    1
    44    44    42   ar
    45    45    44    1
    46    46     9   ar
    47    47    46    1
    48    48     4    1
    49    49    48    1
    50    50    49   ar
    51    51    50    1
    52    52    50   ar
    53    53    52    1
    54    54    52   ar
    55    55    54    1
    56    56    54   ar
    57    57    56    1
    58    58    49   ar
    59    59    58    1
    60    60    48    1
    61    61    60   ar
    62    62    61    1
    63    63    61   ar
    64    64    63    1
    65    65    63   ar
    66    66    65    1
    67    67    65   ar
    68    68    67    1
    69    69    60   ar
    70    70    69    1
    71    71    48    1
    72    16    18   ar
    73    18    19    1
    74    26    29    1
    75    36    39    1
    76    44    46   ar
    77    56    58   ar
    78    67    69   ar
    79    72    73   ar
    80    73    74    1
    81    75    73   ar
    82    76    75    1
    83    77    75   ar
    84    78    77    1
    85    79    77   ar
    86    80    79    1
    87    81    72   ar
    88    82    81    1
    89    83    84   ar
    90    84    85    1
    91    86    84   ar
    92    87    86    1
    93    88    86   ar
    94    89    88    1
    95    90    88   ar
    96    91    90    1
    97    92    83   ar
    98    93    92    1
    99    94    95   ar
   100    95    96    1
   101    97    95   ar
   102    98    97    1
   103    99    97   ar
   104   100    99    1
   105   101    99   ar
   106   102   101    1
   107   103    94   ar
   108   104   103    1
   109   105   106   ar
   110   106   107    1
   111   108   106   ar
   112   109   108    1
   113   110   108   ar
   114   111   110    1
   115   112   110   ar
   116   113   112    1
   117   114   105   ar
   118   115   114    1
   119   116    72    1
   120    79    81   ar
   121    83   116    1
   122    90    92   ar
   123    94   116    1
   124   101   103   ar
   125   105   116    1
   126   112   114   ar
   127   117   122    1
   128   118   119    1
   129   120   118    1
   130   121   118    1
   131   122   118    1
   132   123   122    1
   133   124   122    1
   134   125   117    1
   135   126   125    1
   136   127   125    1
   137   128   125    1
   138   129   128    1
   139   130   128    1
   140   131   128    1
@<TRIPOS>SUBSTRUCTURE
     1 RES1        1 GROUP             0 ****  ****    0  
     2 RES2       72 GROUP             0 ****  ****    0  
     3 RES3      117 GROUP             0 ****  ****    0  
@<TRIPOS>CRYSIN
   17.0960   11.3700   25.2640   90.0000   93.9560   90.0000   231     1
