@<TRIPOS>MOLECULE
JANSAS10
   102   106     2     0     0
SMALL
USER_CHARGES
****
Generated from the CSD

@<TRIPOS>ATOM
     1 Fe1     -5.3511   9.2685   0.0000   Fe        1 RES1   2.0000
     2 N1      -4.1777   8.1340   1.1396   N.2       1 RES1   0.0000
     3 N2      -3.2181   8.6296   1.9792   N.2       1 RES1   0.0000
     4 N3      -2.6047   7.6534   2.5678   N.2       1 RES1   0.0000
     5 N4      -3.1666   6.5118   2.1204   N.pl3     1 RES1   0.0000
     6 C1      -4.1196   6.8164   1.2571   C.2       1 RES1   0.0000
     7 H1      -4.6710   6.1941   0.7991   H         1 RES1   0.0000
     8 C2      -2.6365   5.1903   2.5119   C.3       1 RES1   0.0000
     9 H2      -1.6974   5.1125   2.2080   H         1 RES1   0.0000
    10 H3      -3.1625   4.4822   2.0636   H         1 RES1   0.0000
    11 C3      -2.6921   4.9764   4.0055   C.3       1 RES1   0.0000
    12 H4      -2.3261   4.0809   4.2138   H         1 RES1   0.0000
    13 H5      -2.1153   5.6491   4.4481   H         1 RES1   0.0000
    14 C4      -4.0974   5.0801   4.5790   C.3       1 RES1   0.0000
    15 H6      -4.4324   5.9939   4.4609   H         1 RES1   0.0000
    16 H7      -4.0781   4.8613   5.5329   H         1 RES1   0.0000
    17 H8      -4.6876   4.4526   4.1111   H         1 RES1   0.0000
    18 N1A     -4.9554  10.8519   1.1396   N.2       1 RES1   0.0000
    19 N1B     -6.9203   8.8195   1.1396   N.2       1 RES1   0.0000
    20 N1I     -6.5246  10.4029  -1.1396   N.2       1 RES1   0.0000
    21 N1J     -5.7469   7.6850  -1.1396   N.2       1 RES1   0.0000
    22 N1K     -3.7820   9.7174  -1.1396   N.2       1 RES1   0.0000
    23 N2A     -5.8644  11.4352   1.9792   N.2       1 RES1   0.0000
    24 N2B     -6.9709   7.7407   1.9792   N.2       1 RES1   0.0000
    25 N2I     -7.4842   9.9073  -1.9792   N.2       1 RES1   0.0000
    26 N2J     -4.8379   7.1018  -1.9792   N.2       1 RES1   0.0000
    27 N2K     -3.7314  10.7963  -1.9792   N.2       1 RES1   0.0000
    28 N3A     -5.3257  12.4545   2.5678   N.2       1 RES1   0.0000
    29 N3B     -8.1230   7.6975   2.5678   N.2       1 RES1   0.0000
    30 N3I     -8.0976  10.8835  -2.5678   N.2       1 RES1   0.0000
    31 N3J     -5.3766   6.0824  -2.5678   N.2       1 RES1   0.0000
    32 N3K     -2.5793  10.8395  -2.5678   N.2       1 RES1   0.0000
    33 N4A     -4.0561  12.5387   2.1204   N.pl3     1 RES1   0.0000
    34 N4B     -8.8307   8.7549   2.1204   N.pl3     1 RES1   0.0000
    35 N4I     -7.5357  12.0251  -2.1204   N.pl3     1 RES1   0.0000
    36 N4J     -6.6462   5.9983  -2.1204   N.pl3     1 RES1   0.0000
    37 N4K     -1.8716   9.7820  -2.1204   N.pl3     1 RES1   0.0000
    38 C1A     -3.8434  11.5610   1.2571   C.2       1 RES1   0.0000
    39 C1B     -8.0905   9.4280   1.2571   C.2       1 RES1   0.0000
    40 C1I     -6.5827  11.7205  -1.2571   C.2       1 RES1   0.0000
    41 C1J     -6.8589   6.9759  -1.2571   C.2       1 RES1   0.0000
    42 C1K     -2.6118   9.1090  -1.2571   C.2       1 RES1   0.0000
    43 H1A     -3.0288  11.3946   0.7991   H         1 RES1   0.0000
    44 H1B     -8.3537  10.2166   0.7991   H         1 RES1   0.0000
    45 H1I     -6.0313  12.3428  -0.7991   H         1 RES1   0.0000
    46 H1J     -7.6735   7.1423  -0.7991   H         1 RES1   0.0000
    47 H1K     -2.3486   8.3203  -0.7991   H         1 RES1   0.0000
    48 C2A     -3.1767  13.6585   2.5119   C.3       1 RES1   0.0000
    49 C2B    -10.2402   8.9566   2.5119   C.3       1 RES1   0.0000
    50 C2I     -8.0658  13.3466  -2.5119   C.3       1 RES1   0.0000
    51 C2J     -7.5256   4.8785  -2.5119   C.3       1 RES1   0.0000
    52 C2K     -0.4621   9.5803  -2.5119   C.3       1 RES1   0.0000
    53 H2A     -3.5788  14.5107   2.2080   H         1 RES1   0.0000
    54 H2B    -10.7772   8.1822   2.2080   H         1 RES1   0.0000
    55 H2I     -9.0049  13.4244  -2.2080   H         1 RES1   0.0000
    56 H2J     -7.1235   4.0262  -2.2080   H         1 RES1   0.0000
    57 H2K      0.0749  10.3547  -2.2080   H         1 RES1   0.0000
    58 H3A     -2.3005  13.5570   2.0636   H         1 RES1   0.0000
    59 H3B    -10.5905   9.7662   2.0636   H         1 RES1   0.0000
    60 H3I     -7.5398  14.0547  -2.0636   H         1 RES1   0.0000
    61 H3J     -8.4018   4.9799  -2.0636   H         1 RES1   0.0000
    62 H3K     -0.1118   8.7707  -2.0636   H         1 RES1   0.0000
    63 C3A     -2.9637  13.7173   4.0055   C.3       1 RES1   0.0000
    64 C3B    -10.3977   9.1116   4.0055   C.3       1 RES1   0.0000
    65 C3I     -8.0102  13.5605  -4.0055   C.3       1 RES1   0.0000
    66 C3J     -7.7386   4.8196  -4.0055   C.3       1 RES1   0.0000
    67 C3K     -0.3046   9.4253  -4.0055   C.3       1 RES1   0.0000
    68 H4A     -2.3711  14.4820   4.2138   H         1 RES1   0.0000
    69 H4B    -11.3562   9.2425   4.2138   H         1 RES1   0.0000
    70 H4I     -8.3762  14.4560  -4.2138   H         1 RES1   0.0000
    71 H4J     -8.3312   4.0550  -4.2138   H         1 RES1   0.0000
    72 H4K      0.6539   9.2944  -4.2138   H         1 RES1   0.0000
    73 H5A     -3.8346  13.8805   4.4481   H         1 RES1   0.0000
    74 H5B    -10.1035   8.2758   4.4481   H         1 RES1   0.0000
    75 H5I     -8.5870  12.8878  -4.4481   H         1 RES1   0.0000
    76 H5J     -6.8677   4.6565  -4.4481   H         1 RES1   0.0000
    77 H5K     -0.5988  10.2611  -4.4481   H         1 RES1   0.0000
    78 C4A     -2.3508  12.4484   4.5790   C.3       1 RES1   0.0000
    79 C4B     -9.6052  10.2769   4.5790   C.3       1 RES1   0.0000
    80 C4I     -6.6049  13.4568  -4.5790   C.3       1 RES1   0.0000
    81 C4J     -8.3515   6.0885  -4.5790   C.3       1 RES1   0.0000
    82 C4K     -1.0971   8.2601  -4.5790   C.3       1 RES1   0.0000
    83 H6A     -2.9747  11.7014   4.4609   H         1 RES1   0.0000
    84 H6B     -8.6464  10.1100   4.4609   H         1 RES1   0.0000
    85 H6I     -6.2699  12.5430  -4.4609   H         1 RES1   0.0000
    86 H6J     -7.7276   6.8355  -4.4609   H         1 RES1   0.0000
    87 H6K     -2.0559   8.4269  -4.4609   H         1 RES1   0.0000
    88 H7A     -2.1710  12.5745   5.5329   H         1 RES1   0.0000
    89 H7B     -9.8044  10.3696   5.5329   H         1 RES1   0.0000
    90 H7I     -6.6242  13.6756  -5.5329   H         1 RES1   0.0000
    91 H7J     -8.5313   5.9624  -5.5329   H         1 RES1   0.0000
    92 H7K     -0.8979   8.1674  -5.5329   H         1 RES1   0.0000
    93 H8A     -1.5122  12.2511   4.1111   H         1 RES1   0.0000
    94 H8B     -9.8536  11.1018   4.1111   H         1 RES1   0.0000
    95 H8I     -6.0147  14.0844  -4.1111   H         1 RES1   0.0000
    96 H8J     -9.1901   6.2859  -4.1111   H         1 RES1   0.0000
    97 H8K     -0.8487   7.4352  -4.1111   H         1 RES1   0.0000
    98 B1       5.3517   3.0892   0.5029   B         2 RES2  -1.0000
    99 F1       5.3517   3.0892   1.8839   F         2 RES2   0.0000
   100 F2       6.5958   2.6907   0.0408   F         2 RES2   0.0000
   101 F2A      5.0742   4.3667   0.0408   F         2 RES2   0.0000
   102 F2B      4.3835   2.2110   0.0408   F         2 RES2   0.0000
@<TRIPOS>BOND
     1     1     2    1
     2     2     3    1
     3     3     4    2
     4     4     5    1
     5     5     6    1
     6     6     2    2
     7     7     6    1
     8     8     5    1
     9     9     8    1
    10    10     8    1
    11    11     8    1
    12    12    11    1
    13    13    11    1
    14    14    11    1
    15    15    14    1
    16    16    14    1
    17    17    14    1
    18    18     1    1
    19    19     1    1
    20    20     1    1
    21    21     1    1
    22    22     1    1
    23    23    18    1
    24    24    19    1
    25    25    20    1
    26    26    21    1
    27    27    22    1
    28    28    23    2
    29    29    24    2
    30    30    25    2
    31    31    26    2
    32    32    27    2
    33    33    28    1
    34    34    29    1
    35    35    30    1
    36    36    31    1
    37    37    32    1
    38    38    18    2
    39    39    19    2
    40    40    20    2
    41    41    21    2
    42    42    22    2
    43    43    38    1
    44    44    39    1
    45    45    40    1
    46    46    41    1
    47    47    42    1
    48    48    33    1
    49    49    34    1
    50    50    35    1
    51    51    36    1
    52    52    37    1
    53    53    48    1
    54    54    49    1
    55    55    50    1
    56    56    51    1
    57    57    52    1
    58    58    48    1
    59    59    49    1
    60    60    50    1
    61    61    51    1
    62    62    52    1
    63    63    48    1
    64    64    49    1
    65    65    50    1
    66    66    51    1
    67    67    52    1
    68    68    63    1
    69    69    64    1
    70    70    65    1
    71    71    66    1
    72    72    67    1
    73    73    63    1
    74    74    64    1
    75    75    65    1
    76    76    66    1
    77    77    67    1
    78    78    63    1
    79    79    64    1
    80    80    65    1
    81    81    66    1
    82    82    67    1
    83    83    78    1
    84    84    79    1
    85    85    80    1
    86    86    81    1
    87    87    82    1
    88    88    78    1
    89    89    79    1
    90    90    80    1
    91    91    81    1
    92    92    82    1
    93    93    78    1
    94    94    79    1
    95    95    80    1
    96    96    81    1
    97    97    82    1
    98    33    38    1
    99    34    39    1
   100    35    40    1
   101    36    41    1
   102    37    42    1
   103    98    99    1
   104   100    98    1
   105   101    98    1
   106   102    98    1
@<TRIPOS>SUBSTRUCTURE
     1 RES1        1 GROUP             0 ****  ****    0  
     2 RES2       98 GROUP             0 ****  ****    0  
@<TRIPOS>CRYSIN
   10.7023   10.7023   32.0931   90.0000   90.0000  120.0000   233     1
