@<TRIPOS>MOLECULE
JANSAS06
   102   106     2     0     0
SMALL
USER_CHARGES
****
Generated from the CSD

@<TRIPOS>ATOM
     1 Fe1      0.0000   0.0000   0.0000   Fe        1 RES1   2.0000
     2 N1       1.1680  -1.1450   1.1363   N.2       1 RES1   0.0000
     3 C1       1.2151  -2.4642   1.2553   C.2       1 RES1   0.0000
     4 H1       0.6849  -3.1138   0.8135   H         1 RES1   0.0000
     5 N2       2.1451  -0.6545   1.9628   N.2       1 RES1   0.0000
     6 N3       2.7596  -1.6394   2.5450   N.2       1 RES1   0.0000
     7 N4       2.1796  -2.7738   2.1095   N.pl3     1 RES1   0.0000
     8 C2       1.2552  -4.1963   4.5713   C.3       1 RES1   0.0000
     9 H2       1.2734  -4.4483   5.5378   H         1 RES1   0.0000
    10 H3       0.6100  -4.8561   4.1183   H         1 RES1   0.0000
    11 H4       0.8775  -3.2806   4.4469   H         1 RES1   0.0000
    12 C3       2.7036  -4.1008   2.4892   C.3       1 RES1   0.0000
    13 H5       2.1402  -4.8005   2.0225   H         1 RES1   0.0000
    14 H6       3.6383  -4.1703   2.1437   H         1 RES1   0.0000
    15 C4       2.6613  -4.3167   3.9971   C.3       1 RES1   0.0000
    16 H7       3.0337  -5.1804   4.1311   H         1 RES1   0.0000
    17 H8       3.2478  -3.6977   4.4309   H         1 RES1   0.0000
    18 N1A      0.4076   1.5840   1.1363   N.2       1 RES1   0.0000
    19 C1A      1.5265   2.2844   1.2553   C.2       1 RES1   0.0000
    20 H1A      2.3542   2.1500   0.8135   H         1 RES1   0.0000
    21 N4A      1.3124   3.2745   2.1095   N.pl3     1 RES1   0.0000
    22 N3A      0.0400   3.2096   2.5450   N.2       1 RES1   0.0000
    23 N2A     -0.5058   2.1850   1.9628   N.2       1 RES1   0.0000
    24 C3A      2.1996   4.3918   2.4892   C.3       1 RES1   0.0000
    25 H5A      3.0872   4.2537   2.0225   H         1 RES1   0.0000
    26 H6A      1.7924   5.2360   2.1437   H         1 RES1   0.0000
    27 C4A      2.4077   4.4631   3.9971   C.3       1 RES1   0.0000
    28 C2A      3.0064   3.1852   4.5713   C.3       1 RES1   0.0000
    29 H2A      3.2157   3.3270   5.5378   H         1 RES1   0.0000
    30 H3A      3.9005   2.9563   4.1183   H         1 RES1   0.0000
    31 H4A      2.4024   2.4002   4.4469   H         1 RES1   0.0000
    32 H7A      2.9695   5.2175   4.1311   H         1 RES1   0.0000
    33 H8A      1.5784   4.6615   4.4309   H         1 RES1   0.0000
    34 N1B     -1.5756  -0.4390   1.1363   N.2       1 RES1   0.0000
    35 C1B     -2.7416   0.1798   1.2553   C.2       1 RES1   0.0000
    36 H1B     -3.0391   0.9638   0.8135   H         1 RES1   0.0000
    37 N4B     -3.4920  -0.5007   2.1095   N.pl3     1 RES1   0.0000
    38 N3B     -2.7995  -1.5702   2.5450   N.2       1 RES1   0.0000
    39 N2B     -1.6393  -1.5305   1.9628   N.2       1 RES1   0.0000
    40 C3B     -4.9032  -0.2910   2.4892   C.3       1 RES1   0.0000
    41 H5B     -5.2274   0.5468   2.0225   H         1 RES1   0.0000
    42 H6B     -5.4308  -1.0657   2.1437   H         1 RES1   0.0000
    43 C4B     -5.0691  -0.1464   3.9971   C.3       1 RES1   0.0000
    44 C2B     -4.2617   1.0111   4.5713   C.3       1 RES1   0.0000
    45 H2B     -4.4891   1.1213   5.5378   H         1 RES1   0.0000
    46 H3B     -4.5105   1.8998   4.1183   H         1 RES1   0.0000
    47 H4B     -3.2799   0.8804   4.4469   H         1 RES1   0.0000
    48 H7B     -6.0033  -0.0371   4.1311   H         1 RES1   0.0000
    49 H8B     -4.8262  -0.9638   4.4309   H         1 RES1   0.0000
    50 N1I     -1.1680   1.1450  -1.1363   N.2       1 RES1   0.0000
    51 C1I     -1.2151   2.4642  -1.2553   C.2       1 RES1   0.0000
    52 H1I     -0.6849   3.1138  -0.8135   H         1 RES1   0.0000
    53 N4I     -2.1796   2.7738  -2.1095   N.pl3     1 RES1   0.0000
    54 N3I     -2.7596   1.6394  -2.5450   N.2       1 RES1   0.0000
    55 N2I     -2.1451   0.6545  -1.9628   N.2       1 RES1   0.0000
    56 C3I     -2.7036   4.1008  -2.4892   C.3       1 RES1   0.0000
    57 H5I     -2.1402   4.8005  -2.0225   H         1 RES1   0.0000
    58 H6I     -3.6383   4.1703  -2.1437   H         1 RES1   0.0000
    59 C4I     -2.6613   4.3167  -3.9971   C.3       1 RES1   0.0000
    60 C2I     -1.2552   4.1963  -4.5713   C.3       1 RES1   0.0000
    61 H2I     -1.2734   4.4483  -5.5378   H         1 RES1   0.0000
    62 H3I     -0.6100   4.8561  -4.1183   H         1 RES1   0.0000
    63 H4I     -0.8775   3.2806  -4.4469   H         1 RES1   0.0000
    64 H7I     -3.0337   5.1804  -4.1311   H         1 RES1   0.0000
    65 H8I     -3.2478   3.6977  -4.4309   H         1 RES1   0.0000
    66 N1J     -0.4076  -1.5840  -1.1363   N.2       1 RES1   0.0000
    67 C1J     -1.5265  -2.2844  -1.2553   C.2       1 RES1   0.0000
    68 H1J     -2.3542  -2.1500  -0.8135   H         1 RES1   0.0000
    69 N4J     -1.3124  -3.2745  -2.1095   N.pl3     1 RES1   0.0000
    70 N3J     -0.0400  -3.2096  -2.5450   N.2       1 RES1   0.0000
    71 N2J      0.5058  -2.1850  -1.9628   N.2       1 RES1   0.0000
    72 C3J     -2.1996  -4.3918  -2.4892   C.3       1 RES1   0.0000
    73 H5J     -3.0872  -4.2537  -2.0225   H         1 RES1   0.0000
    74 H6J     -1.7924  -5.2360  -2.1437   H         1 RES1   0.0000
    75 C4J     -2.4077  -4.4631  -3.9971   C.3       1 RES1   0.0000
    76 C2J     -3.0064  -3.1852  -4.5713   C.3       1 RES1   0.0000
    77 H2J     -3.2157  -3.3270  -5.5378   H         1 RES1   0.0000
    78 H3J     -3.9005  -2.9563  -4.1183   H         1 RES1   0.0000
    79 H4J     -2.4024  -2.4002  -4.4469   H         1 RES1   0.0000
    80 H7J     -2.9695  -5.2175  -4.1311   H         1 RES1   0.0000
    81 H8J     -1.5784  -4.6615  -4.4309   H         1 RES1   0.0000
    82 N1K      1.5756   0.4390  -1.1363   N.2       1 RES1   0.0000
    83 C1K      2.7416  -0.1798  -1.2553   C.2       1 RES1   0.0000
    84 H1K      3.0391  -0.9638  -0.8135   H         1 RES1   0.0000
    85 N4K      3.4920   0.5007  -2.1095   N.pl3     1 RES1   0.0000
    86 N3K      2.7995   1.5702  -2.5450   N.2       1 RES1   0.0000
    87 N2K      1.6393   1.5305  -1.9628   N.2       1 RES1   0.0000
    88 C3K      4.9032   0.2910  -2.4892   C.3       1 RES1   0.0000
    89 H5K      5.2274  -0.5468  -2.0225   H         1 RES1   0.0000
    90 H6K      5.4308   1.0657  -2.1437   H         1 RES1   0.0000
    91 C4K      5.0691   0.1464  -3.9971   C.3       1 RES1   0.0000
    92 C2K      4.2617  -1.0111  -4.5713   C.3       1 RES1   0.0000
    93 H2K      4.4891  -1.1213  -5.5378   H         1 RES1   0.0000
    94 H3K      4.5105  -1.8998  -4.1183   H         1 RES1   0.0000
    95 H4K      3.2799  -0.8804  -4.4469   H         1 RES1   0.0000
    96 H7K      6.0033   0.0371  -4.1311   H         1 RES1   0.0000
    97 H8K      4.8262   0.9638  -4.4309   H         1 RES1   0.0000
    98 F1       0.3326  -1.2756  10.5812   F         2 RES2   0.0000
    99 F2       0.0000   0.0000   8.7170   F         2 RES2   0.0000
   100 B1       0.0000   0.0000  10.1174   B         2 RES2  -1.0000
   101 F1B     -1.2711   0.3497  10.5812   F         2 RES2   0.0000
   102 F1A      0.9384   0.9259  10.5812   F         2 RES2   0.0000
@<TRIPOS>BOND
     1     1     2    1
     2     2     3    2
     3     3     4    1
     4     5     2    1
     5     6     5    2
     6     7     3    1
     7     8     9    1
     8    10     8    1
     9    11     8    1
    10    12     7    1
    11    13    12    1
    12    14    12    1
    13    15     8    1
    14    16    15    1
    15    17    15    1
    16    18     1    1
    17    19    18    2
    18    20    19    1
    19    21    19    1
    20    22    21    1
    21    23    18    1
    22    24    21    1
    23    25    24    1
    24    26    24    1
    25    27    24    1
    26    28    27    1
    27    29    28    1
    28    30    28    1
    29    31    28    1
    30    32    27    1
    31    33    27    1
    32    34     1    1
    33    35    34    2
    34    36    35    1
    35    37    35    1
    36    38    37    1
    37    39    34    1
    38    40    37    1
    39    41    40    1
    40    42    40    1
    41    43    40    1
    42    44    43    1
    43    45    44    1
    44    46    44    1
    45    47    44    1
    46    48    43    1
    47    49    43    1
    48    50     1    1
    49    51    50    2
    50    52    51    1
    51    53    51    1
    52    54    53    1
    53    55    50    1
    54    56    53    1
    55    57    56    1
    56    58    56    1
    57    59    56    1
    58    60    59    1
    59    61    60    1
    60    62    60    1
    61    63    60    1
    62    64    59    1
    63    65    59    1
    64    66     1    1
    65    67    66    2
    66    68    67    1
    67    69    67    1
    68    70    69    1
    69    71    66    1
    70    72    69    1
    71    73    72    1
    72    74    72    1
    73    75    72    1
    74    76    75    1
    75    77    76    1
    76    78    76    1
    77    79    76    1
    78    80    75    1
    79    81    75    1
    80    82     1    1
    81    83    82    2
    82    84    83    1
    83    85    83    1
    84    86    85    1
    85    87    82    1
    86    88    85    1
    87    89    88    1
    88    90    88    1
    89    91    88    1
    90    92    91    1
    91    93    92    1
    92    94    92    1
    93    95    92    1
    94    96    91    1
    95    97    91    1
    96     6     7    1
    97    12    15    1
    98    22    23    2
    99    38    39    2
   100    54    55    2
   101    70    71    2
   102    86    87    2
   103    98   100    1
   104    99   100    1
   105   100   101    1
   106   102   100    1
@<TRIPOS>SUBSTRUCTURE
     1 RES1        1 GROUP             0 ****  ****    0  
     2 RES2       98 GROUP             0 ****  ****    0  
@<TRIPOS>CRYSIN
   10.7010   10.7010   31.9000   90.0000   90.0000  120.0000   233     1
