@<TRIPOS>MOLECULE
JANSAS05
   102   106     2     0     0
SMALL
USER_CHARGES
****
Generated from the CSD

@<TRIPOS>ATOM
     1 Fe1      0.0000   0.0000   0.0000   Fe        1 RES1   2.0000
     2 N1       1.2551  -1.2860   1.2397   N.2       1 RES1   0.0000
     3 C1       1.3025  -2.6065   1.3096   C.2       1 RES1   0.0000
     4 H1       0.7785  -3.2180   0.8720   H         1 RES1   0.0000
     5 N2       2.2196  -0.8241   2.0966   N.2       1 RES1   0.0000
     6 N3       2.8276  -1.8274   2.6525   N.2       1 RES1   0.0000
     7 N4       2.2591  -2.9523   2.1655   N.pl3     1 RES1   0.0000
     8 C2       1.2154  -4.3837   4.5344   C.3       1 RES1   0.0000
     9 H2       1.1643  -4.6362   5.4901   H         1 RES1   0.0000
    10 H3       0.5821  -4.9472   4.0200   H         1 RES1   0.0000
    11 H4       0.8977  -3.4206   4.4229   H         1 RES1   0.0000
    12 C3       2.7649  -4.2876   2.5282   C.3       1 RES1   0.0000
    13 H5       2.2067  -4.9246   2.0273   H         1 RES1   0.0000
    14 H6       3.7017  -4.3573   2.2005   H         1 RES1   0.0000
    15 C4       2.6392  -4.5429   4.0219   C.3       1 RES1   0.0000
    16 H7       2.9618  -5.4278   4.1522   H         1 RES1   0.0000
    17 H8       3.2181  -3.9361   4.5016   H         1 RES1   0.0000
    18 N1A      0.4862   1.7299   1.2397   N.2       1 RES1   0.0000
    19 C1A      1.6060   2.4312   1.3096   C.2       1 RES1   0.0000
    20 H1A      2.3976   2.2832   0.8720   H         1 RES1   0.0000
    21 N4A      1.4272   3.4326   2.1655   N.pl3     1 RES1   0.0000
    22 N3A      0.1687   3.3625   2.6525   N.2       1 RES1   0.0000
    23 N2A     -0.3961   2.3342   2.0966   N.2       1 RES1   0.0000
    24 C3A      2.3307   4.5382   2.5282   C.3       1 RES1   0.0000
    25 H5A      3.1615   4.3733   2.0273   H         1 RES1   0.0000
    26 H6A      1.9227   5.3844   2.2005   H         1 RES1   0.0000
    27 C4A      2.6147   4.5571   4.0219   C.3       1 RES1   0.0000
    28 C2A      3.1887   3.2444   4.5344   C.3       1 RES1   0.0000
    29 H2A      3.4330   3.3264   5.4901   H         1 RES1   0.0000
    30 H3A      3.9933   2.9777   4.0200   H         1 RES1   0.0000
    31 H4A      2.5135   2.4877   4.4229   H         1 RES1   0.0000
    32 H7A      3.2197   5.2789   4.1522   H         1 RES1   0.0000
    33 H8A      1.7997   4.7550   4.5016   H         1 RES1   0.0000
    34 N1B     -1.7412  -0.4439   1.2397   N.2       1 RES1   0.0000
    35 C1B     -2.9085   0.1753   1.3096   C.2       1 RES1   0.0000
    36 H1B     -3.1762   0.9348   0.8720   H         1 RES1   0.0000
    37 N4B     -3.6863  -0.4803   2.1655   N.pl3     1 RES1   0.0000
    38 N3B     -2.9964  -1.5351   2.6525   N.2       1 RES1   0.0000
    39 N2B     -1.8234  -1.5102   2.0966   N.2       1 RES1   0.0000
    40 C3B     -5.0956  -0.2507   2.5282   C.3       1 RES1   0.0000
    41 H5B     -5.3681   0.5513   2.0273   H         1 RES1   0.0000
    42 H6B     -5.6244  -1.0271   2.2005   H         1 RES1   0.0000
    43 C4B     -5.2539  -0.0141   4.0219   C.3       1 RES1   0.0000
    44 C2B     -4.4041   1.1393   4.5344   C.3       1 RES1   0.0000
    45 H2B     -4.5972   1.3098   5.4901   H         1 RES1   0.0000
    46 H3B     -4.5755   1.9695   4.0200   H         1 RES1   0.0000
    47 H4B     -3.4112   0.9329   4.4229   H         1 RES1   0.0000
    48 H7B     -6.1815   0.1489   4.1522   H         1 RES1   0.0000
    49 H8B     -5.0178  -0.8189   4.5016   H         1 RES1   0.0000
    50 N1I     -1.2551   1.2860  -1.2397   N.2       1 RES1   0.0000
    51 C1I     -1.3025   2.6065  -1.3096   C.2       1 RES1   0.0000
    52 H1I     -0.7785   3.2180  -0.8720   H         1 RES1   0.0000
    53 N4I     -2.2591   2.9523  -2.1655   N.pl3     1 RES1   0.0000
    54 N3I     -2.8276   1.8274  -2.6525   N.2       1 RES1   0.0000
    55 N2I     -2.2196   0.8241  -2.0966   N.2       1 RES1   0.0000
    56 C3I     -2.7649   4.2876  -2.5282   C.3       1 RES1   0.0000
    57 H5I     -2.2067   4.9246  -2.0273   H         1 RES1   0.0000
    58 H6I     -3.7017   4.3573  -2.2005   H         1 RES1   0.0000
    59 C4I     -2.6392   4.5429  -4.0219   C.3       1 RES1   0.0000
    60 C2I     -1.2154   4.3837  -4.5344   C.3       1 RES1   0.0000
    61 H2I     -1.1643   4.6362  -5.4901   H         1 RES1   0.0000
    62 H3I     -0.5821   4.9472  -4.0200   H         1 RES1   0.0000
    63 H4I     -0.8977   3.4206  -4.4229   H         1 RES1   0.0000
    64 H7I     -2.9618   5.4278  -4.1522   H         1 RES1   0.0000
    65 H8I     -3.2181   3.9361  -4.5016   H         1 RES1   0.0000
    66 N1J     -0.4862  -1.7299  -1.2397   N.2       1 RES1   0.0000
    67 C1J     -1.6060  -2.4312  -1.3096   C.2       1 RES1   0.0000
    68 H1J     -2.3976  -2.2832  -0.8720   H         1 RES1   0.0000
    69 N4J     -1.4272  -3.4326  -2.1655   N.pl3     1 RES1   0.0000
    70 N3J     -0.1687  -3.3625  -2.6525   N.2       1 RES1   0.0000
    71 N2J      0.3961  -2.3342  -2.0966   N.2       1 RES1   0.0000
    72 C3J     -2.3307  -4.5382  -2.5282   C.3       1 RES1   0.0000
    73 H5J     -3.1615  -4.3733  -2.0273   H         1 RES1   0.0000
    74 H6J     -1.9227  -5.3844  -2.2005   H         1 RES1   0.0000
    75 C4J     -2.6147  -4.5571  -4.0219   C.3       1 RES1   0.0000
    76 C2J     -3.1887  -3.2444  -4.5344   C.3       1 RES1   0.0000
    77 H2J     -3.4330  -3.3264  -5.4901   H         1 RES1   0.0000
    78 H3J     -3.9933  -2.9777  -4.0200   H         1 RES1   0.0000
    79 H4J     -2.5135  -2.4877  -4.4229   H         1 RES1   0.0000
    80 H7J     -3.2197  -5.2789  -4.1522   H         1 RES1   0.0000
    81 H8J     -1.7997  -4.7550  -4.5016   H         1 RES1   0.0000
    82 N1K      1.7412   0.4439  -1.2397   N.2       1 RES1   0.0000
    83 C1K      2.9085  -0.1753  -1.3096   C.2       1 RES1   0.0000
    84 H1K      3.1762  -0.9348  -0.8720   H         1 RES1   0.0000
    85 N4K      3.6863   0.4803  -2.1655   N.pl3     1 RES1   0.0000
    86 N3K      2.9964   1.5351  -2.6525   N.2       1 RES1   0.0000
    87 N2K      1.8234   1.5102  -2.0966   N.2       1 RES1   0.0000
    88 C3K      5.0956   0.2507  -2.5282   C.3       1 RES1   0.0000
    89 H5K      5.3681  -0.5513  -2.0273   H         1 RES1   0.0000
    90 H6K      5.6244   1.0271  -2.2005   H         1 RES1   0.0000
    91 C4K      5.2539   0.0141  -4.0219   C.3       1 RES1   0.0000
    92 C2K      4.4041  -1.1393  -4.5344   C.3       1 RES1   0.0000
    93 H2K      4.5972  -1.3098  -5.4901   H         1 RES1   0.0000
    94 H3K      4.5755  -1.9695  -4.0200   H         1 RES1   0.0000
    95 H4K      3.4112  -0.9329  -4.4229   H         1 RES1   0.0000
    96 H7K      6.1815  -0.1489  -4.1522   H         1 RES1   0.0000
    97 H8K      5.0178   0.8189  -4.5016   H         1 RES1   0.0000
    98 F1       0.2421  -1.2968  10.5376   F         2 RES2   0.0000
    99 F2       0.0000   0.0000   8.6794   F         2 RES2   0.0000
   100 B1       0.0000   0.0000  10.0786   B         2 RES2  -1.0000
   101 F1B     -1.2441   0.4387  10.5376   F         2 RES2   0.0000
   102 F1A      1.0020   0.8581  10.5376   F         2 RES2   0.0000
@<TRIPOS>BOND
     1     1     2    1
     2     2     3    2
     3     3     4    1
     4     5     2    1
     5     6     5    2
     6     7     3    1
     7     8     9    1
     8    10     8    1
     9    11     8    1
    10    12     7    1
    11    13    12    1
    12    14    12    1
    13    15     8    1
    14    16    15    1
    15    17    15    1
    16    18     1    1
    17    19    18    2
    18    20    19    1
    19    21    19    1
    20    22    21    1
    21    23    18    1
    22    24    21    1
    23    25    24    1
    24    26    24    1
    25    27    24    1
    26    28    27    1
    27    29    28    1
    28    30    28    1
    29    31    28    1
    30    32    27    1
    31    33    27    1
    32    34     1    1
    33    35    34    2
    34    36    35    1
    35    37    35    1
    36    38    37    1
    37    39    34    1
    38    40    37    1
    39    41    40    1
    40    42    40    1
    41    43    40    1
    42    44    43    1
    43    45    44    1
    44    46    44    1
    45    47    44    1
    46    48    43    1
    47    49    43    1
    48    50     1    1
    49    51    50    2
    50    52    51    1
    51    53    51    1
    52    54    53    1
    53    55    50    1
    54    56    53    1
    55    57    56    1
    56    58    56    1
    57    59    56    1
    58    60    59    1
    59    61    60    1
    60    62    60    1
    61    63    60    1
    62    64    59    1
    63    65    59    1
    64    66     1    1
    65    67    66    2
    66    68    67    1
    67    69    67    1
    68    70    69    1
    69    71    66    1
    70    72    69    1
    71    73    72    1
    72    74    72    1
    73    75    72    1
    74    76    75    1
    75    77    76    1
    76    78    76    1
    77    79    76    1
    78    80    75    1
    79    81    75    1
    80    82     1    1
    81    83    82    2
    82    84    83    1
    83    85    83    1
    84    86    85    1
    85    87    82    1
    86    88    85    1
    87    89    88    1
    88    90    88    1
    89    91    88    1
    90    92    91    1
    91    93    92    1
    92    94    92    1
    93    95    92    1
    94    96    91    1
    95    97    91    1
    96     6     7    1
    97    12    15    1
    98    22    23    2
    99    38    39    2
   100    54    55    2
   101    70    71    2
   102    86    87    2
   103    98   100    1
   104    99   100    1
   105   100   101    1
   106   102   100    1
@<TRIPOS>SUBSTRUCTURE
     1 RES1        1 GROUP             0 ****  ****    0  
     2 RES2       98 GROUP             0 ****  ****    0  
@<TRIPOS>CRYSIN
   10.8810   10.8810   31.4800   90.0000   90.0000  120.0000   233     1
