@<TRIPOS>MOLECULE
JARBIQ
   120   125     3     0     0
SMALL
USER_CHARGES
****
Generated from the CSD

@<TRIPOS>ATOM
     1 Fe1      6.6800  11.0920   5.0691   Fe        1 RES1   1.0000
     2 N1       7.0346   9.0666   5.9953   N.ar      1 RES1   0.0000
     3 N2       4.6674  10.4945   4.7665   N.2       1 RES1   0.0000
     4 N3       6.3502  11.6534   7.2217   N.ar      1 RES1   0.0000
     5 N4       8.6611  11.7821   5.2914   N.2       1 RES1   0.0000
     6 O1       6.1220  12.8368   4.5347   O.3       1 RES1   0.0000
     7 O2       7.2623  10.3171   3.4298   O.3       1 RES1   0.0000
     8 C1       8.3337   8.7096   6.0921   C.ar      1 RES1   0.0000
     9 H1       8.9898   9.2983   5.7353   H         1 RES1   0.0000
    10 C2       8.7590   7.5386   6.6791   C.ar      1 RES1   0.0000
    11 H2       9.6855   7.3300   6.7288   H         1 RES1   0.0000
    12 C3       7.8152   6.6765   7.1941   C.ar      1 RES1   0.0000
    13 H3       8.0781   5.8682   7.6198   H         1 RES1   0.0000
    14 C4       6.4827   7.0087   7.0787   C.ar      1 RES1   0.0000
    15 H4       5.8166   6.4207   7.4150   H         1 RES1   0.0000
    16 C5       6.1120   8.1997   6.4720   C.ar      1 RES1   0.0000
    17 C6       4.6550   8.5243   6.3024   C.3       1 RES1   0.0000
    18 H5       4.3965   9.1866   6.9916   H         1 RES1   0.0000
    19 H6       4.1272   7.7035   6.4642   H         1 RES1   0.0000
    20 C7       4.2854   9.0794   4.9293   C.3       1 RES1   0.0000
    21 H7       4.7364   8.5412   4.2315   H         1 RES1   0.0000
    22 H8       3.3086   8.9907   4.7965   H         1 RES1   0.0000
    23 C8       3.7093  11.2872   4.4107   C.2       1 RES1   0.0000
    24 H9       2.8532  10.8896   4.3083   H         1 RES1   0.0000
    25 C9       3.7878  12.7039   4.1527   C.ar      1 RES1   0.0000
    26 C10      2.5756  13.3452   3.8177   C.ar      1 RES1   0.0000
    27 H10      1.7733  12.8366   3.7962   H         1 RES1   0.0000
    28 C11      2.5244  14.6808   3.5226   C.ar      1 RES1   0.0000
    29 C12      3.7471  15.3851   3.5438   C.ar      1 RES1   0.0000
    30 H11      3.7316  16.3076   3.3183   H         1 RES1   0.0000
    31 C13      4.9700  14.8189   3.8725   C.ar      1 RES1   0.0000
    32 C14      4.9934  13.4276   4.1977   C.ar      1 RES1   0.0000
    33 C15      1.2317  15.4252   3.1676   C.3       1 RES1   0.0000
    34 C16     -0.0010  14.5511   3.3693   C.3       1 RES1   0.0000
    35 H12      0.0453  13.7787   2.7687   H         1 RES1   0.0000
    36 H13     -0.8066  15.0726   3.1715   H         1 RES1   0.0000
    37 H14     -0.0323  14.2402   4.2981   H         1 RES1   0.0000
    38 C17      1.2966  15.8630   1.6969   C.3       1 RES1   0.0000
    39 H15      2.0985  16.4079   1.5533   H         1 RES1   0.0000
    40 H16      0.5000  16.3892   1.4765   H         1 RES1   0.0000
    41 H17      1.3339  15.0698   1.1215   H         1 RES1   0.0000
    42 C18      1.0885  16.6730   4.0649   C.3       1 RES1   0.0000
    43 H18      1.0806  16.3991   5.0065   H         1 RES1   0.0000
    44 H19      0.2513  17.1343   3.8509   H         1 RES1   0.0000
    45 H20      1.8442  17.2764   3.9072   H         1 RES1   0.0000
    46 C19      6.2516  15.6605   3.9253   C.3       1 RES1   0.0000
    47 C20      6.0190  17.0978   3.4562   C.3       1 RES1   0.0000
    48 H21      5.7056  17.0924   2.5280   H         1 RES1   0.0000
    49 H22      6.8593  17.6007   3.5146   H         1 RES1   0.0000
    50 H23      5.3450  17.5228   4.0267   H         1 RES1   0.0000
    51 C21      7.3208  15.0514   3.0058   C.3       1 RES1   0.0000
    52 H24      7.5341  14.1443   3.3081   H         1 RES1   0.0000
    53 H25      8.1301  15.6046   3.0349   H         1 RES1   0.0000
    54 H26      6.9806  15.0180   2.0876   H         1 RES1   0.0000
    55 C22      6.7711  15.7165   5.3663   C.3       1 RES1   0.0000
    56 H27      6.1610  16.2539   5.9128   H         1 RES1   0.0000
    57 H28      7.6629  16.1222   5.3769   H         1 RES1   0.0000
    58 H29      6.8208  14.8076   5.7302   H         1 RES1   0.0000
    59 C23      5.0641  11.6534   7.6241   C.ar      1 RES1   0.0000
    60 H30      4.3895  11.5759   6.9592   H         1 RES1   0.0000
    61 C24      4.6688  11.7603   8.9362   C.ar      1 RES1   0.0000
    62 H31      3.7490  11.7252   9.1714   H         1 RES1   0.0000
    63 C25      5.6415  11.9178   9.9018   C.ar      1 RES1   0.0000
    64 H32      5.4065  11.9862  10.8203   H         1 RES1   0.0000
    65 C26      6.9643  11.9727   9.5032   C.ar      1 RES1   0.0000
    66 H33      7.6477  12.1054  10.1495   H         1 RES1   0.0000
    67 C27      7.2995  11.8351   8.1619   C.ar      1 RES1   0.0000
    68 C28      8.7353  11.9223   7.7526   C.3       1 RES1   0.0000
    69 H34      9.0987  11.0037   7.6795   H         1 RES1   0.0000
    70 H35      9.2393  12.3867   8.4664   H         1 RES1   0.0000
    71 C29      8.9792  12.6499   6.4316   C.3       1 RES1   0.0000
    72 H36      8.4171  13.4639   6.3942   H         1 RES1   0.0000
    73 H37      9.9274  12.9298   6.3788   H         1 RES1   0.0000
    74 C30      9.6350  11.5213   4.4841   C.2       1 RES1   0.0000
    75 H38     10.4654  11.9398   4.6770   H         1 RES1   0.0000
    76 C31      9.6078  10.6664   3.3231   C.ar      1 RES1   0.0000
    77 C32     10.8444  10.4072   2.6980   C.ar      1 RES1   0.0000
    78 H39     11.6320  10.8100   3.0435   H         1 RES1   0.0000
    79 C33     10.9372   9.5815   1.5965   C.ar      1 RES1   0.0000
    80 C34      9.7335   9.0450   1.1136   C.ar      1 RES1   0.0000
    81 H40      9.7758   8.4979   0.3380   H         1 RES1   0.0000
    82 C35      8.4842   9.2525   1.6837   C.ar      1 RES1   0.0000
    83 C36      8.4184  10.0897   2.8369   C.ar      1 RES1   0.0000
    84 C37     12.2640   9.2087   0.9216   C.3       1 RES1   0.0000
    85 C38     13.4637   9.7898   1.6335   C.3       1 RES1   0.0000
    86 H41     13.4362  10.7668   1.5721   H         1 RES1   0.0000
    87 H42     14.2847   9.4578   1.2136   H         1 RES1   0.0000
    88 H43     13.4463   9.5194   2.5758   H         1 RES1   0.0000
    89 C39     12.2690   9.6546  -0.5391   C.3       1 RES1   0.0000
    90 H44     11.4967   9.2682  -1.0020   H         1 RES1   0.0000
    91 H45     13.0942   9.3489  -0.9713   H         1 RES1   0.0000
    92 H46     12.2203  10.6316  -0.5821   H         1 RES1   0.0000
    93 C40     12.4041   7.6672   0.9166   C.3       1 RES1   0.0000
    94 H47     12.3622   7.3317   1.8367   H         1 RES1   0.0000
    95 H48     13.2640   7.4190   0.5172   H         1 RES1   0.0000
    96 H49     11.6749   7.2749   0.3926   H         1 RES1   0.0000
    97 C41      7.2231   8.5701   1.1334   C.3       1 RES1   0.0000
    98 C42      7.5072   7.7940  -0.1576   C.3       1 RES1   0.0000
    99 H50      7.8095   8.4153  -0.8518   H         1 RES1   0.0000
   100 H51      6.6889   7.3445  -0.4540   H         1 RES1   0.0000
   101 H52      8.2045   7.1262   0.0085   H         1 RES1   0.0000
   102 C43      6.7076   7.5599   2.1678   C.3       1 RES1   0.0000
   103 H53      7.3671   6.8446   2.2822   H         1 RES1   0.0000
   104 H54      5.8610   7.1768   1.8572   H         1 RES1   0.0000
   105 H55      6.5655   8.0141   3.0247   H         1 RES1   0.0000
   106 C44      6.1457   9.6184   0.8099   C.3       1 RES1   0.0000
   107 H56      5.8869  10.0855   1.6318   H         1 RES1   0.0000
   108 H57      5.3609   9.1738   0.4267   H         1 RES1   0.0000
   109 H58      6.5023  10.2654   0.1656   H         1 RES1   0.0000
   110 Cl1     12.3933  10.9170   7.2289   Cl        2 RES2   0.0000
   111 O3      11.3535   9.9849   6.8208   O.3       2 RES2  -1.0000
   112 O4      12.5455  11.9105   6.2111   O.2       2 RES2   0.0000
   113 O5      11.9899  11.5356   8.4577   O.2       2 RES2   0.0000
   114 O6      13.6112  10.2056   7.4124   O.2       2 RES2   0.0000
   115 O7      12.4246   7.7619   5.4144   O.3       3 RES3   0.0000
   116 H59     12.1122   8.5075   5.6414   H         3 RES3   0.0000
   117 C45     12.6824   6.9188   6.6588   C.3       3 RES3   0.0000
   118 H60     13.4166   7.3135   7.1743   H         3 RES3   0.0000
   119 H61     12.9244   6.0079   6.3908   H         3 RES3   0.0000
   120 H62     11.8726   6.8932   7.2101   H         3 RES3   0.0000
@<TRIPOS>BOND
     1     1     2    1
     2     2     8   ar
     3     3     1    1
     4     4     1    1
     5     5     1    1
     6     6     1    1
     7     7     1    1
     8     8     9    1
     9    10     8   ar
    10    11    10    1
    11    12    10   ar
    12    13    12    1
    13    14    12   ar
    14    15    14    1
    15    16     2   ar
    16    17    16    1
    17    18    17    1
    18    19    17    1
    19    20     3    1
    20    21    20    1
    21    22    20    1
    22    23     3    2
    23    24    23    1
    24    25    23    1
    25    26    25   ar
    26    27    26    1
    27    28    26   ar
    28    29    28   ar
    29    30    29    1
    30    31    29   ar
    31    32     6    1
    32    33    28    1
    33    34    33    1
    34    35    34    1
    35    36    34    1
    36    37    34    1
    37    38    33    1
    38    39    38    1
    39    40    38    1
    40    41    38    1
    41    42    33    1
    42    43    42    1
    43    44    42    1
    44    45    42    1
    45    46    31    1
    46    47    46    1
    47    48    47    1
    48    49    47    1
    49    50    47    1
    50    51    46    1
    51    52    51    1
    52    53    51    1
    53    54    51    1
    54    55    46    1
    55    56    55    1
    56    57    55    1
    57    58    55    1
    58    59     4   ar
    59    60    59    1
    60    61    59   ar
    61    62    61    1
    62    63    61   ar
    63    64    63    1
    64    65    63   ar
    65    66    65    1
    66    67     4   ar
    67    68    67    1
    68    69    68    1
    69    70    68    1
    70    71     5    1
    71    72    71    1
    72    73    71    1
    73    74     5    2
    74    75    74    1
    75    76    74    1
    76    77    76   ar
    77    78    77    1
    78    79    77   ar
    79    80    79   ar
    80    81    80    1
    81    82    80   ar
    82    83     7    1
    83    84    79    1
    84    85    84    1
    85    86    85    1
    86    87    85    1
    87    88    85    1
    88    89    84    1
    89    90    89    1
    90    91    89    1
    91    92    89    1
    92    93    84    1
    93    94    93    1
    94    95    93    1
    95    96    93    1
    96    97    82    1
    97    98    97    1
    98    99    98    1
    99   100    98    1
   100   101    98    1
   101   102    97    1
   102   103   102    1
   103   104   102    1
   104   105   102    1
   105   106    97    1
   106   107   106    1
   107   108   106    1
   108   109   106    1
   109    14    16   ar
   110    17    20    1
   111    25    32   ar
   112    31    32   ar
   113    65    67   ar
   114    68    71    1
   115    76    83   ar
   116    82    83   ar
   117   110   111    1
   118   112   110    2
   119   113   110    2
   120   114   110    2
   121   115   116    1
   122   117   115    1
   123   118   117    1
   124   119   117    1
   125   120   117    1
@<TRIPOS>SUBSTRUCTURE
     1 RES1        1 GROUP             0 ****  ****    0  
     2 RES2      110 GROUP             0 ****  ****    0  
     3 RES3      115 GROUP             0 ****  ****    0  
@<TRIPOS>CRYSIN
   11.5299   11.5621   17.9493   74.2077   78.1792   76.8703     2     1
