@<TRIPOS>MOLECULE
JAVVUA
   101   108     3     0     0
SMALL
USER_CHARGES
****
Generated from the CSD

@<TRIPOS>ATOM
     1 Fe1      3.1297  14.6962   4.2357   Fe        1 RES1   2.0000
     2 N1       4.5340  13.2339   4.8448   N.ar      1 RES1   0.0000
     3 C1       5.6350  13.5757   5.5244   C.ar      1 RES1   0.0000
     4 C2       6.5455  12.6441   5.9980   C.ar      1 RES1   0.0000
     5 H1       7.3019  12.9111   6.5071   H         1 RES1   0.0000
     6 C3       6.3153  11.3044   5.7033   C.ar      1 RES1   0.0000
     7 H2       6.9360  10.6407   5.9797   H         1 RES1   0.0000
     8 C4       5.1713  10.9412   5.0013   C.ar      1 RES1   0.0000
     9 H3       4.9949  10.0296   4.7976   H         1 RES1   0.0000
    10 C5       4.2963  11.9360   4.6058   C.ar      1 RES1   0.0000
    11 C6       5.7241  15.0316   5.7051   C.2       1 RES1   0.0000
    12 N2       4.8510  15.8226   5.2120   N.2       1 RES1   0.0000
    13 C7       5.2147  17.1950   5.6523   C.3       1 RES1   0.0000
    14 H4       4.4845  17.5471   6.2381   H         1 RES1   0.0000
    15 C8       6.4717  16.9615   6.5193   C.3       1 RES1   0.0000
    16 H5       7.2409  17.4774   6.1691   H         1 RES1   0.0000
    17 H6       6.3068  17.2334   7.4574   H         1 RES1   0.0000
    18 O1       6.7297  15.5240   6.4336   O.3       1 RES1   0.0000
    19 C9       5.4167  18.1675   4.4865   C.3       1 RES1   0.0000
    20 H7       4.5444  18.2373   4.0030   H         1 RES1   0.0000
    21 C10      6.4588  17.7000   3.4788   C.3       1 RES1   0.0000
    22 H8       7.3359  17.6563   3.9127   H         1 RES1   0.0000
    23 H9       6.4966  18.3325   2.7306   H         1 RES1   0.0000
    24 H10      6.2150  16.8128   3.1447   H         1 RES1   0.0000
    25 C11      5.7439  19.5558   5.0427   C.3       1 RES1   0.0000
    26 H11      5.1016  19.7849   5.7461   H         1 RES1   0.0000
    27 H12      5.6906  20.2171   4.3215   H         1 RES1   0.0000
    28 H13      6.6499  19.5525   5.4170   H         1 RES1   0.0000
    29 C12      3.0133  11.7459   3.9110   C.2       1 RES1   0.0000
    30 N3       2.2365  12.7277   3.6425   N.2       1 RES1   0.0000
    31 C13      1.0773  12.1426   2.8989   C.3       1 RES1   0.0000
    32 H14      1.1466  12.3975   1.9343   H         1 RES1   0.0000
    33 C14      1.3031  10.6254   3.0348   C.3       1 RES1   0.0000
    34 H15      0.6580  10.2271   3.6721   H         1 RES1   0.0000
    35 H16      1.2095  10.1736   2.1590   H         1 RES1   0.0000
    36 O2       2.6830  10.5090   3.5415   O.3       1 RES1   0.0000
    37 C15     -0.2875  12.5765   3.4323   C.3       1 RES1   0.0000
    38 H17     -0.3904  12.2349   4.3658   H         1 RES1   0.0000
    39 C16     -0.4474  14.0893   3.4450   C.3       1 RES1   0.0000
    40 H18      0.1768  14.4773   4.0933   H         1 RES1   0.0000
    41 H19     -1.3654  14.3193   3.6968   H         1 RES1   0.0000
    42 H20     -0.2546  14.4448   2.5519   H         1 RES1   0.0000
    43 C17     -1.3645  11.9304   2.5513   C.3       1 RES1   0.0000
    44 H21     -1.2466  12.2232   1.6228   H         1 RES1   0.0000
    45 H22     -2.2511  12.2000   2.8686   H         1 RES1   0.0000
    46 H23     -1.2834  10.9544   2.5979   H         1 RES1   0.0000
    47 N4       2.1086  16.5400   3.8995   N.ar      1 RES1   0.0000
    48 C18      2.3719  17.2413   2.7913   C.ar      1 RES1   0.0000
    49 C19      1.9032  18.5340   2.6039   C.ar      1 RES1   0.0000
    50 H24      2.0763  19.0088   1.7998   H         1 RES1   0.0000
    51 C20      1.1697  19.1082   3.6393   C.ar      1 RES1   0.0000
    52 H25      0.8394  19.9941   3.5500   H         1 RES1   0.0000
    53 C21      0.9176  18.3939   4.8011   C.ar      1 RES1   0.0000
    54 H26      0.4316  18.7834   5.5178   H         1 RES1   0.0000
    55 C22      1.3951  17.0914   4.8884   C.ar      1 RES1   0.0000
    56 C23      3.3203  16.5251   1.9226   C.2       1 RES1   0.0000
    57 N5       3.7801  15.3722   2.2448   N.2       1 RES1   0.0000
    58 C24      4.7895  15.0027   1.2188   C.3       1 RES1   0.0000
    59 H27      5.6863  14.9328   1.6564   H         1 RES1   0.0000
    60 C25      4.7881  16.2204   0.2748   C.3       1 RES1   0.0000
    61 H28      5.6813  16.6455   0.2495   H         1 RES1   0.0000
    62 H29      4.5348  15.9506  -0.6442   H         1 RES1   0.0000
    63 O3       3.7928  17.1383   0.8401   O.3       1 RES1   0.0000
    64 C26      4.4596  13.6719   0.5463   C.3       1 RES1   0.0000
    65 H30      4.4691  12.9645   1.2529   H         1 RES1   0.0000
    66 C27      5.5545  13.3343  -0.4644   C.3       1 RES1   0.0000
    67 H31      5.5671  14.0126  -1.1715   H         1 RES1   0.0000
    68 H32      5.3754  12.4556  -0.8583   H         1 RES1   0.0000
    69 H33      6.4232  13.3178  -0.0106   H         1 RES1   0.0000
    70 C28      3.0821  13.6577  -0.1035   C.3       1 RES1   0.0000
    71 H34      2.4083  13.9289   0.5539   H         1 RES1   0.0000
    72 H35      2.8810  12.7531  -0.4230   H         1 RES1   0.0000
    73 H36      3.0718  14.2798  -0.8601   H         1 RES1   0.0000
    74 C29      1.2766  16.1581   6.0273   C.2       1 RES1   0.0000
    75 N6       1.9036  15.0460   6.0310   N.2       1 RES1   0.0000
    76 C30      1.5604  14.3460   7.2942   C.3       1 RES1   0.0000
    77 H37      1.0797  13.4967   7.0752   H         1 RES1   0.0000
    78 C31      0.5723  15.3220   7.9738   C.3       1 RES1   0.0000
    79 H38     -0.3116  14.8956   8.1016   H         1 RES1   0.0000
    80 H39      0.9178  15.6160   8.8537   H         1 RES1   0.0000
    81 O4       0.4730  16.4623   7.0447   O.3       1 RES1   0.0000
    82 C32      2.8198  14.0119   8.0975   C.3       1 RES1   0.0000
    83 H40      3.4097  13.4525   7.5158   H         1 RES1   0.0000
    84 C33      3.6121  15.2437   8.5038   C.3       1 RES1   0.0000
    85 H41      3.1380  15.7159   9.2200   H         1 RES1   0.0000
    86 H42      3.7102  15.8391   7.7317   H         1 RES1   0.0000
    87 H43      4.4986  14.9723   8.8218   H         1 RES1   0.0000
    88 C34      2.4515  13.1769   9.3175   C.3       1 RES1   0.0000
    89 H44      3.2650  12.9413   9.8093   H         1 RES1   0.0000
    90 H45      1.9960  12.3580   9.0289   H         1 RES1   0.0000
    91 H46      1.8561  13.6942   9.8996   H         1 RES1   0.0000
    92 Cl1      3.3321  19.1677   8.6047   Cl        2 RES2   0.0000
    93 O5       4.6377  18.5607   8.6795   O.2       2 RES2   0.0000
    94 O6       3.4613  20.5999   8.7317   O.2       2 RES2   0.0000
    95 O7       2.5088  18.6618   9.6684   O.2       2 RES2   0.0000
    96 O8       2.7225  18.8524   7.3341   O.3       2 RES2  -1.0000
    97 Cl2      0.5835  10.2290   7.0881   Cl        3 RES3   0.0000
    98 O9       0.7736   9.5411   8.3263   O.2       3 RES3   0.0000
    99 O10      1.8682  10.5094   6.5080   O.2       3 RES3   0.0000
   100 O11     -0.1344  11.4499   7.3031   O.2       3 RES3   0.0000
   101 O12     -0.1585   9.3973   6.1726   O.3       3 RES3  -1.0000
@<TRIPOS>BOND
     1     1     2    1
     2     2     3   ar
     3     3     4   ar
     4     4     5    1
     5     6     4   ar
     6     7     6    1
     7     8     6   ar
     8     9     8    1
     9    10     2   ar
    10    11     3    1
    11    12     1    1
    12    13    12    1
    13    14    13    1
    14    15    13    1
    15    16    15    1
    16    17    15    1
    17    18    11    1
    18    19    13    1
    19    20    19    1
    20    21    19    1
    21    22    21    1
    22    23    21    1
    23    24    21    1
    24    25    19    1
    25    26    25    1
    26    27    25    1
    27    28    25    1
    28    29    10    1
    29    30     1    1
    30    31    30    1
    31    32    31    1
    32    33    31    1
    33    34    33    1
    34    35    33    1
    35    36    29    1
    36    37    31    1
    37    38    37    1
    38    39    37    1
    39    40    39    1
    40    41    39    1
    41    42    39    1
    42    43    37    1
    43    44    43    1
    44    45    43    1
    45    46    43    1
    46    47     1    1
    47    48    47   ar
    48    49    48   ar
    49    50    49    1
    50    51    49   ar
    51    52    51    1
    52    53    51   ar
    53    54    53    1
    54    55    47   ar
    55    56    48    1
    56    57     1    1
    57    58    57    1
    58    59    58    1
    59    60    58    1
    60    61    60    1
    61    62    60    1
    62    63    56    1
    63    64    58    1
    64    65    64    1
    65    66    64    1
    66    67    66    1
    67    68    66    1
    68    69    66    1
    69    70    64    1
    70    71    70    1
    71    72    70    1
    72    73    70    1
    73    74    55    1
    74    75     1    1
    75    76    75    1
    76    77    76    1
    77    78    76    1
    78    79    78    1
    79    80    78    1
    80    81    74    1
    81    82    76    1
    82    83    82    1
    83    84    82    1
    84    85    84    1
    85    86    84    1
    86    87    84    1
    87    88    82    1
    88    89    88    1
    89    90    88    1
    90    91    88    1
    91     8    10   ar
    92    11    12    2
    93    15    18    1
    94    29    30    2
    95    33    36    1
    96    53    55   ar
    97    56    57    2
    98    60    63    1
    99    74    75    2
   100    78    81    1
   101    92    93    2
   102    94    92    2
   103    95    92    2
   104    96    92    1
   105    97    98    2
   106    99    97    2
   107   100    97    2
   108   101    97    1
@<TRIPOS>SUBSTRUCTURE
     1 RES1        1 GROUP             0 ****  ****    0  
     2 RES2       92 GROUP             0 ****  ****    0  
     3 RES3       97 GROUP             0 ****  ****    0  
@<TRIPOS>CRYSIN
    9.2114   23.2381   17.7802   90.0000   95.5540   90.0000   231     1
