@<TRIPOS>MOLECULE
JEBKEG
   105   112     1     0     0
SMALL
NO_CHARGES
****
Generated from the CSD

@<TRIPOS>ATOM
     1 Fe1      5.0423   3.4677   4.9573   Fe        1 RES1   0.0000
     2 N1       5.6973   3.2788   2.9632   N.2       1 RES1   0.0000
     3 N2       4.4237   3.4767   6.9913   N.2       1 RES1   0.0000
     4 O1       5.8145   1.6363   4.9234   O.3       1 RES1   0.0000
     5 O2       4.5702   5.2398   4.1696   O.3       1 RES1   0.0000
     6 O3       3.1762   2.8115   4.8496   O.3       1 RES1   0.0000
     7 O4       6.5972   4.2726   5.8865   O.2       1 RES1   0.0000
     8 C1       6.4196   1.2535   3.8486   C.2       1 RES1   0.0000
     9 C2       7.0888  -0.0028   3.7529   C.2       1 RES1   0.0000
    10 C3       7.7164  -0.2947   2.5704   C.2       1 RES1   0.0000
    11 C4       7.7313   0.5700   1.4377   C.2       1 RES1   0.0000
    12 C5       7.0878   1.7620   1.5295   C.2       1 RES1   0.0000
    13 C6       6.3995   2.1462   2.7040   C.2       1 RES1   0.0000
    14 C7       7.0429  -0.9853   4.9334   C.3       1 RES1   0.0000
    15 C8       7.8961  -2.2276   4.6681   C.3       1 RES1   0.0000
    16 C9       7.6013  -0.3234   6.2116   C.3       1 RES1   0.0000
    17 C10      5.5878  -1.4072   5.1527   C.3       1 RES1   0.0000
    18 C11      8.5048   0.1566   0.1795   C.3       1 RES1   0.0000
    19 C12      8.1991  -1.2945  -0.1914   C.3       1 RES1   0.0000
    20 C13      8.1244   1.0070  -1.0250   C.3       1 RES1   0.0000
    21 C14      9.9806   0.3035   0.4487   C.3       1 RES1   0.0000
    22 C15      4.7057   5.3798   2.8934   C.2       1 RES1   0.0000
    23 C16      4.2548   6.5489   2.2035   C.2       1 RES1   0.0000
    24 C17      4.4501   6.5862   0.8495   C.2       1 RES1   0.0000
    25 C18      5.0663   5.5547   0.0957   C.2       1 RES1   0.0000
    26 C19      5.4858   4.4371   0.7438   C.2       1 RES1   0.0000
    27 C20      5.3314   4.3084   2.1516   C.2       1 RES1   0.0000
    28 C21      3.6102   7.6956   3.0011   C.3       1 RES1   0.0000
    29 C22      2.4309   7.1829   3.8247   C.3       1 RES1   0.0000
    30 C23      4.6746   8.3052   3.9283   C.3       1 RES1   0.0000
    31 C24      3.1003   8.7968   2.0758   C.3       1 RES1   0.0000
    32 C25      5.2101   5.7022  -1.4337   C.3       1 RES1   0.0000
    33 C26      3.8379   5.5050  -2.0619   C.3       1 RES1   0.0000
    34 C27      6.1826   4.6782  -2.0140   C.3       1 RES1   0.0000
    35 C28      5.7388   7.0868  -1.7887   C.3       1 RES1   0.0000
    36 C29      2.5438   2.5794   5.9523   C.ar      1 RES1   0.0000
    37 C30      1.2580   1.9828   5.9643   C.ar      1 RES1   0.0000
    38 C31      0.6766   1.7975   7.1927   C.ar      1 RES1   0.0000
    39 C32      1.2706   2.1397   8.4310   C.ar      1 RES1   0.0000
    40 C33      2.5049   2.6959   8.4190   C.ar      1 RES1   0.0000
    41 C34      3.1960   2.9448   7.2006   C.ar      1 RES1   0.0000
    42 C35      0.5986   1.5649   4.6422   C.3       1 RES1   0.0000
    43 C36     -0.7806   0.9123   4.8875   C.3       1 RES1   0.0000
    44 C37      0.4105   2.7728   3.7309   C.3       1 RES1   0.0000
    45 C38      1.4705   0.5214   3.9563   C.3       1 RES1   0.0000
    46 C39      0.5184   1.8731   9.7451   C.3       1 RES1   0.0000
    47 C40     -0.6884   2.6495   9.8069   C.3       1 RES1   0.0000
    48 C41      0.2251   0.4234   9.8727   C.3       1 RES1   0.0000
    49 C42      1.3521   2.1966  10.9415   C.3       1 RES1   0.0000
    50 C43      6.5279   4.4461   7.1528   C.2       1 RES1   0.0000
    51 C44      7.5886   5.0969   7.8826   C.2       1 RES1   0.0000
    52 C45      7.4277   5.1998   9.2346   C.2       1 RES1   0.0000
    53 C46      6.2816   4.7552   9.9465   C.2       1 RES1   0.0000
    54 C47      5.2688   4.1873   9.2565   C.2       1 RES1   0.0000
    55 C48      5.3377   3.9935   7.8487   C.2       1 RES1   0.0000
    56 C49      8.7924   5.6558   7.1249   C.3       1 RES1   0.0000
    57 C50      9.5294   4.5463   6.3831   C.3       1 RES1   0.0000
    58 C51      8.3007   6.7116   6.1258   C.3       1 RES1   0.0000
    59 C52      9.7882   6.3308   8.0740   C.3       1 RES1   0.0000
    60 C53      6.2364   4.9693  11.4740   C.3       1 RES1   0.0000
    61 C54      6.5523   6.4373  11.8030   C.3       1 RES1   0.0000
    62 C55      4.8859   4.6387  12.0403   C.3       1 RES1   0.0000
    63 C56      7.3096   4.0711  12.1101   C.3       1 RES1   0.0000
    64 H1       8.1766  -1.1344   2.5026   H         1 RES1   0.0000
    65 H2       7.1009   2.3592   0.7777   H         1 RES1   0.0000
    66 H3       7.5758  -2.6744   3.8805   H         1 RES1   0.0000
    67 H4       7.8366  -2.8225   5.4199   H         1 RES1   0.0000
    68 H5       8.8096  -1.9665   4.5385   H         1 RES1   0.0000
    69 H6       7.0861   0.4602   6.4150   H         1 RES1   0.0000
    70 H7       8.5179  -0.0761   6.0680   H         1 RES1   0.0000
    71 H8       7.5472  -0.9420   6.9414   H         1 RES1   0.0000
    72 H9       5.5401  -2.0232   5.8865   H         1 RES1   0.0000
    73 H10      5.2542  -1.8329   4.3571   H         1 RES1   0.0000
    74 H11      5.0560  -0.6336   5.3481   H         1 RES1   0.0000
    75 H12      8.4257  -1.8675   0.5464   H         1 RES1   0.0000
    76 H13      8.7163  -1.5441  -0.9611   H         1 RES1   0.0000
    77 H14      7.2642  -1.3843  -0.3908   H         1 RES1   0.0000
    78 H15      8.2994   1.9304  -0.8315   H         1 RES1   0.0000
    79 H16      7.1907   0.8902  -1.2164   H         1 RES1   0.0000
    80 H17      8.6434   0.7353  -1.7847   H         1 RES1   0.0000
    81 H18     10.4763   0.0451  -0.3310   H         1 RES1   0.0000
    82 H19     10.2300  -0.2588   1.1865   H         1 RES1   0.0000
    83 H20     10.1772   1.2185   0.6640   H         1 RES1   0.0000
    84 H21      4.1476   7.3642   0.3769   H         1 RES1   0.0000
    85 H22      5.8904   3.7242   0.2453   H         1 RES1   0.0000
    86 H23      2.7352   6.4984   4.4269   H         1 RES1   0.0000
    87 H24      1.7622   6.8201   3.2384   H         1 RES1   0.0000
    88 H25      2.0548   7.9069   4.3311   H         1 RES1   0.0000
    89 H26      4.2856   9.0243   4.4309   H         1 RES1   0.0000
    90 H27      5.4039   8.6403   3.4019   H         1 RES1   0.0000
    91 H28      4.9969   7.6314   4.5306   H         1 RES1   0.0000
    92 H29      2.4335   8.4362   1.4856   H         1 RES1   0.0000
    93 H30      3.8303   9.1442   1.5574   H         1 RES1   0.0000
    94 H31      2.7153   9.5027   2.6003   H         1 RES1   0.0000
    95 H32      3.9064   5.5936  -3.0151   H         1 RES1   0.0000
    96 H33      3.2324   6.1671  -1.7209   H         1 RES1   0.0000
    97 H34      3.5099   4.6297  -1.8445   H         1 RES1   0.0000
    98 H35      5.8740   3.7927  -1.8106   H         1 RES1   0.0000
    99 H36      7.0526   4.8107  -1.6292   H         1 RES1   0.0000
   100 H37      6.2341   4.7895  -2.9652   H         1 RES1   0.0000
   101 H38      5.1437   7.7552  -1.4417   H         1 RES1   0.0000
   102 H39      5.7956   7.1729  -2.7439   H         1 RES1   0.0000
   103 H40      6.6106   7.2039  -1.4038   H         1 RES1   0.0000
   104 H41     -0.1995   1.4047   7.2126   H         1 RES1   0.0000
   105 H42      2.9230   2.9271   9.2505   H         1 RES1   0.0000
@<TRIPOS>BOND
     1     1     2    1
     2     2    13    1
     3     3     1    1
     4     4     1    1
     5     5     1    1
     6     6     1    1
     7     7     1    1
     8     8     4    1
     9     9     8    1
    10    10     9    2
    11    11    10    1
    12    12    11    1
    13    13     8    1
    14    14     9    1
    15    15    14    1
    16    16    14    1
    17    17    14    1
    18    18    11    1
    19    19    18    1
    20    20    18    1
    21    21    18    1
    22    22     5    1
    23    23    22    2
    24    24    23    1
    25    25    24    1
    26    26    25    2
    27    27     2    2
    28    28    23    1
    29    29    28    1
    30    30    28    1
    31    31    28    1
    32    32    25    1
    33    33    32    1
    34    34    32    1
    35    35    32    1
    36    36     6    1
    37    37    36   ar
    38    38    37   ar
    39    39    38   ar
    40    40    39   ar
    41    41     3    1
    42    42    37    1
    43    43    42    1
    44    44    42    1
    45    45    42    1
    46    46    39    1
    47    47    46    1
    48    48    46    1
    49    49    46    1
    50    50     7    2
    51    51    50    1
    52    52    51    2
    53    53    52    1
    54    54    53    2
    55    55     3    2
    56    56    51    1
    57    57    56    1
    58    58    56    1
    59    59    56    1
    60    60    53    1
    61    61    60    1
    62    62    60    1
    63    63    60    1
    64    64    10    1
    65    65    12    1
    66    66    15    1
    67    67    15    1
    68    68    15    1
    69    69    16    1
    70    70    16    1
    71    71    16    1
    72    72    17    1
    73    73    17    1
    74    74    17    1
    75    75    19    1
    76    76    19    1
    77    77    19    1
    78    78    20    1
    79    79    20    1
    80    80    20    1
    81    81    21    1
    82    82    21    1
    83    83    21    1
    84    84    24    1
    85    85    26    1
    86    86    29    1
    87    87    29    1
    88    88    29    1
    89    89    30    1
    90    90    30    1
    91    91    30    1
    92    92    31    1
    93    93    31    1
    94    94    31    1
    95    95    33    1
    96    96    33    1
    97    97    33    1
    98    98    34    1
    99    99    34    1
   100   100    34    1
   101   101    35    1
   102   102    35    1
   103   103    35    1
   104   104    38    1
   105   105    40    1
   106    12    13    2
   107    22    27    1
   108    26    27    1
   109    36    41   ar
   110    40    41   ar
   111    50    55    1
   112    54    55    1
@<TRIPOS>SUBSTRUCTURE
     1 RES1        1 GROUP             0 ****  ****    0  
@<TRIPOS>CRYSIN
   11.7530   12.2860   20.8110   83.2600   73.6200   75.5400     2     1
