@<TRIPOS>MOLECULE
JEFTET
    96   106     2     0     0
SMALL
USER_CHARGES
****
Generated from the CSD

@<TRIPOS>ATOM
     1 Sn1      2.6511   5.9383   2.2127   Sn        1 RES1   0.0000
     2 Fe1      7.4760   6.8629   0.0000   Fe        1 RES1  -2.0000
     3 Cl1      0.3651   5.6940   3.2851   Cl        1 RES1   0.0000
     4 S1       8.2866   7.6072   1.9104   S.o       1 RES1   0.0000
     5 O1       7.8708   8.9231   2.3779   O.2       1 RES1   0.0000
     6 N1       4.8341   6.1236   1.3875   N.1       1 RES1   0.0000
     7 N2       8.8015   4.1686   0.6991   N.1       1 RES1   0.0000
     8 C1       3.5235   6.2605   4.1443   C.ar      1 RES1   0.0000
     9 C2       4.5864   7.1480   4.3140   C.ar      1 RES1   0.0000
    10 C3       5.1743   7.3002   5.5734   C.ar      1 RES1   0.0000
    11 C4       4.6974   6.5663   6.6631   C.ar      1 RES1   0.0000
    12 C5       3.6344   5.6791   6.4923   C.ar      1 RES1   0.0000
    13 C6       3.0467   5.5255   5.2329   C.ar      1 RES1   0.0000
    14 C7       2.5156   3.9894   1.3170   C.ar      1 RES1   0.0000
    15 C8       3.6515   3.2486   0.9894   C.ar      1 RES1   0.0000
    16 C9       3.5192   2.0106   0.3597   C.ar      1 RES1   0.0000
    17 C10      2.2514   1.5121   0.0576   C.ar      1 RES1   0.0000
    18 C11      1.1155   2.2532   0.3842   C.ar      1 RES1   0.0000
    19 C12      1.2477   3.4912   1.0139   C.ar      1 RES1   0.0000
    20 C13      2.0309   7.5201   0.9008   C.ar      1 RES1   0.0000
    21 C14      0.6721   7.6611   0.6222   C.ar      1 RES1   0.0000
    22 C15      0.2405   8.6376  -0.2796   C.ar      1 RES1   0.0000
    23 C16      1.1697   9.4717  -0.9029   C.ar      1 RES1   0.0000
    24 C17      2.5285   9.3310  -0.6254   C.ar      1 RES1   0.0000
    25 C18      2.9601   8.3545   0.2764   C.ar      1 RES1   0.0000
    26 C19      5.8557   6.3751   0.8923   C.1       1 RES1   0.0000
    27 C20      8.2828   5.1438   0.4077   C.1       1 RES1   0.0000
    28 C21      8.0037   6.4800   3.2776   C.3       1 RES1   0.0000
    29 C22     10.0866   7.5552   1.9798   C.3       1 RES1   0.0000
    30 S1A      6.6654   6.1186  -1.9104   S.o       1 RES1   0.0000
    31 C19A     9.0963   7.3507  -0.8923   C.1       1 RES1   0.0000
    32 C20A     6.6691   8.5820  -0.4077   C.1       1 RES1   0.0000
    33 O1A      7.0811   4.8027  -2.3779   O.2       1 RES1   0.0000
    34 C21A     6.9482   7.2458  -3.2776   C.3       1 RES1   0.0000
    35 C22A     4.8653   6.1706  -1.9798   C.3       1 RES1   0.0000
    36 N1A     10.1179   7.6021  -1.3875   N.1       1 RES1   0.0000
    37 N2A      6.1504   9.5572  -0.6991   N.1       1 RES1   0.0000
    38 Sn1A    12.3009   7.7874  -2.2127   Sn        1 RES1   0.0000
    39 Cl1A    14.5868   8.0318  -3.2851   Cl        1 RES1   0.0000
    40 C1A     11.4284   7.4653  -4.1443   C.ar      1 RES1   0.0000
    41 C7A     12.4363   9.7363  -1.3170   C.ar      1 RES1   0.0000
    42 C13A    12.9210   6.2057  -0.9008   C.ar      1 RES1   0.0000
    43 C2A     10.3655   6.5777  -4.3140   C.ar      1 RES1   0.0000
    44 C6A     11.9053   8.2003  -5.2329   C.ar      1 RES1   0.0000
    45 C8A     11.3005  10.4772  -0.9894   C.ar      1 RES1   0.0000
    46 C12A    13.7042  10.2346  -1.0139   C.ar      1 RES1   0.0000
    47 C14A    14.2799   6.0647  -0.6222   C.ar      1 RES1   0.0000
    48 C18A    11.9918   5.3713  -0.2764   C.ar      1 RES1   0.0000
    49 C3A      9.7776   6.4255  -5.5734   C.ar      1 RES1   0.0000
    50 C5A     11.3176   8.0467  -6.4923   C.ar      1 RES1   0.0000
    51 C9A     11.4327  11.7151  -0.3597   C.ar      1 RES1   0.0000
    52 C11A    13.8365  11.4726  -0.3842   C.ar      1 RES1   0.0000
    53 C15A    14.7114   5.0882   0.2796   C.ar      1 RES1   0.0000
    54 C17A    12.4234   4.3948   0.6254   C.ar      1 RES1   0.0000
    55 C4A     10.2546   7.1595  -6.6631   C.ar      1 RES1   0.0000
    56 C10A    12.7006  12.2137  -0.0576   C.ar      1 RES1   0.0000
    57 C16A    13.7822   4.2541   0.9029   C.ar      1 RES1   0.0000
    58 P1       3.3205   3.2120  -5.2318   P.3       2 RES2   0.0000
    59 P2       4.4847   0.7198  -4.1048   P.3       2 RES2   0.0000
    60 N3       3.9596   2.2140  -4.2008   N.1       2 RES2   1.0000
    61 C23      4.5625   4.2662  -5.9875   C.ar      2 RES2   0.0000
    62 C24      4.3609   5.6379  -6.1476   C.ar      2 RES2   0.0000
    63 C25      5.3060   6.4066  -6.8285   C.ar      2 RES2   0.0000
    64 C26      6.4523   5.8053  -7.3504   C.ar      2 RES2   0.0000
    65 C27      6.6522   4.4333  -7.1892   C.ar      2 RES2   0.0000
    66 C28      5.7072   3.6646  -6.5083   C.ar      2 RES2   0.0000
    67 C29      2.1425   4.2384  -4.3684   C.ar      2 RES2   0.0000
    68 C30      2.1926   4.2900  -2.9724   C.ar      2 RES2   0.0000
    69 C31      1.3258   5.1315  -2.2733   C.ar      2 RES2   0.0000
    70 C32      0.4106   5.9217  -2.9713   C.ar      2 RES2   0.0000
    71 C33      0.3607   5.8687  -4.3673   C.ar      2 RES2   0.0000
    72 C34      1.2273   5.0286  -5.0664   C.ar      2 RES2   0.0000
    73 C35      2.4133   2.4188  -6.5563   C.ar      2 RES2   0.0000
    74 C36      1.3726   1.5655  -6.1849   C.ar      2 RES2   0.0000
    75 C37      0.7669   0.7506  -7.1423   C.ar      2 RES2   0.0000
    76 C38      1.1986   0.7890  -8.4710   C.ar      2 RES2   0.0000
    77 C39      2.2374   1.6437  -8.8425   C.ar      2 RES2   0.0000
    78 C40      2.8448   2.4586  -7.8851   C.ar      2 RES2   0.0000
    79 C41      5.4578   0.2384  -5.5051   C.ar      2 RES2   0.0000
    80 C42      4.8048   0.0229  -6.7218   C.ar      2 RES2   0.0000
    81 C43      5.5453  -0.1438  -7.8947   C.ar      2 RES2   0.0000
    82 C44      6.9389  -0.0952  -7.8499   C.ar      2 RES2   0.0000
    83 C45      7.5921   0.1190  -6.6332   C.ar      2 RES2   0.0000
    84 C46      6.8514   0.2870  -5.4602   C.ar      2 RES2   0.0000
    85 C47      5.5005   0.6051  -2.6522   C.ar      2 RES2   0.0000
    86 C48      6.0525   1.7640  -2.1036   C.ar      2 RES2   0.0000
    87 C49      6.8281   1.6874  -0.9435   C.ar      2 RES2   0.0000
    88 C50      7.0497   0.4540  -0.3298   C.ar      2 RES2   0.0000
    89 C51      6.4978  -0.7053  -0.8773   C.ar      2 RES2   0.0000
    90 C52      5.7224  -0.6297  -2.0385   C.ar      2 RES2   0.0000
    91 C53      3.1544  -0.4585  -3.9116   C.ar      2 RES2   0.0000
    92 C54      3.2434  -1.7687  -4.3844   C.ar      2 RES2   0.0000
    93 C55      2.1950  -2.6624  -4.1603   C.ar      2 RES2   0.0000
    94 C56      1.0596  -2.2468  -3.4644   C.ar      2 RES2   0.0000
    95 C57      0.9706  -0.9366  -2.9916   C.ar      2 RES2   0.0000
    96 C58      2.0189  -0.0429  -3.2157   C.ar      2 RES2   0.0000
@<TRIPOS>BOND
     1     1     3    1
     2     2     4    1
     3     4     5    2
     4     6     1    1
     5     7    27    3
     6     8     1    1
     7     9     8   ar
     8    10     9   ar
     9    11    10   ar
    10    12    11   ar
    11    13     8   ar
    12    14     1    1
    13    15    14   ar
    14    16    15   ar
    15    17    16   ar
    16    18    17   ar
    17    19    14   ar
    18    20     1    1
    19    21    20   ar
    20    22    21   ar
    21    23    22   ar
    22    24    23   ar
    23    25    20   ar
    24    26     2    1
    25    27     2    1
    26    28     4    1
    27    29     4    1
    28    30     2    1
    29    31     2    1
    30    32     2    1
    31    33    30    2
    32    34    30    1
    33    35    30    1
    34    36    31    3
    35    37    32    3
    36    38    36    1
    37    39    38    1
    38    40    38    1
    39    41    38    1
    40    42    38    1
    41    43    40   ar
    42    44    40   ar
    43    45    41   ar
    44    46    41   ar
    45    47    42   ar
    46    48    42   ar
    47    49    43   ar
    48    50    44   ar
    49    51    45   ar
    50    52    46   ar
    51    53    47   ar
    52    54    48   ar
    53    55    49   ar
    54    56    51   ar
    55    57    53   ar
    56     6    26    3
    57    12    13   ar
    58    18    19   ar
    59    24    25   ar
    60    50    55   ar
    61    52    56   ar
    62    54    57   ar
    63    58    60    2
    64    59    60    2
    65    61    58    1
    66    62    61   ar
    67    63    62   ar
    68    64    63   ar
    69    65    64   ar
    70    66    61   ar
    71    67    58    1
    72    68    67   ar
    73    69    68   ar
    74    70    69   ar
    75    71    70   ar
    76    72    67   ar
    77    73    58    1
    78    74    73   ar
    79    75    74   ar
    80    76    75   ar
    81    77    76   ar
    82    78    73   ar
    83    79    59    1
    84    80    79   ar
    85    81    80   ar
    86    82    81   ar
    87    83    82   ar
    88    84    79   ar
    89    85    59    1
    90    86    85   ar
    91    87    86   ar
    92    88    87   ar
    93    89    88   ar
    94    90    85   ar
    95    91    59    1
    96    92    91   ar
    97    93    92   ar
    98    94    93   ar
    99    95    94   ar
   100    96    91   ar
   101    65    66   ar
   102    71    72   ar
   103    77    78   ar
   104    83    84   ar
   105    89    90   ar
   106    95    96   ar
@<TRIPOS>SUBSTRUCTURE
     1 RES1        1 GROUP             0 ****  ****    0  
     2 RES2       58 GROUP             0 ****  ****    0  
@<TRIPOS>CRYSIN
   17.2390   13.9150   11.1400  106.6500   87.1000   99.4600     2     1
