@<TRIPOS>MOLECULE
JEHGUC
   142   153     1     0     0
SMALL
NO_CHARGES
****
Generated from the CSD

@<TRIPOS>ATOM
     1 Fe1      7.4217  14.8422   5.6197   Fe        1 RES1   0.0000
     2 N1       8.0180  14.4499   3.6767   N.2       1 RES1   0.0000
     3 C1       7.6332  15.6531   3.2614   C.2       1 RES1   0.0000
     4 C2       7.9985  16.1536   1.9586   C.1       1 RES1   0.0000
     5 N2       6.9561  16.3412   4.1718   N.2       1 RES1   0.0000
     6 N3       9.0942  15.8902   6.3556   N.2       1 RES1   0.0000
     7 C3       8.4184  16.4531   0.8875   C.1       1 RES1   0.0000
     8 C4       8.9365  16.7065  -0.4272   C.3       1 RES1   0.0000
     9 H1       8.7539  17.5907  -0.8083   H         1 RES1   0.0000
    10 N4       7.1618  15.8955   7.4372   N.2       1 RES1   0.0000
    11 C5       8.9625  15.5530  -1.3860   C.3       1 RES1   0.0000
    12 H2       8.6369  14.6957  -1.0692   H         1 RES1   0.0000
    13 H3       8.7776  15.7387  -2.3200   H         1 RES1   0.0000
    14 N5       5.6788  13.6604   5.5648   N.2       1 RES1   0.0000
    15 C6      10.2308  16.0577  -0.8225   C.3       1 RES1   0.0000
    16 H4      10.8219  16.5517  -1.4123   H         1 RES1   0.0000
    17 H5      10.6812  15.5087  -0.1615   H         1 RES1   0.0000
    18 N6       7.5428  12.9572   6.5535   N.2       1 RES1   0.0000
    19 C7       8.5613  13.4481   2.7588   C.3       1 RES1   0.0000
    20 H6       9.2653  13.8582   2.2141   H         1 RES1   0.0000
    21 C8       9.1595  12.3179   3.5792   C.3       1 RES1   0.0000
    22 H7       8.4976  12.0101   4.2180   H         1 RES1   0.0000
    23 H8       9.9160  12.6607   4.0802   H         1 RES1   0.0000
    24 C9       9.6201  11.1361   2.7412   C.3       1 RES1   0.0000
    25 H9       9.9112  10.4204   3.3277   H         1 RES1   0.0000
    26 H10     10.3771  11.4038   2.1970   H         1 RES1   0.0000
    27 C10      8.5058  10.6259   1.8385   C.3       1 RES1   0.0000
    28 H11      8.8445   9.9121   1.2757   H         1 RES1   0.0000
    29 H12      7.7866  10.2666   2.3811   H         1 RES1   0.0000
    30 C11      7.9739  11.7495   0.9696   C.3       1 RES1   0.0000
    31 H13      7.2494  11.4183   0.4168   H         1 RES1   0.0000
    32 H14      8.6787  12.0690   0.3842   H         1 RES1   0.0000
    33 C12      7.4708  12.8993   1.8400   C.3       1 RES1   0.0000
    34 H15      7.1468  13.6131   1.2687   H         1 RES1   0.0000
    35 H16      6.7268  12.5885   2.3792   H         1 RES1   0.0000
    36 C13      6.5730  17.7268   3.9491   C.3       1 RES1   0.0000
    37 H17      6.7895  17.9649   3.0236   H         1 RES1   0.0000
    38 C14      5.0741  17.8951   4.1538   C.3       1 RES1   0.0000
    39 H18      4.8389  17.6112   5.0511   H         1 RES1   0.0000
    40 H19      4.5989  17.3281   3.5265   H         1 RES1   0.0000
    41 C15      4.6389  19.3511   3.9520   C.3       1 RES1   0.0000
    42 H20      4.7815  19.6041   3.0266   H         1 RES1   0.0000
    43 H21      3.6911  19.4327   4.1422   H         1 RES1   0.0000
    44 C16      5.4110  20.2829   4.8496   C.3       1 RES1   0.0000
    45 H22      5.1649  21.1992   4.6470   H         1 RES1   0.0000
    46 H23      5.1732  20.1073   5.7736   H         1 RES1   0.0000
    47 C17      6.8902  20.1186   4.6796   C.3       1 RES1   0.0000
    48 H24      7.3505  20.6821   5.3209   H         1 RES1   0.0000
    49 H25      7.1442  20.4092   3.7898   H         1 RES1   0.0000
    50 C18      8.4227  16.3041   7.4192   C.2       1 RES1   0.0000
    51 C19      7.3232  18.6696   4.8796   C.3       1 RES1   0.0000
    52 H26      8.2759  18.5938   4.7127   H         1 RES1   0.0000
    53 H27      7.1593  18.4098   5.7996   H         1 RES1   0.0000
    54 C20      9.0009  17.1268   8.4651   C.1       1 RES1   0.0000
    55 C21      9.4537  17.7992   9.3447   C.1       1 RES1   0.0000
    56 C22     10.0082  18.6303  10.3848   C.3       1 RES1   0.0000
    57 H28     10.8458  19.0853  10.1563   H         1 RES1   0.0000
    58 C23      9.1020  19.3829  11.3139   C.3       1 RES1   0.0000
    59 H29      9.3772  20.2701  11.5923   H         1 RES1   0.0000
    60 H30      8.1448  19.2718  11.1978   H         1 RES1   0.0000
    61 C24      9.8625  18.2408  11.8284   C.3       1 RES1   0.0000
    62 H31      9.3734  17.4270  12.0285   H         1 RES1   0.0000
    63 H32     10.6058  18.4255  12.4230   H         1 RES1   0.0000
    64 C25     10.4210  16.4198   6.0453   C.3       1 RES1   0.0000
    65 H33     10.4705  17.3382   6.3841   H         1 RES1   0.0000
    66 C26     11.5466  15.6164   6.6836   C.3       1 RES1   0.0000
    67 H34     11.5091  14.6998   6.3683   H         1 RES1   0.0000
    68 H35     11.4325  15.6081   7.6468   H         1 RES1   0.0000
    69 C27     12.9084  16.2209   6.3356   C.3       1 RES1   0.0000
    70 H36     12.9656  17.1188   6.6980   H         1 RES1   0.0000
    71 H37     13.6112  15.6883   6.7396   H         1 RES1   0.0000
    72 C28     13.1106  16.2682   4.8287   C.3       1 RES1   0.0000
    73 H38     13.1356  15.3651   4.4757   H         1 RES1   0.0000
    74 H39     13.9586  16.6941   4.6279   H         1 RES1   0.0000
    75 C29     11.9800  17.0444   4.1646   C.3       1 RES1   0.0000
    76 H40     12.0923  17.0166   3.2015   H         1 RES1   0.0000
    77 H41     12.0185  17.9724   4.4443   H         1 RES1   0.0000
    78 C30     10.6174  16.4591   4.5336   C.3       1 RES1   0.0000
    79 H42      9.9171  16.9969   4.1322   H         1 RES1   0.0000
    80 H43     10.5465  15.5599   4.1768   H         1 RES1   0.0000
    81 C31      6.2968  16.0520   8.5963   C.3       1 RES1   0.0000
    82 H44      6.8168  16.4561   9.3221   H         1 RES1   0.0000
    83 C32      5.7971  14.6802   9.0590   C.3       1 RES1   0.0000
    84 H45      5.3644  14.2308   8.3163   H         1 RES1   0.0000
    85 H46      6.5548  14.1404   9.3338   H         1 RES1   0.0000
    86 C33      4.8176  14.7927  10.2156   C.3       1 RES1   0.0000
    87 H47      4.4941  13.9097  10.4542   H         1 RES1   0.0000
    88 H48      5.2685  15.1673  10.9880   H         1 RES1   0.0000
    89 C34      3.6425  15.6773   9.8356   C.3       1 RES1   0.0000
    90 H49      3.0395  15.7568  10.5911   H         1 RES1   0.0000
    91 H50      3.1546  15.2700   9.1028   H         1 RES1   0.0000
    92 C35      4.1206  17.0586   9.4208   C.3       1 RES1   0.0000
    93 H51      4.5385  17.4964  10.1789   H         1 RES1   0.0000
    94 H52      3.3600  17.5944   9.1465   H         1 RES1   0.0000
    95 C36      5.1223  16.9706   8.2692   C.3       1 RES1   0.0000
    96 H53      4.6695  16.6393   7.4779   H         1 RES1   0.0000
    97 H54      5.4581  17.8586   8.0704   H         1 RES1   0.0000
    98 C37      6.2681  12.7046   6.2791   C.2       1 RES1   0.0000
    99 C38      5.5793  11.5318   6.7590   C.1       1 RES1   0.0000
   100 C39      5.0321  10.5631   7.1936   C.1       1 RES1   0.0000
   101 C40      4.3961   9.3796   7.6879   C.3       1 RES1   0.0000
   102 H55      3.9646   9.4595   8.5641   H         1 RES1   0.0000
   103 C41      4.9945   8.0307   7.3670   C.3       1 RES1   0.0000
   104 H56      5.7992   8.0110   6.8258   H         1 RES1   0.0000
   105 H57      4.9438   7.3411   8.0473   H         1 RES1   0.0000
   106 C42      3.7360   8.4448   6.7133   C.3       1 RES1   0.0000
   107 H58      2.9179   8.0063   6.9932   H         1 RES1   0.0000
   108 H59      3.7730   8.6759   5.7720   H         1 RES1   0.0000
   109 C43      4.3175  13.5368   5.0625   C.3       1 RES1   0.0000
   110 H60      4.0400  12.5999   5.1365   H         1 RES1   0.0000
   111 C44      4.2710  13.9443   3.5957   C.3       1 RES1   0.0000
   112 H61      4.8203  13.3346   3.0785   H         1 RES1   0.0000
   113 H62      4.6440  14.8346   3.5007   H         1 RES1   0.0000
   114 C45      2.8498  13.9340   3.0380   C.3       1 RES1   0.0000
   115 H63      2.8603  14.2619   2.1252   H         1 RES1   0.0000
   116 H64      2.5159  13.0234   3.0255   H         1 RES1   0.0000
   117 C46      1.9262  14.7948   3.8686   C.3       1 RES1   0.0000
   118 H65      1.0226  14.7316   3.5218   H         1 RES1   0.0000
   119 H66      2.2070  15.7215   3.8131   H         1 RES1   0.0000
   120 C47      1.9494  14.3427   5.3111   C.3       1 RES1   0.0000
   121 H67      1.6093  13.4361   5.3710   H         1 RES1   0.0000
   122 H68      1.3713  14.9158   5.8385   H         1 RES1   0.0000
   123 C48      3.3611  14.3920   5.8733   C.3       1 RES1   0.0000
   124 H69      3.6740  15.3102   5.8737   H         1 RES1   0.0000
   125 H70      3.3515  14.0792   6.7915   H         1 RES1   0.0000
   126 C49      8.2973  12.1318   7.4948   C.3       1 RES1   0.0000
   127 H71      7.6928  11.8554   8.2148   H         1 RES1   0.0000
   128 C50      9.4112  12.9691   8.1018   C.3       1 RES1   0.0000
   129 H72      9.0224  13.7229   8.5726   H         1 RES1   0.0000
   130 H73      9.9704  13.3188   7.3906   H         1 RES1   0.0000
   131 C51     10.2767  12.1651   9.0707   C.3       1 RES1   0.0000
   132 H74     11.0093  12.7191   9.3824   H         1 RES1   0.0000
   133 H75      9.7449  11.9109   9.8411   H         1 RES1   0.0000
   134 C52     10.8349  10.9182   8.4127   C.3       1 RES1   0.0000
   135 H76     11.3293  10.4009   9.0674   H         1 RES1   0.0000
   136 H77     11.4481  11.1729   7.7056   H         1 RES1   0.0000
   137 C53      9.7119  10.0615   7.8291   C.3       1 RES1   0.0000
   138 H78      9.1469   9.7338   8.5459   H         1 RES1   0.0000
   139 H79     10.0923   9.2957   7.3706   H         1 RES1   0.0000
   140 C54      8.8724  10.8816   6.8480   C.3       1 RES1   0.0000
   141 H80      9.4249  11.1384   6.0930   H         1 RES1   0.0000
   142 H81      8.1465  10.3326   6.5132   H         1 RES1   0.0000
@<TRIPOS>BOND
     1     1     2    1
     2     2     3   un
     3     3     4    1
     4     4     7    3
     5     5     1    1
     6     6     1    1
     7     7     8    1
     8     8     9    1
     9    10     1    1
    10    11     8    1
    11    12    11    1
    12    13    11    1
    13    14     1    1
    14    15     8    1
    15    16    15    1
    16    17    15    1
    17    18     1    1
    18    19     2    1
    19    20    19    1
    20    21    19    1
    21    22    21    1
    22    23    21    1
    23    24    21    1
    24    25    24    1
    25    26    24    1
    26    27    24    1
    27    28    27    1
    28    29    27    1
    29    30    27    1
    30    31    30    1
    31    32    30    1
    32    33    19    1
    33    34    33    1
    34    35    33    1
    35    36     5    1
    36    37    36    1
    37    38    36    1
    38    39    38    1
    39    40    38    1
    40    41    38    1
    41    42    41    1
    42    43    41    1
    43    44    41    1
    44    45    44    1
    45    46    44    1
    46    47    44    1
    47    48    47    1
    48    49    47    1
    49    50     6   un
    50    51    36    1
    51    52    51    1
    52    53    51    1
    53    54    50    1
    54    55    54    3
    55    56    55    1
    56    57    56    1
    57    58    56    1
    58    59    58    1
    59    60    58    1
    60    61    56    1
    61    62    61    1
    62    63    61    1
    63    64     6    1
    64    65    64    1
    65    66    64    1
    66    67    66    1
    67    68    66    1
    68    69    66    1
    69    70    69    1
    70    71    69    1
    71    72    69    1
    72    73    72    1
    73    74    72    1
    74    75    72    1
    75    76    75    1
    76    77    75    1
    77    78    64    1
    78    79    78    1
    79    80    78    1
    80    81    10    1
    81    82    81    1
    82    83    81    1
    83    84    83    1
    84    85    83    1
    85    86    83    1
    86    87    86    1
    87    88    86    1
    88    89    86    1
    89    90    89    1
    90    91    89    1
    91    92    89    1
    92    93    92    1
    93    94    92    1
    94    95    81    1
    95    96    95    1
    96    97    95    1
    97    98    14   un
    98    99    98    1
    99   100    99    3
   100   101   100    1
   101   102   101    1
   102   103   101    1
   103   104   103    1
   104   105   103    1
   105   106   101    1
   106   107   106    1
   107   108   106    1
   108   109    14    1
   109   110   109    1
   110   111   109    1
   111   112   111    1
   112   113   111    1
   113   114   111    1
   114   115   114    1
   115   116   114    1
   116   117   114    1
   117   118   117    1
   118   119   117    1
   119   120   117    1
   120   121   120    1
   121   122   120    1
   122   123   109    1
   123   124   123    1
   124   125   123    1
   125   126    18    1
   126   127   126    1
   127   128   126    1
   128   129   128    1
   129   130   128    1
   130   131   128    1
   131   132   131    1
   132   133   131    1
   133   134   131    1
   134   135   134    1
   135   136   134    1
   136   137   134    1
   137   138   137    1
   138   139   137    1
   139   140   126    1
   140   141   140    1
   141   142   140    1
   142     3     5   un
   143    10    50   un
   144    11    15    1
   145    18    98   un
   146    30    33    1
   147    47    51    1
   148    58    61    1
   149    75    78    1
   150    92    95    1
   151   103   106    1
   152   120   123    1
   153   137   140    1
@<TRIPOS>SUBSTRUCTURE
     1 RES1        1 GROUP             0 ****  ****    0  
@<TRIPOS>CRYSIN
   14.5880   18.9090   18.3800   90.0000  101.6400   90.0000   231     1
