@<TRIPOS>MOLECULE
JEVXOB
   134   148     2     0     0
SMALL
NO_CHARGES
****
Generated from the CSD

@<TRIPOS>ATOM
     1 Dy1      2.2602   7.5511  16.9591   Dy        1 RES1   0.0000
     2 Fe1      2.2602   3.9330  16.9591   Fe        1 RES1   0.0000
     3 O1       0.3867   7.3379  18.8022   O.3       1 RES1   0.0000
     4 O2       1.0150   5.6360  16.9514   O.3       1 RES1   0.0000
     5 O3       4.4419   8.2864  17.8608   O.3       1 RES1   0.0000
     6 O4       3.1043   7.3827  19.2863   O.3       1 RES1   0.0000
     7 O5       2.2602  11.6693  16.9591   O.2       1 RES1   0.0000
     8 O6       1.5536   2.5068  11.8718   O.3       1 RES1   0.0000
     9 H1       1.2535   1.9748  11.3247   H         1 RES1   0.0000
    10 N1       4.2456   7.8564  19.0315   N.pl3     1 RES1   0.0000
    11 O7       1.8444   9.7810  17.9502   O.3       1 RES1   0.0000
    12 N2       0.3387   2.8672  16.1122   N.3       1 RES1   0.0000
    13 O8       5.1205   7.8934  19.8910   O.2       1 RES1   0.0000
    14 N3       3.0299   2.8873  15.1128   N.3       1 RES1   0.0000
    15 O9       2.6901   1.4780   9.6872   O.3       1 RES1   0.0000
    16 C1      -0.6070   6.4378  18.4714   C.ar      1 RES1   0.0000
    17 N4       2.2602  10.4448  16.9591   N.pl3     1 RES1   0.0000
    18 C2      -0.2447   5.5836  17.4314   C.ar      1 RES1   0.0000
    19 C3      -1.8349   6.3194  19.1059   C.ar      1 RES1   0.0000
    20 H2      -2.0474   6.8758  19.8202   H         1 RES1   0.0000
    21 C4      -1.1830   4.6752  16.9516   C.ar      1 RES1   0.0000
    22 C5      -2.7542   5.3574  18.6649   C.ar      1 RES1   0.0000
    23 C6       2.1290   1.7287  14.8668   C.3       1 RES1   0.0000
    24 H3       2.2576   1.0646  15.5621   H         1 RES1   0.0000
    25 H4       2.3513   1.3202  14.0155   H         1 RES1   0.0000
    26 C7      -0.7823   3.7985  15.8059   C.3       1 RES1   0.0000
    27 H5      -1.5522   3.2778  15.5286   H         1 RES1   0.0000
    28 H6      -0.5240   4.3612  15.0592   H         1 RES1   0.0000
    29 C8       0.1116   2.3955  18.5471   C.3       1 RES1   0.0000
    30 H7      -0.5165   3.1197  18.6950   H         1 RES1   0.0000
    31 H8      -0.0964   1.6884  19.1778   H         1 RES1   0.0000
    32 C9       0.6887   2.1707  14.8525   C.3       1 RES1   0.0000
    33 H9       0.5407   2.7668  14.1017   H         1 RES1   0.0000
    34 H10      0.1140   1.3974  14.7403   H         1 RES1   0.0000
    35 C10      4.9019   2.1739  10.4328   C.ar      1 RES1   0.0000
    36 H11      5.3144   1.7810   9.6977   H         1 RES1   0.0000
    37 C11      3.5353   2.0658  10.5881   C.ar      1 RES1   0.0000
    38 C12      0.1754   8.1586  19.9540   C.3       1 RES1   0.0000
    39 H12      0.9549   8.6965  20.1110   H         1 RES1   0.0000
    40 H13      0.0119   7.6013  20.7184   H         1 RES1   0.0000
    41 H14     -0.5825   8.7289  19.8059   H         1 RES1   0.0000
    42 C13     -4.0557   5.1447  19.4030   C.3       1 RES1   0.0000
    43 H15     -4.0520   5.6598  20.2130   H         1 RES1   0.0000
    44 H16     -4.1542   4.2138  19.6162   H         1 RES1   0.0000
    45 H17     -4.7875   5.4251  18.8486   H         1 RES1   0.0000
    46 C14     -2.4289   4.5791  17.5730   C.ar      1 RES1   0.0000
    47 H18     -3.0552   3.9759  17.2432   H         1 RES1   0.0000
    48 C15      2.8993   2.6088  11.7135   C.ar      1 RES1   0.0000
    49 C16      3.0367   3.8262  13.9415   C.3       1 RES1   0.0000
    50 H19      3.5172   4.6301  14.1942   H         1 RES1   0.0000
    51 H20      2.1215   4.0824  13.7471   H         1 RES1   0.0000
    52 C17      3.6600   3.2709  12.6759   C.ar      1 RES1   0.0000
    53 C18     -0.0621   1.8705  17.1420   C.3       1 RES1   0.0000
    54 H21      0.4730   1.0687  17.0338   H         1 RES1   0.0000
    55 H22     -0.9914   1.6285  17.0056   H         1 RES1   0.0000
    56 C19      5.6698   2.8664  11.3671   C.ar      1 RES1   0.0000
    57 C20      5.0318   3.4167  12.4611   C.ar      1 RES1   0.0000
    58 H23      5.5333   3.9012  13.0765   H         1 RES1   0.0000
    59 C21      7.1557   3.0126  11.1609   C.3       1 RES1   0.0000
    60 H24      7.5579   2.1435  11.1003   H         1 RES1   0.0000
    61 H25      7.5360   3.4906  11.9020   H         1 RES1   0.0000
    62 H26      7.3199   3.4989  10.3493   H         1 RES1   0.0000
    63 C22      3.2962   0.7303   8.6521   C.3       1 RES1   0.0000
    64 H27      3.8230   1.3150   8.1019   H         1 RES1   0.0000
    65 H28      2.6161   0.3147   8.1173   H         1 RES1   0.0000
    66 H29      3.8611   0.0549   9.0338   H         1 RES1   0.0000
    67 O1A      4.1336   7.3379  15.1160   O.3       1 RES1   0.0000
    68 O2A      3.5053   5.6360  16.9668   O.3       1 RES1   0.0000
    69 O6A      2.9668   2.5068  22.0463   O.3       1 RES1   0.0000
    70 H1A      3.2669   1.9748  22.5935   H         1 RES1   0.0000
    71 N2A      4.1816   2.8672  17.8059   N.3       1 RES1   0.0000
    72 N3A      1.4905   2.8873  18.8053   N.3       1 RES1   0.0000
    73 O9A      1.8303   1.4780  24.2309   O.3       1 RES1   0.0000
    74 C1A      5.1273   6.4378  15.4468   C.ar      1 RES1   0.0000
    75 C2A      4.7651   5.5836  16.4867   C.ar      1 RES1   0.0000
    76 C3A      6.3553   6.3194  14.8123   C.ar      1 RES1   0.0000
    77 H2A      6.5677   6.8758  14.0980   H         1 RES1   0.0000
    78 C4A      5.7034   4.6752  16.9665   C.ar      1 RES1   0.0000
    79 C5A      7.2745   5.3574  15.2532   C.ar      1 RES1   0.0000
    80 C6A      2.3914   1.7287  19.0514   C.3       1 RES1   0.0000
    81 H3A      2.2628   1.0646  18.3560   H         1 RES1   0.0000
    82 H4A      2.1691   1.3202  19.9026   H         1 RES1   0.0000
    83 C7A      5.3026   3.7985  18.1123   C.3       1 RES1   0.0000
    84 H5A      6.0726   3.2778  18.3896   H         1 RES1   0.0000
    85 H6A      5.0444   4.3612  18.8589   H         1 RES1   0.0000
    86 C8A      4.4088   2.3955  15.3710   C.3       1 RES1   0.0000
    87 H7A      5.0369   3.1197  15.2232   H         1 RES1   0.0000
    88 H8A      4.6167   1.6884  14.7403   H         1 RES1   0.0000
    89 C9A      3.8317   2.1707  19.0656   C.3       1 RES1   0.0000
    90 H9A      3.9797   2.7668  19.8164   H         1 RES1   0.0000
    91 H10A     4.4063   1.3974  19.1778   H         1 RES1   0.0000
    92 C10A    -0.3815   2.1739  23.4854   C.ar      1 RES1   0.0000
    93 H11A    -0.7941   1.7810  24.2204   H         1 RES1   0.0000
    94 C11A     0.9850   2.0658  23.3300   C.ar      1 RES1   0.0000
    95 C12A     4.3450   8.1586  13.9641   C.3       1 RES1   0.0000
    96 H12A     3.5655   8.6965  13.8071   H         1 RES1   0.0000
    97 H13A     4.5085   7.6013  13.1997   H         1 RES1   0.0000
    98 H14A     5.1028   8.7289  14.1123   H         1 RES1   0.0000
    99 C13A     8.5760   5.1447  14.5152   C.3       1 RES1   0.0000
   100 H15A     8.5724   5.6598  13.7051   H         1 RES1   0.0000
   101 H16A     8.6745   4.2138  14.3019   H         1 RES1   0.0000
   102 H17A     9.3078   5.4251  15.0695   H         1 RES1   0.0000
   103 C14A     6.9493   4.5791  16.3452   C.ar      1 RES1   0.0000
   104 H18A     7.5756   3.9759  16.6749   H         1 RES1   0.0000
   105 C15A     1.6210   2.6088  22.2046   C.ar      1 RES1   0.0000
   106 C16A     1.4837   3.8262  19.9767   C.3       1 RES1   0.0000
   107 H19A     1.0032   4.6301  19.7239   H         1 RES1   0.0000
   108 H20A     2.3989   4.0824  20.1711   H         1 RES1   0.0000
   109 C17A     0.8604   3.2709  21.2423   C.ar      1 RES1   0.0000
   110 C18A     4.5824   1.8705  16.7761   C.3       1 RES1   0.0000
   111 H21A     4.0473   1.0687  16.8843   H         1 RES1   0.0000
   112 H22A     5.5118   1.6285  16.9126   H         1 RES1   0.0000
   113 C19A    -1.1494   2.8664  22.5510   C.ar      1 RES1   0.0000
   114 C20A    -0.5115   3.4167  21.4571   C.ar      1 RES1   0.0000
   115 H23A    -1.0129   3.9012  20.8417   H         1 RES1   0.0000
   116 C21A    -2.6354   3.0126  22.7573   C.3       1 RES1   0.0000
   117 H24A    -3.0375   2.1435  22.8178   H         1 RES1   0.0000
   118 H25A    -3.0156   3.4906  22.0161   H         1 RES1   0.0000
   119 H26A    -2.7995   3.4989  23.5688   H         1 RES1   0.0000
   120 C22A     1.2241   0.7303  25.2661   C.3       1 RES1   0.0000
   121 H27A     0.6973   1.3150  25.8162   H         1 RES1   0.0000
   122 H28A     1.9043   0.3147  25.8009   H         1 RES1   0.0000
   123 H29A     0.6593   0.0549  24.8844   H         1 RES1   0.0000
   124 O7A      2.6759   9.7810  15.9680   O.3       1 RES1   0.0000
   125 O3A      0.0785   8.2864  16.0573   O.3       1 RES1   0.0000
   126 O4A      1.4161   7.3827  14.6318   O.3       1 RES1   0.0000
   127 N1A      0.2748   7.8564  14.8867   N.pl3     1 RES1   0.0000
   128 O8A     -0.6001   7.8934  14.0272   O.2       1 RES1   0.0000
   129 O10     -0.0836   0.8165  10.4755   O.3       2 RES2   0.0000
   130 H30      0.0704   0.2537   9.8998   H         2 RES2   0.0000
   131 C23     -1.2963   0.5448  11.0722   C.3       2 RES2   0.0000
   132 H31     -1.9765   0.4770  10.3983   H         2 RES2   0.0000
   133 H32     -1.5188   1.2514  11.6821   H         2 RES2   0.0000
   134 H33     -1.2375  -0.2853  11.5517   H         2 RES2   0.0000
@<TRIPOS>BOND
     1     1     3    1
     2     2     4    1
     3     3    16    1
     4     4     1    1
     5     5     1    1
     6     6     1    1
     7     7    17    2
     8     8     9    1
     9    10     5    1
    10    11     1    1
    11    12     2    1
    12    13    10    2
    13    14     2    1
    14    15    37    1
    15    16    18   ar
    16    17    11    1
    17    18     4    1
    18    19    16   ar
    19    20    19    1
    20    21    18   ar
    21    22    19   ar
    22    23    14    1
    23    24    23    1
    24    25    23    1
    25    26    12    1
    26    27    26    1
    27    28    26    1
    28    29    30    1
    29    31    29    1
    30    32    12    1
    31    33    32    1
    32    34    32    1
    33    35    36    1
    34    37    35   ar
    35    38     3    1
    36    39    38    1
    37    40    38    1
    38    41    38    1
    39    42    22    1
    40    43    42    1
    41    44    42    1
    42    45    42    1
    43    46    21   ar
    44    47    46    1
    45    48     8    1
    46    49    14    1
    47    50    49    1
    48    51    49    1
    49    52    48   ar
    50    53    12    1
    51    54    53    1
    52    55    53    1
    53    56    35   ar
    54    57    52   ar
    55    58    57    1
    56    59    56    1
    57    60    59    1
    58    61    59    1
    59    62    59    1
    60    63    15    1
    61    64    63    1
    62    65    63    1
    63    66    63    1
    64    67     1    1
    65    68     1    1
    66    69    70    1
    67    71     2    1
    68    72     2    1
    69    73    94    1
    70    74    67    1
    71    75    68    1
    72    76    74   ar
    73    77    76    1
    74    78    75   ar
    75    79    76   ar
    76    80    72    1
    77    81    80    1
    78    82    80    1
    79    83    71    1
    80    84    83    1
    81    85    83    1
    82    86    14    1
    83    87    86    1
    84    88    86    1
    85    89    71    1
    86    90    89    1
    87    91    89    1
    88    92    93    1
    89    94    92   ar
    90    95    67    1
    91    96    95    1
    92    97    95    1
    93    98    95    1
    94    99    79    1
    95   100    99    1
    96   101    99    1
    97   102    99    1
    98   103    78   ar
    99   104   103    1
   100   105    69    1
   101   106    72    1
   102   107   106    1
   103   108   106    1
   104   109   105   ar
   105   110    71    1
   106   111   110    1
   107   112   110    1
   108   113    92   ar
   109   114   109   ar
   110   115   114    1
   111   116   113    1
   112   117   116    1
   113   118   116    1
   114   119   116    1
   115   120    73    1
   116   121   120    1
   117   122   120    1
   118   123   120    1
   119   124     1    1
   120   125     1    1
   121   126     1    1
   122   127   125    1
   123   128   127    2
   124     2    68    1
   125     6    10    1
   126    17   124    1
   127    21    26    1
   128    22    46   ar
   129    23    32    1
   130    29    53    1
   131    29    72    1
   132    37    48   ar
   133    49    52    1
   134    56    57   ar
   135    74    75   ar
   136    78    83    1
   137    79   103   ar
   138    80    89    1
   139    86   110    1
   140    94   105   ar
   141   106   109    1
   142   113   114   ar
   143   126   127    1
   144   129   130    1
   145   131   129    1
   146   132   131    1
   147   133   131    1
   148   134   131    1
@<TRIPOS>SUBSTRUCTURE
     1 RES1        1 GROUP             0 ****  ****    0  
     2 RES2      129 GROUP             0 ****  ****    0  
@<TRIPOS>CRYSIN
   17.5247   13.0642   24.2171   90.0000  110.9770   90.0000    15     1
