@<TRIPOS>MOLECULE
JIGDUC
   113   119     4     0     0
SMALL
USER_CHARGES
****
Generated from the CSD

@<TRIPOS>ATOM
     1 C1       0.6814  -0.9617   6.7838   C.ar      1 RES1   0.0000
     2 C2      -0.5903  -0.7871   7.3912   C.ar      1 RES1   0.0000
     3 C3      -1.2705  -1.8069   7.9967   C.ar      1 RES1   0.0000
     4 H1      -2.0899  -1.6431   8.4048   H         1 RES1   0.0000
     5 C4      -0.7351  -3.0902   7.9985   C.ar      1 RES1   0.0000
     6 C5       0.4707  -3.3245   7.4280   C.ar      1 RES1   0.0000
     7 H2       0.8332  -4.1803   7.4565   H         1 RES1   0.0000
     8 C6       1.1873  -2.2832   6.7857   C.ar      1 RES1   0.0000
     9 C7       2.3948  -2.6384   6.0937   C.2       1 RES1   0.0000
    10 H3       2.6575  -3.5298   6.1053   H         1 RES1   0.0000
    11 C8       4.2928  -2.3016   4.7097   C.3       1 RES1   0.0000
    12 H4       4.0806  -2.3563   3.7650   H         1 RES1   0.0000
    13 H5       4.5383  -3.1879   5.0205   H         1 RES1   0.0000
    14 C9       5.4123  -1.3583   4.9268   C.3       1 RES1   0.0000
    15 H6       6.1532  -1.5789   4.3419   H         1 RES1   0.0000
    16 H7       5.7196  -1.4111   5.8456   H         1 RES1   0.0000
    17 C10      5.9187   1.0168   5.0630   C.3       1 RES1   0.0000
    18 H8       6.0382   0.9426   6.0234   H         1 RES1   0.0000
    19 H9       5.5635   1.9018   4.8814   H         1 RES1   0.0000
    20 C11      7.2547   0.8943   4.4042   C.3       1 RES1   0.0000
    21 H10      7.8394   1.5790   4.7366   H         1 RES1   0.0000
    22 H11      7.6287   0.0317   4.5989   H         1 RES1   0.0000
    23 H12      7.1531   0.9924   3.4550   H         1 RES1   0.0000
    24 C12      4.1364   0.9249   8.1310   C.ar      1 RES1   0.0000
    25 C13      4.5751   0.5528   9.4506   C.ar      1 RES1   0.0000
    26 C14      4.9004   1.4410  10.4021   C.ar      1 RES1   0.0000
    27 H13      5.1511   1.1486  11.2483   H         1 RES1   0.0000
    28 C15      4.8634   2.7916  10.1187   C.ar      1 RES1   0.0000
    29 C16      4.3923   3.2433   8.9187   C.ar      1 RES1   0.0000
    30 H14      4.3374   4.1566   8.7538   H         1 RES1   0.0000
    31 C17      3.9985   2.3368   7.9433   C.ar      1 RES1   0.0000
    32 C18      3.4477   2.8574   6.7084   C.2       1 RES1   0.0000
    33 H15      3.3607   3.7807   6.6400   H         1 RES1   0.0000
    34 C19      2.5440   2.8360   4.5293   C.3       1 RES1   0.0000
    35 H16      3.2599   3.0227   3.9004   H         1 RES1   0.0000
    36 H17      2.1363   3.6775   4.7875   H         1 RES1   0.0000
    37 C20      1.5106   1.9249   3.8907   C.3       1 RES1   0.0000
    38 H18      0.7236   1.8690   4.4556   H         1 RES1   0.0000
    39 H19      1.2438   2.2777   3.0278   H         1 RES1   0.0000
    40 C21      1.1145  -0.4487   3.2760   C.3       1 RES1   0.0000
    41 H20      1.5699  -1.3044   3.2328   H         1 RES1   0.0000
    42 H21      0.4007  -0.5244   3.9289   H         1 RES1   0.0000
    43 C22      0.5174  -0.1317   1.9177   C.3       1 RES1   0.0000
    44 H22     -0.0961  -0.8271   1.6668   H         1 RES1   0.0000
    45 H23      0.0499   0.7059   1.9604   H         1 RES1   0.0000
    46 H24      1.2185  -0.0738   1.2646   H         1 RES1   0.0000
    47 N1       3.1273  -1.8054   5.4642   N.2       1 RES1   0.0000
    48 N2       4.9164   0.0077   4.6324   N.3       1 RES1   0.0000
    49 H25      4.7917   0.0903   3.6637   H         1 RES1   0.0000
    50 N3       3.0697   2.1561   5.6961   N.2       1 RES1   0.0000
    51 N4       2.1002   0.6202   3.7324   N.3       1 RES1   0.0000
    52 H26      2.8022   0.6899   3.0527   H         1 RES1   0.0000
    53 O1       1.2934   0.0613   6.2888   O.3       1 RES1   0.0000
    54 O2       3.8867   0.0168   7.2531   O.3       1 RES1   0.0000
    55 Cl1     -1.6213  -4.3642   8.7917   Cl        1 RES1   0.0000
    56 Cl2      5.4088   3.9477  11.3113   Cl        1 RES1   0.0000
    57 Fe1      3.0239   0.1698   5.5704   Fe        1 RES1   1.0000
    58 Br1     -1.3952   0.9061   7.2644   Br        1 RES1   0.0000
    59 Br2      4.6900  -1.3080   9.8034   Br        1 RES1   0.0000
    60 C23      4.2429   6.7255   6.1489   C.ar      2 RES2   0.0000
    61 C24      5.1420   6.6107   7.1151   C.ar      2 RES2   0.0000
    62 H27      5.0509   7.1383   7.8759   H         2 RES2   0.0000
    63 C25      6.2456   5.7087   7.0323   C.ar      2 RES2   0.0000
    64 H28      6.8455   5.6615   7.7415   H         2 RES2   0.0000
    65 C26      6.4347   4.9477   5.9906   C.ar      2 RES2   0.0000
    66 H29      7.1411   4.3429   5.9635   H         2 RES2   0.0000
    67 C27      5.5506   5.0640   4.9195   C.ar      2 RES2   0.0000
    68 H30      5.6764   4.5557   4.1502   H         2 RES2   0.0000
    69 C28      4.4962   5.9292   5.0060   C.ar      2 RES2   0.0000
    70 H31      3.9185   5.9984   4.2807   H         2 RES2   0.0000
    71 C29      1.6481   6.5862   6.1654   C.ar      2 RES2   0.0000
    72 C30      1.4359   5.7103   7.2384   C.ar      2 RES2   0.0000
    73 H32      1.9892   5.8019   7.9806   H         2 RES2   0.0000
    74 C31      0.4941   4.7455   7.2807   C.ar      2 RES2   0.0000
    75 H33      0.3963   4.2079   8.0345   H         2 RES2   0.0000
    76 C32     -0.3344   4.5710   6.1654   C.ar      2 RES2   0.0000
    77 H34     -0.9863   3.9083   6.1665   H         2 RES2   0.0000
    78 C33     -0.1827   5.3718   5.0851   C.ar      2 RES2   0.0000
    79 H35     -0.7267   5.2604   4.3401   H         2 RES2   0.0000
    80 C34      0.8041   6.3733   5.0998   C.ar      2 RES2   0.0000
    81 H36      0.8915   6.9181   4.3509   H         2 RES2   0.0000
    82 C35      2.8398   8.6917   4.8937   C.ar      2 RES2   0.0000
    83 C36      3.8580   8.9275   3.9974   C.ar      2 RES2   0.0000
    84 H37      4.6580   8.4643   4.1034   H         2 RES2   0.0000
    85 C37      3.7493   9.8142   2.9502   C.ar      2 RES2   0.0000
    86 H38      4.4670   9.9236   2.3693   H         2 RES2   0.0000
    87 C38      2.6509  10.5124   2.7533   C.ar      2 RES2   0.0000
    88 H39      2.5838  11.0852   2.0241   H         2 RES2   0.0000
    89 C39      1.6004  10.3899   3.6330   C.ar      2 RES2   0.0000
    90 H40      0.8347  10.9057   3.5229   H         2 RES2   0.0000
    91 C40      1.6892   9.4957   4.6839   C.ar      2 RES2   0.0000
    92 H41      0.9736   9.4183   5.2730   H         2 RES2   0.0000
    93 C41      2.8735   8.6366   7.5053   C.ar      2 RES2   0.0000
    94 C42      1.8700   8.6764   8.4697   C.ar      2 RES2   0.0000
    95 H42      1.1589   8.0795   8.4078   H         2 RES2   0.0000
    96 C43      1.9018   9.5783   9.5132   C.ar      2 RES2   0.0000
    97 H43      1.1819   9.6130  10.1014   H         2 RES2   0.0000
    98 C44      2.9678  10.4282   9.7083   C.ar      2 RES2   0.0000
    99 H44      3.0165  10.9761  10.4576   H         2 RES2   0.0000
   100 C45      3.9478  10.4374   8.7623   C.ar      2 RES2   0.0000
   101 H45      4.6508  11.0400   8.8410   H         2 RES2   0.0000
   102 C46      3.9164   9.5554   7.6746   C.ar      2 RES2   0.0000
   103 H46      4.6042   9.5812   7.0491   H         2 RES2   0.0000
   104 B1       2.8679   7.6443   6.2243   B         2 RES2  -1.0000
   105 C47      1.1731   2.4715  10.5346   C.1       3 RES3   0.0000
   106 C48      1.0182   1.0689  10.3101   C.3       3 RES3   0.0000
   107 H47      0.2269   0.9138   9.7895   H         3 RES3   0.0000
   108 H48      0.9386   0.6176  11.1545   H         3 RES3   0.0000
   109 H49      1.7832   0.7327   9.8388   H         3 RES3   0.0000
   110 N5       1.3887   3.5450  10.6727   N.1       3 RES3   0.0000
   111 O3       4.3957   1.1852   1.8064   O.3       4 RES4   0.0000
   112 H50      3.6912   1.4827   1.4359   H         4 RES4   0.0000
   113 H51      5.0530   1.6376   1.5125   H         4 RES4   0.0000
@<TRIPOS>BOND
     1     1     2   ar
     2     2     3   ar
     3     3     4    1
     4     5     3   ar
     5     6     5   ar
     6     7     6    1
     7     8     1   ar
     8     9     8    1
     9    10     9    1
    10    11    12    1
    11    13    11    1
    12    14    11    1
    13    15    14    1
    14    16    14    1
    15    17    18    1
    16    19    17    1
    17    20    17    1
    18    21    20    1
    19    22    20    1
    20    23    20    1
    21    24    25   ar
    22    25    26   ar
    23    26    27    1
    24    28    26   ar
    25    29    28   ar
    26    30    29    1
    27    31    24   ar
    28    32    31    1
    29    33    32    1
    30    34    35    1
    31    36    34    1
    32    37    34    1
    33    38    37    1
    34    39    37    1
    35    40    41    1
    36    42    40    1
    37    43    40    1
    38    44    43    1
    39    45    43    1
    40    46    43    1
    41    47     9    2
    42    48    14    1
    43    49    48    1
    44    50    32    2
    45    51    37    1
    46    52    51    1
    47    53     1    1
    48    54    24    1
    49    55     5    1
    50    56    28    1
    51    57    47    1
    52    58     2    1
    53    59    25    1
    54     6     8   ar
    55    11    47    1
    56    17    48    1
    57    29    31   ar
    58    34    50    1
    59    40    51    1
    60    48    57    1
    61    50    57    1
    62    51    57    1
    63    53    57    1
    64    54    57    1
    65    60    61   ar
    66    61    62    1
    67    63    61   ar
    68    64    63    1
    69    65    63   ar
    70    66    65    1
    71    67    65   ar
    72    68    67    1
    73    69    60   ar
    74    70    69    1
    75    71    72   ar
    76    72    73    1
    77    74    72   ar
    78    75    74    1
    79    76    74   ar
    80    77    76    1
    81    78    76   ar
    82    79    78    1
    83    80    71   ar
    84    81    80    1
    85    82    83   ar
    86    83    84    1
    87    85    83   ar
    88    86    85    1
    89    87    85   ar
    90    88    87    1
    91    89    87   ar
    92    90    89    1
    93    91    82   ar
    94    92    91    1
    95    93    94   ar
    96    94    95    1
    97    96    94   ar
    98    97    96    1
    99    98    96   ar
   100    99    98    1
   101   100    98   ar
   102   101   100    1
   103   102    93   ar
   104   103   102    1
   105   104    60    1
   106    67    69   ar
   107    71   104    1
   108    78    80   ar
   109    82   104    1
   110    89    91   ar
   111    93   104    1
   112   100   102   ar
   113   105   106    1
   114   106   107    1
   115   108   106    1
   116   109   106    1
   117   110   105    3
   118   111   112    1
   119   113   111    1
@<TRIPOS>SUBSTRUCTURE
     1 RES1        1 GROUP             0 ****  ****    0  
     2 RES2       60 GROUP             0 ****  ****    0  
     3 RES3      105 GROUP             0 ****  ****    0  
     4 RES4      111 GROUP             0 ****  ****    0  
@<TRIPOS>CRYSIN
   17.2840   15.3131   18.9322   90.0000  103.5620   90.0000    14     1
