@<TRIPOS>MOLECULE
JIGDUC01
   113   119     4     0     0
SMALL
USER_CHARGES
****
Generated from the CSD

@<TRIPOS>ATOM
     1 C1       1.8923   6.7146  17.3092   C.ar      1 RES1   0.0000
     2 C2       2.3376   7.1102  18.5906   C.ar      1 RES1   0.0000
     3 C3       2.6873   6.2121  19.5543   C.ar      1 RES1   0.0000
     4 H1       2.9650   6.5072  20.3921   H         1 RES1   0.0000
     5 C4       2.6268   4.8633  19.2771   C.ar      1 RES1   0.0000
     6 C5       2.1563   4.4173  18.0711   C.ar      1 RES1   0.0000
     7 H2       2.0995   3.5037  17.9066   H         1 RES1   0.0000
     8 C6       1.7619   5.3292  17.0853   C.ar      1 RES1   0.0000
     9 C7       1.2317   4.7946  15.8553   C.2       1 RES1   0.0000
    10 H3       1.1783   3.8700  15.7791   H         1 RES1   0.0000
    11 C8       0.3024   4.8053  13.6946   C.3       1 RES1   0.0000
    12 H4      -0.1041   3.9642  13.9545   H         1 RES1   0.0000
    13 H5       1.0189   4.6181  13.0662   H         1 RES1   0.0000
    14 C9      -0.7158   5.6973  13.0631   C.3       1 RES1   0.0000
    15 H6      -0.9754   5.3438  12.1973   H         1 RES1   0.0000
    16 H7      -1.5064   5.7458  13.6224   H         1 RES1   0.0000
    17 C10     -1.1075   8.0648  12.4225   C.3       1 RES1   0.0000
    18 H8      -1.8274   8.1267  13.0706   H         1 RES1   0.0000
    19 H9      -0.6675   8.9293  12.3933   H         1 RES1   0.0000
    20 C11     -1.6995   7.7899  11.0842   C.3       1 RES1   0.0000
    21 H10     -2.3289   7.0687  11.1546   H         1 RES1   0.0000
    22 H11     -1.0015   7.5457  10.4705   H         1 RES1   0.0000
    23 H12     -2.1464   8.5758  10.7634   H         1 RES1   0.0000
    24 C12     -1.5389   8.5933  15.9581   C.ar      1 RES1   0.0000
    25 C13     -2.8113   8.4207  16.5547   C.ar      1 RES1   0.0000
    26 C14     -3.4925   9.4273  17.1458   C.ar      1 RES1   0.0000
    27 H13     -4.3237   9.2653  17.5304   H         1 RES1   0.0000
    28 C15     -2.9486  10.7088  17.1789   C.ar      1 RES1   0.0000
    29 C16     -1.7486  10.9532  16.5749   C.ar      1 RES1   0.0000
    30 H14     -1.4008  11.8157  16.5767   H         1 RES1   0.0000
    31 C17     -1.0405   9.9207  15.9581   C.ar      1 RES1   0.0000
    32 C18      0.1671  10.2765  15.2514   C.2       1 RES1   0.0000
    33 H15      0.4328  11.1678  15.2645   H         1 RES1   0.0000
    34 C19      2.0514   9.9451  13.8580   C.3       1 RES1   0.0000
    35 H16      2.3094  10.8231  14.1779   H         1 RES1   0.0000
    36 H17      1.8338  10.0123  12.9152   H         1 RES1   0.0000
    37 C20      3.1534   8.9874  14.0581   C.3       1 RES1   0.0000
    38 H18      3.4781   9.0458  14.9696   H         1 RES1   0.0000
    39 H19      3.8872   9.2028  13.4601   H         1 RES1   0.0000
    40 C21      3.6892   6.6199  14.2105   C.3       1 RES1   0.0000
    41 H20      3.3407   5.7326  14.0351   H         1 RES1   0.0000
    42 H21      3.8182   6.7002  15.1685   H         1 RES1   0.0000
    43 C22      5.0350   6.7528  13.5313   C.3       1 RES1   0.0000
    44 H22      4.9214   6.6829  12.5804   H         1 RES1   0.0000
    45 H23      5.6169   6.0523  13.8359   H         1 RES1   0.0000
    46 H24      5.4198   7.6049  13.7462   H         1 RES1   0.0000
    47 N1       0.8282   5.4911  14.8625   N.2       1 RES1   0.0000
    48 N2      -0.1248   7.0491  12.9016   N.3       1 RES1   0.0000
    49 N3       0.8905   9.4517  14.6120   N.2       1 RES1   0.0000
    50 N4       2.6729   7.6203  13.7846   N.3       1 RES1   0.0000
    51 O1       1.6461   7.6272  16.4036   O.3       1 RES1   0.0000
    52 O2      -0.9361   7.5793  15.4371   O.3       1 RES1   0.0000
    53 Cl1      3.1677   3.7046  20.4634   Cl        1 RES1   0.0000
    54 Cl2     -3.8449  11.9796  17.9508   Cl        1 RES1   0.0000
    55 Fe1      0.7963   7.4702  14.7304   Fe        1 RES1   1.0000
    56 Br1      2.4580   8.9491  18.9539   Br        1 RES1   0.0000
    57 Br2     -3.6065   6.7254  16.4282   Br        1 RES1   0.0000
    58 H25      0.4767   6.9345  12.3545   H         1 RES1   0.0000
    59 H26      2.6457   7.5455  12.9420   H         1 RES1   0.0000
    60 C23      2.8576   8.6071   7.4696   C.ar      2 RES2   0.0000
    61 C24      1.8491   8.6605   8.4297   C.ar      2 RES2   0.0000
    62 H27      1.1159   8.0955   8.3421   H         2 RES2   0.0000
    63 C25      1.8988   9.5281   9.5147   C.ar      2 RES2   0.0000
    64 H28      1.2115   9.5220  10.1412   H         2 RES2   0.0000
    65 C26      2.9493  10.3896   9.6707   C.ar      2 RES2   0.0000
    66 H29      2.9891  10.9608  10.4034   H         2 RES2   0.0000
    67 C27      3.9335  10.3942   8.7326   C.ar      2 RES2   0.0000
    68 H30      4.6404  10.9934   8.8151   H         2 RES2   0.0000
    69 C28      3.9002   9.5251   7.6587   C.ar      2 RES2   0.0000
    70 H31      4.5940   9.5494   7.0411   H         2 RES2   0.0000
    71 C29      2.8171   8.6666   4.8721   C.ar      2 RES2   0.0000
    72 C30      1.6872   9.4548   4.6591   C.ar      2 RES2   0.0000
    73 H32      0.9640   9.3764   5.2384   H         2 RES2   0.0000
    74 C31      1.6172  10.3697   3.5870   C.ar      2 RES2   0.0000
    75 H33      0.8565  10.8928   3.4723   H         2 RES2   0.0000
    76 C32      2.6591  10.4843   2.7242   C.ar      2 RES2   0.0000
    77 H34      2.6007  11.0624   1.9971   H         2 RES2   0.0000
    78 C33      3.7688   9.7679   2.9207   C.ar      2 RES2   0.0000
    79 H35      4.4895   9.8657   2.3407   H         2 RES2   0.0000
    80 C34      3.8540   8.8866   3.9725   C.ar      2 RES2   0.0000
    81 H36      4.6460   8.4135   4.0896   H         2 RES2   0.0000
    82 C35      4.2334   6.7222   6.1038   C.ar      2 RES2   0.0000
    83 C36      4.4784   5.8974   5.0061   C.ar      2 RES2   0.0000
    84 H37      3.8843   5.9260   4.2915   H         2 RES2   0.0000
    85 C37      5.5543   5.0405   4.9290   C.ar      2 RES2   0.0000
    86 H38      5.6804   4.5209   4.1681   H         2 RES2   0.0000
    87 C38      6.4236   4.9535   5.9551   C.ar      2 RES2   0.0000
    88 H39      7.1463   4.3696   5.9100   H         2 RES2   0.0000
    89 C39      6.2359   5.7233   7.0511   C.ar      2 RES2   0.0000
    90 H40      6.8428   5.6766   7.7532   H         2 RES2   0.0000
    91 C40      5.1375   6.5954   7.1429   C.ar      2 RES2   0.0000
    92 H41      5.0162   7.0950   7.9169   H         2 RES2   0.0000
    93 C41      1.6362   6.5725   6.1314   C.ar      2 RES2   0.0000
    94 C42      0.7853   6.3541   5.0575   C.ar      2 RES2   0.0000
    95 H42      0.8659   6.9015   4.3098   H         2 RES2   0.0000
    96 C43     -0.1735   5.3689   5.0428   C.ar      2 RES2   0.0000
    97 H43     -0.7175   5.2640   4.2968   H         2 RES2   0.0000
    98 C44     -0.3286   4.5502   6.1112   C.ar      2 RES2   0.0000
    99 H44     -0.9740   3.8799   6.0986   H         2 RES2   0.0000
   100 C45      0.4776   4.7198   7.2200   C.ar      2 RES2   0.0000
   101 H45      0.3671   4.1762   7.9674   H         2 RES2   0.0000
   102 C46      1.4486   5.7019   7.2126   C.ar      2 RES2   0.0000
   103 H46      2.0004   5.7905   7.9563   H         2 RES2   0.0000
   104 B1       2.8821   7.6448   6.1497   B         2 RES2  -1.0000
   105 C47      1.1837   2.4928  10.5023   C.1       3 RES3   0.0000
   106 C48      0.9991   1.0814  10.3316   C.3       3 RES3   0.0000
   107 H47      1.5486   0.6080  10.9608   H         3 RES3   0.0000
   108 H48      1.2471   0.8320   9.4387   H         3 RES3   0.0000
   109 H49      0.0771   0.8589  10.4818   H         3 RES3   0.0000
   110 N5       1.3625   3.5879  10.6400   N.1       3 RES3   0.0000
   111 O3       2.1427   6.4651  10.9747   O.3       4 RES4   0.0000
   112 H50      2.6749   6.5918  10.3242   H         4 RES4   0.0000
   113 H51      1.8307   5.6776  10.9041   H         4 RES4   0.0000
@<TRIPOS>BOND
     1     1     2   ar
     2     2     3   ar
     3     3     4    1
     4     5     3   ar
     5     6     5   ar
     6     7     6    1
     7     8     1   ar
     8     9     8    1
     9    10     9    1
    10    11    12    1
    11    13    11    1
    12    14    11    1
    13    15    14    1
    14    16    14    1
    15    17    18    1
    16    19    17    1
    17    20    17    1
    18    21    20    1
    19    22    20    1
    20    23    20    1
    21    24    25   ar
    22    25    26   ar
    23    26    27    1
    24    28    26   ar
    25    29    28   ar
    26    30    29    1
    27    31    24   ar
    28    32    31    1
    29    33    32    1
    30    34    35    1
    31    36    34    1
    32    37    34    1
    33    38    37    1
    34    39    37    1
    35    40    41    1
    36    42    40    1
    37    43    40    1
    38    44    43    1
    39    45    43    1
    40    46    43    1
    41    47     9    2
    42    48    14    1
    43    49    32    2
    44    50    37    1
    45    51     1    1
    46    52    24    1
    47    53     5    1
    48    54    28    1
    49    55    47    1
    50    56     2    1
    51    57    25    1
    52    58    48    1
    53    59    50    1
    54     6     8   ar
    55    11    47    1
    56    17    48    1
    57    29    31   ar
    58    34    49    1
    59    40    50    1
    60    48    55    1
    61    49    55    1
    62    50    55    1
    63    51    55    1
    64    52    55    1
    65    60    61   ar
    66    61    62    1
    67    63    61   ar
    68    64    63    1
    69    65    63   ar
    70    66    65    1
    71    67    65   ar
    72    68    67    1
    73    69    60   ar
    74    70    69    1
    75    71    72   ar
    76    72    73    1
    77    74    72   ar
    78    75    74    1
    79    76    74   ar
    80    77    76    1
    81    78    76   ar
    82    79    78    1
    83    80    71   ar
    84    81    80    1
    85    82    83   ar
    86    83    84    1
    87    85    83   ar
    88    86    85    1
    89    87    85   ar
    90    88    87    1
    91    89    87   ar
    92    90    89    1
    93    91    82   ar
    94    92    91    1
    95    93    94   ar
    96    94    95    1
    97    96    94   ar
    98    97    96    1
    99    98    96   ar
   100    99    98    1
   101   100    98   ar
   102   101   100    1
   103   102    93   ar
   104   103   102    1
   105   104    60    1
   106    67    69   ar
   107    71   104    1
   108    78    80   ar
   109    82   104    1
   110    89    91   ar
   111    93   104    1
   112   100   102   ar
   113   105   106    1
   114   106   107    1
   115   108   106    1
   116   109   106    1
   117   110   105    3
   118   111   112    1
   119   113   111    1
@<TRIPOS>SUBSTRUCTURE
     1 RES1        1 GROUP             0 ****  ****    0  
     2 RES2       60 GROUP             0 ****  ****    0  
     3 RES3      105 GROUP             0 ****  ****    0  
     4 RES4      111 GROUP             0 ****  ****    0  
@<TRIPOS>CRYSIN
   17.2474   15.2743   18.8874   90.0000  103.6050   90.0000    14     1
