@<TRIPOS>MOLECULE
JIGFAK
   104   112     2     0     0
SMALL
USER_CHARGES
****
Generated from the CSD

@<TRIPOS>ATOM
     1 Br1      7.5056   1.8572  12.4070   Br        1 RES1   0.0000
     2 Fe1      2.7813   1.3644  12.8317   Fe        1 RES1   1.0000
     3 Br2      1.4418   0.4960   8.3772   Br        1 RES1   0.0000
     4 Cl1      7.8747  -3.2288  10.4089   Cl        1 RES1   0.0000
     5 Cl2      0.8411   5.8634   7.3690   Cl        1 RES1   0.0000
     6 O1       2.2453   1.5527  11.0022   O.3       1 RES1   0.0000
     7 N1       2.5622  -0.7208  12.6464   N.2       1 RES1   0.0000
     8 O2       4.6146   1.0680  12.6385   O.3       1 RES1   0.0000
     9 C1       6.7079   0.2377  11.8992   C.ar      1 RES1   0.0000
    10 C2       1.5066   2.2673   8.8810   C.ar      1 RES1   0.0000
    11 N2       2.7205   3.4618  12.8987   N.2       1 RES1   0.0000
    12 N3       3.2989   1.8058  14.9332   N.3       1 RES1   0.0000
    13 H1       2.3537   1.8468  15.2568   H         1 RES1   0.0000
    14 C3       3.5454   3.1701  15.0692   C.3       1 RES1   0.0000
    15 H2       3.1999   3.4380  15.9583   H         1 RES1   0.0000
    16 H3       4.5280   3.2848  15.0991   H         1 RES1   0.0000
    17 C4       4.8041  -1.1792  11.8618   C.ar      1 RES1   0.0000
    18 C5       6.9147  -1.9864  11.0811   C.ar      1 RES1   0.0000
    19 C6       3.9463   0.9523  17.1726   C.3       1 RES1   0.0000
    20 H4       4.1923   0.0892  17.5648   H         1 RES1   0.0000
    21 H5       4.6852   1.5858  17.2849   H         1 RES1   0.0000
    22 H6       3.1468   1.2995  17.6203   H         1 RES1   0.0000
    23 C7       2.0312   3.8925  10.6454   C.ar      1 RES1   0.0000
    24 C8       3.4343  -1.4693  12.1200   C.2       1 RES1   0.0000
    25 H7       3.1464  -2.3370  11.8669   H         1 RES1   0.0000
    26 C9       1.9392   2.5821  10.2078   C.ar      1 RES1   0.0000
    27 C10      1.2101  -1.2177  12.8888   C.3       1 RES1   0.0000
    28 H8       0.8863  -1.6747  12.0734   H         1 RES1   0.0000
    29 H9       1.2432  -1.8885  13.6167   H         1 RES1   0.0000
    30 C11      5.6084  -2.1577  11.3275   C.ar      1 RES1   0.0000
    31 H10      5.2191  -3.0000  11.1237   H         1 RES1   0.0000
    32 C12     -1.4101   2.2611  13.5138   C.3       1 RES1   0.0000
    33 H11     -1.8396   3.0060  13.0448   H         1 RES1   0.0000
    34 H12     -1.9606   1.4551  13.4204   H         1 RES1   0.0000
    35 H13     -1.3174   2.4834  14.4644   H         1 RES1   0.0000
    36 C13      7.4382  -0.7563  11.3926   C.ar      1 RES1   0.0000
    37 H14      8.3632  -0.6054  11.2405   H         1 RES1   0.0000
    38 C14      5.3228   0.1003  12.1456   C.ar      1 RES1   0.0000
    39 C15      3.0772   4.0437  14.1919   C.3       1 RES1   0.0000
    40 H15      3.7621   4.7445  14.0470   H         1 RES1   0.0000
    41 H16      2.2771   4.4817  14.5755   H         1 RES1   0.0000
    42 C16      1.6742   4.9003   9.7248   C.ar      1 RES1   0.0000
    43 H17      1.6889   5.8080  10.0047   H         1 RES1   0.0000
    44 C17      2.4304   4.2783  11.9308   C.2       1 RES1   0.0000
    45 H18      2.4930   5.2093  12.1088   H         1 RES1   0.0000
    46 N4       0.6729   1.0248  13.4487   N.3       1 RES1   0.0000
    47 H19      0.6853   1.1085  14.4447   H         1 RES1   0.0000
    48 C18      1.3091   4.6055   8.4414   C.ar      1 RES1   0.0000
    49 C19      3.6643   0.7763  15.7316   C.3       1 RES1   0.0000
    50 H20      4.4772   0.3775  15.3297   H         1 RES1   0.0000
    51 H21      2.9509   0.0935  15.6625   H         1 RES1   0.0000
    52 C20     -0.2450   2.0465  13.0071   C.3       1 RES1   0.0000
    53 H22      0.2444   2.9045  13.0756   H         1 RES1   0.0000
    54 H23     -0.3924   1.8863  12.0418   H         1 RES1   0.0000
    55 C21      0.3582  -0.2917  13.2141   C.3       1 RES1   0.0000
    56 H24     -0.0966  -0.6134  14.0331   H         1 RES1   0.0000
    57 H25     -0.3265  -0.2864  12.4999   H         1 RES1   0.0000
    58 C22      1.1912   3.3137   8.0747   C.ar      1 RES1   0.0000
    59 H26      0.8709   3.1240   7.2001   H         1 RES1   0.0000
    60 C23      3.7774  -7.3790  12.4019   C.ar      2 RES2   0.0000
    61 C24      0.4074  -7.8297  11.6843   C.ar      2 RES2   0.0000
    62 H27      0.5282  -7.4881  10.8054   H         2 RES2   0.0000
    63 C25      2.7935  -5.2939  13.5571   C.ar      2 RES2   0.0000
    64 C26      4.2349  -3.6254  14.6020   C.ar      2 RES2   0.0000
    65 H28      5.0982  -3.2318  14.6596   H         2 RES2   0.0000
    66 C27      1.1205  -4.7845  10.8978   C.ar      2 RES2   0.0000
    67 H29      0.3846  -4.9574  11.4737   H         2 RES2   0.0000
    68 C28      3.2492  -3.1794  15.3905   C.ar      2 RES2   0.0000
    69 H30      3.4118  -2.4726  16.0048   H         2 RES2   0.0000
    70 C29      2.3204  -5.4930  11.1245   C.ar      2 RES2   0.0000
    71 C30      3.2075  -4.1826   9.2615   C.ar      2 RES2   0.0000
    72 H31      3.9431  -3.9893   8.6936   H         2 RES2   0.0000
    73 C31      1.8072  -4.7691  14.3851   C.ar      2 RES2   0.0000
    74 H32      0.9342  -5.1377  14.3123   H         2 RES2   0.0000
    75 C32      5.0811  -8.9872  11.0574   C.ar      2 RES2   0.0000
    76 H33      5.2961  -9.3363  10.2001   H         2 RES2   0.0000
    77 C33      4.0910  -7.9825  11.2013   C.ar      2 RES2   0.0000
    78 H34      3.6150  -7.7091  10.4269   H         2 RES2   0.0000
    79 C34      1.0790  -7.9269  13.9356   C.ar      2 RES2   0.0000
    80 H35      1.6686  -7.6751  14.6366   H         2 RES2   0.0000
    81 C35      4.0144  -4.6333  13.7188   C.ar      2 RES2   0.0000
    82 H36      4.7408  -4.9097  13.1744   H         2 RES2   0.0000
    83 C36      5.4870  -8.8607  13.3797   C.ar      2 RES2   0.0000
    84 H37      5.9736  -9.1439  14.1439   H         2 RES2   0.0000
    85 C37      4.5270  -7.8513  13.4724   C.ar      2 RES2   0.0000
    86 H38      4.3763  -7.4602  14.3253   H         2 RES2   0.0000
    87 C38      1.9911  -3.7505  15.3097   C.ar      2 RES2   0.0000
    88 H39      1.2803  -3.4555  15.8664   H         2 RES2   0.0000
    89 C39      5.7056  -9.4302  12.1437   C.ar      2 RES2   0.0000
    90 H40      6.3144 -10.1555  12.0761   H         2 RES2   0.0000
    91 C40      0.9503  -3.8492   9.8726   C.ar      2 RES2   0.0000
    92 H41      0.1024  -3.4433   9.7322   H         2 RES2   0.0000
    93 C41      1.9876  -3.5282   9.0900   C.ar      2 RES2   0.0000
    94 H42      1.8973  -2.8589   8.4226   H         2 RES2   0.0000
    95 C42     -0.7014  -9.2496  13.2082   C.ar      2 RES2   0.0000
    96 H43     -1.3720  -9.8977  13.3916   H         2 RES2   0.0000
    97 C43     -0.5962  -8.7804  11.9268   C.ar      2 RES2   0.0000
    98 H44     -1.1733  -9.0819  11.2351   H         2 RES2   0.0000
    99 C44      0.0851  -8.8437  14.2018   C.ar      2 RES2   0.0000
   100 H45     -0.0447  -9.1767  15.0827   H         2 RES2   0.0000
   101 C45      3.3227  -5.1040  10.2689   C.ar      2 RES2   0.0000
   102 H46      4.1724  -5.5135  10.3828   H         2 RES2   0.0000
   103 C46      1.2487  -7.3744  12.7134   C.ar      2 RES2   0.0000
   104 B1       2.5008  -6.4067  12.4571   B         2 RES2  -1.0000
@<TRIPOS>BOND
     1     1     9    1
     2     2     6    1
     3     3    10    1
     4     4    18    1
     5     5    48    1
     6     6    26    1
     7     7     2    1
     8     8     2    1
     9     9    36   ar
    10    10    26   ar
    11    11     2    1
    12    12     2    1
    13    13    12    1
    14    14    12    1
    15    15    14    1
    16    16    14    1
    17    17    24    1
    18    18    30   ar
    19    19    20    1
    20    21    19    1
    21    22    19    1
    22    23    26   ar
    23    24     7    2
    24    25    24    1
    25    27     7    1
    26    28    27    1
    27    29    27    1
    28    30    17   ar
    29    31    30    1
    30    32    33    1
    31    34    32    1
    32    35    32    1
    33    36    18   ar
    34    37    36    1
    35    38     8    1
    36    39    11    1
    37    40    39    1
    38    41    39    1
    39    42    23   ar
    40    43    42    1
    41    44    11    2
    42    45    44    1
    43    46     2    1
    44    47    46    1
    45    48    42   ar
    46    49    12    1
    47    50    49    1
    48    51    49    1
    49    52    32    1
    50    53    52    1
    51    54    52    1
    52    55    27    1
    53    56    55    1
    54    57    55    1
    55    58    10   ar
    56    59    58    1
    57     9    38   ar
    58    14    39    1
    59    17    38   ar
    60    19    49    1
    61    23    44    1
    62    46    52    1
    63    46    55    1
    64    48    58   ar
    65    60    77   ar
    66    61    62    1
    67    63    73   ar
    68    64    65    1
    69    66    67    1
    70    68    64   ar
    71    69    68    1
    72    70    66   ar
    73    71    72    1
    74    73    74    1
    75    75    76    1
    76    77    75   ar
    77    78    77    1
    78    79    80    1
    79    81    63   ar
    80    82    81    1
    81    83    84    1
    82    85    60   ar
    83    86    85    1
    84    87    68   ar
    85    88    87    1
    86    89    75   ar
    87    90    89    1
    88    91    66   ar
    89    92    91    1
    90    93    71   ar
    91    94    93    1
    92    95    96    1
    93    97    61   ar
    94    98    97    1
    95    99    79   ar
    96   100    99    1
    97   101    70   ar
    98   102   101    1
    99   103    61   ar
   100   104    60    1
   101    63   104    1
   102    64    81   ar
   103    70   104    1
   104    71   101   ar
   105    73    87   ar
   106    79   103   ar
   107    83    85   ar
   108    83    89   ar
   109    91    93   ar
   110    95    97   ar
   111    95    99   ar
   112   103   104    1
@<TRIPOS>SUBSTRUCTURE
     1 RES1        1 GROUP             0 ****  ****    0  
     2 RES2       60 GROUP             0 ****  ****    0  
@<TRIPOS>CRYSIN
   14.8890   15.4340   19.7980   90.0000   95.2880   90.0000    14     1
