@<TRIPOS>MOLECULE
JIPRUY
   107   112     4     0     0
SMALL
USER_CHARGES
****
Generated from the CSD

@<TRIPOS>ATOM
     1 Fe1      5.8209  10.6901   4.0428   Fe        1 RES1   2.0000
     2 N1       7.3798  11.8808   4.1593   N.ar      1 RES1   0.0000
     3 N2       4.2656   9.4908   4.1386   N.ar      1 RES1   0.0000
     4 N3       6.4535   9.5822   2.5262   N.ar      1 RES1   0.0000
     5 N4       5.1826  11.8103   2.5518   N.ar      1 RES1   0.0000
     6 N5       5.1656  11.8864   5.4605   N.ar      1 RES1   0.0000
     7 N6       6.4923   9.4618   5.4228   N.ar      1 RES1   0.0000
     8 C1       6.1096  10.0307   1.3003   C.ar      1 RES1   0.0000
     9 C2       7.2969  12.8686   5.0888   C.ar      1 RES1   0.0000
    10 C3       5.4842  11.3647   1.3055   C.ar      1 RES1   0.0000
    11 C4       6.0482  12.8244   5.8697   C.ar      1 RES1   0.0000
    12 C5       5.2407  12.0963   0.1662   C.ar      1 RES1   0.0000
    13 H1       5.4792  11.7441  -0.6822   H         1 RES1   0.0000
    14 C6       6.3385   9.2999   0.1420   C.ar      1 RES1   0.0000
    15 H2       6.0731   9.6523  -0.6995   H         1 RES1   0.0000
    16 C7       5.6730   8.4225   5.7416   C.ar      1 RES1   0.0000
    17 C8       4.3940   8.4472   5.0040   C.ar      1 RES1   0.0000
    18 C9       3.9986  11.8047   6.1329   C.ar      1 RES1   0.0000
    19 H3       3.3533  11.1774   5.8299   H         1 RES1   0.0000
    20 C10      7.0368   8.3531   2.5816   C.ar      1 RES1   0.0000
    21 H4       7.2713   8.0047   3.4335   H         1 RES1   0.0000
    22 C11      3.3958   7.4884   5.1598   C.ar      1 RES1   0.0000
    23 H5       3.5177   6.7782   5.7779   H         1 RES1   0.0000
    24 C12      8.5088  11.8418   3.4127   C.ar      1 RES1   0.0000
    25 H6       8.5941  11.1590   2.7582   H         1 RES1   0.0000
    26 C13      9.5283  12.7351   3.5564   C.ar      1 RES1   0.0000
    27 H7      10.3089  12.6523   3.0214   H         1 RES1   0.0000
    28 C14      4.6226  13.0471   2.6318   C.ar      1 RES1   0.0000
    29 H8       4.4189  13.3960   3.4906   H         1 RES1   0.0000
    30 C15      9.4301  13.7684   4.4845   C.ar      1 RES1   0.0000
    31 C16      2.0991   8.6444   3.5513   C.ar      1 RES1   0.0000
    32 H9       1.3048   8.7452   3.0405   H         1 RES1   0.0000
    33 C17      8.2886  13.8130   5.2568   C.ar      1 RES1   0.0000
    34 H10      8.1844  14.4982   5.9078   H         1 RES1   0.0000
    35 C18      2.2332   7.5644   4.4222   C.ar      1 RES1   0.0000
    36 C19      3.6893  12.5769   7.2272   C.ar      1 RES1   0.0000
    37 H11      2.8481  12.4818   7.6600   H         1 RES1   0.0000
    38 C20      4.6192  13.4941   7.6929   C.ar      1 RES1   0.0000
    39 C21      6.0360   7.4565   6.6523   C.ar      1 RES1   0.0000
    40 H12      5.4356   6.7471   6.8480   H         1 RES1   0.0000
    41 C22      3.1231   9.5671   3.4300   C.ar      1 RES1   0.0000
    42 H13      3.0150  10.2866   2.8188   H         1 RES1   0.0000
    43 C23      5.7865  13.6302   6.9709   C.ar      1 RES1   0.0000
    44 H14      6.4229  14.2869   7.2306   H         1 RES1   0.0000
    45 C24      6.9515   8.0573   0.2043   C.ar      1 RES1   0.0000
    46 C25      7.6811   9.5301   6.0602   C.ar      1 RES1   0.0000
    47 H15      8.2626  10.2570   5.8680   H         1 RES1   0.0000
    48 C26      7.2605   7.5088   7.2860   C.ar      1 RES1   0.0000
    49 C27      4.6497  13.3427   0.2563   C.ar      1 RES1   0.0000
    50 C28      4.3377  13.8104   1.5358   C.ar      1 RES1   0.0000
    51 H16      3.9281  14.6614   1.6449   H         1 RES1   0.0000
    52 C29      7.3041   7.5964   1.4735   C.ar      1 RES1   0.0000
    53 H17      7.7316   6.7535   1.5687   H         1 RES1   0.0000
    54 C30      4.3321  14.1575  -0.9679   C.3       1 RES1   0.0000
    55 H18      4.8971  13.8638  -1.7124   H         1 RES1   0.0000
    56 H19      4.5014  15.1053  -0.7826   H         1 RES1   0.0000
    57 H20      3.3889  14.0347  -1.2051   H         1 RES1   0.0000
    58 C31     10.5251  14.7952   4.6507   C.3       1 RES1   0.0000
    59 H21     11.2994  14.3799   5.0871   H         1 RES1   0.0000
    60 H22     10.1981  15.5352   5.2031   H         1 RES1   0.0000
    61 H23     10.7904  15.1363   3.7711   H         1 RES1   0.0000
    62 C32      8.0857   8.5769   6.9830   C.ar      1 RES1   0.0000
    63 H24      8.9301   8.6593   7.4107   H         1 RES1   0.0000
    64 C33      7.2529   7.2793  -1.0337   C.3       1 RES1   0.0000
    65 H25      6.6001   7.5054  -1.7280   H         1 RES1   0.0000
    66 H26      7.2017   6.3208  -0.8363   H         1 RES1   0.0000
    67 H27      8.1545   7.5000  -1.3471   H         1 RES1   0.0000
    68 C34      1.1862   6.4983   4.5226   C.3       1 RES1   0.0000
    69 H28      1.1008   6.0421   3.6603   H         1 RES1   0.0000
    70 H29      0.3282   6.9051   4.7633   H         1 RES1   0.0000
    71 H30      1.4449   5.8498   5.2100   H         1 RES1   0.0000
    72 C35      7.6919   6.4193   8.2522   C.3       1 RES1   0.0000
    73 H31      6.9027   5.9309   8.5673   H         1 RES1   0.0000
    74 H32      8.1516   6.8250   9.0175   H         1 RES1   0.0000
    75 H33      8.2990   5.7996   7.7968   H         1 RES1   0.0000
    76 C36      4.3763  14.2820   8.9569   C.3       1 RES1   0.0000
    77 H34      4.4066  15.2416   8.7561   H         1 RES1   0.0000
    78 H35      5.0681  14.0650   9.6166   H         1 RES1   0.0000
    79 H36      3.4946  14.0525   9.3205   H         1 RES1   0.0000
    80 P1       1.5099  10.6594  -0.4365   P.3       2 RES2  -1.0000
    81 F1       0.0440  11.2775  -0.4161   F         2 RES2   0.0000
    82 F2       2.9784  10.0392  -0.4450   F         2 RES2   0.0000
    83 F3       1.0740   9.6502  -1.5653   F         2 RES2   0.0000
    84 F4       1.9472  11.7414  -1.5012   F         2 RES2   0.0000
    85 F5       1.9525  11.6455   0.7341   F         2 RES2   0.0000
    86 F6       1.0670   9.6131   0.6735   F         2 RES2   0.0000
    87 P2       8.6390  11.9544   9.2883   P.3       3 RES3  -1.0000
    88 F7       7.3144  11.2640   8.7301   F         3 RES3   0.0000
    89 F8       8.2143  11.5771  10.7576   F         3 RES3   0.0000
    90 F9       7.8554  13.3364   9.4417   F         3 RES3   0.0000
    91 F10      9.9706  12.6297   9.8313   F         3 RES3   0.0000
    92 F11      9.3972  10.5666   9.1785   F         3 RES3   0.0000
    93 F12      9.0520  12.3149   7.8141   F         3 RES3   0.0000
    94 O1       7.0330  12.7450  14.4128   O.3       4 RES4   0.0000
    95 C37      8.2972  12.6460  13.8466   C.3       4 RES4   0.0000
    96 H37      8.2880  11.8857  13.2129   H         4 RES4   0.0000
    97 H38      8.9369  12.4199  14.5669   H         4 RES4   0.0000
    98 C38      5.9580  12.7579  13.5938   C.2       4 RES4   0.0000
    99 H39      5.5643  13.5846  13.3375   H         4 RES4   0.0000
   100 C39      8.7934  13.7694  13.1644   C.3       4 RES4   0.0000
   101 H40      8.3100  13.8793  12.3194   H         4 RES4   0.0000
   102 H41      9.7482  13.6453  12.9809   H         4 RES4   0.0000
   103 H42      8.6690  14.5694  13.7185   H         4 RES4   0.0000
   104 C40      5.4432  11.5897  13.1384   C.3       4 RES4   0.0000
   105 H43      5.7547  11.4297  12.2225   H         4 RES4   0.0000
   106 H44      4.4645  11.6389  13.1453   H         4 RES4   0.0000
   107 H45      5.7385  10.8550  13.7150   H         4 RES4   0.0000
@<TRIPOS>BOND
     1     1     2    1
     2     2     9   ar
     3     3     1    1
     4     4     1    1
     5     5     1    1
     6     6     1    1
     7     7     1    1
     8     8     4   ar
     9     9    11    1
    10    10     5   ar
    11    11     6   ar
    12    12    10   ar
    13    13    12    1
    14    14     8   ar
    15    15    14    1
    16    16     7   ar
    17    17     3   ar
    18    18     6   ar
    19    19    18    1
    20    20     4   ar
    21    21    20    1
    22    22    17   ar
    23    23    22    1
    24    24     2   ar
    25    25    24    1
    26    26    24   ar
    27    27    26    1
    28    28     5   ar
    29    29    28    1
    30    30    26   ar
    31    31    32    1
    32    33     9   ar
    33    34    33    1
    34    35    22   ar
    35    36    18   ar
    36    37    36    1
    37    38    36   ar
    38    39    16   ar
    39    40    39    1
    40    41     3   ar
    41    42    41    1
    42    43    11   ar
    43    44    43    1
    44    45    14   ar
    45    46     7   ar
    46    47    46    1
    47    48    39   ar
    48    49    12   ar
    49    50    28   ar
    50    51    50    1
    51    52    20   ar
    52    53    52    1
    53    54    49    1
    54    55    54    1
    55    56    54    1
    56    57    54    1
    57    58    30    1
    58    59    58    1
    59    60    58    1
    60    61    58    1
    61    62    46   ar
    62    63    62    1
    63    64    45    1
    64    65    64    1
    65    66    64    1
    66    67    64    1
    67    68    35    1
    68    69    68    1
    69    70    68    1
    70    71    68    1
    71    72    48    1
    72    73    72    1
    73    74    72    1
    74    75    72    1
    75    76    38    1
    76    77    76    1
    77    78    76    1
    78    79    76    1
    79     8    10    1
    80    16    17    1
    81    30    33   ar
    82    31    35   ar
    83    31    41   ar
    84    38    43   ar
    85    45    52   ar
    86    48    62   ar
    87    49    50   ar
    88    80    81    1
    89    82    80    1
    90    83    80    1
    91    84    80    1
    92    85    80    1
    93    86    80    1
    94    87    88    1
    95    89    87    1
    96    90    87    1
    97    91    87    1
    98    92    87    1
    99    93    87    1
   100    94    95    1
   101    95    96    1
   102    97    95    1
   103    98    94    1
   104    99    98    1
   105   100    95    1
   106   101   100    1
   107   102   100    1
   108   103   100    1
   109   104    98    1
   110   105   104    1
   111   106   104    1
   112   107   104    1
@<TRIPOS>SUBSTRUCTURE
     1 RES1        1 GROUP             0 ****  ****    0  
     2 RES2       80 GROUP             0 ****  ****    0  
     3 RES3       87 GROUP             0 ****  ****    0  
     4 RES4       94 GROUP             0 ****  ****    0  
@<TRIPOS>CRYSIN
    8.6648   14.3856   17.4683   83.2270   85.6550   82.0220     2     1
