@<TRIPOS>MOLECULE
JITKIH
   109   113     4     0     0
SMALL
USER_CHARGES
****
Generated from the CSD

@<TRIPOS>ATOM
     1 Fe1      2.3571   5.8485   4.9833   Fe        1 RES1   1.0000
     2 N1       2.2515   7.8277   5.8884   N.ar      1 RES1   0.0000
     3 N2       4.3602   6.4280   5.0939   N.2       1 RES1   0.0000
     4 N3       2.3913   5.2187   7.0974   N.ar      1 RES1   0.0000
     5 N4       0.3931   5.2895   5.3797   N.2       1 RES1   0.0000
     6 O1       2.9808   4.1733   4.3561   O.3       1 RES1   0.0000
     7 O2       1.7181   6.5512   3.3441   O.3       1 RES1   0.0000
     8 C1       1.1288   8.4334   6.3243   C.ar      1 RES1   0.0000
     9 H1       0.2918   8.0321   6.1197   H         1 RES1   0.0000
    10 C2       1.1308   9.5921   7.0400   C.ar      1 RES1   0.0000
    11 H2       0.3165   9.9972   7.3104   H         1 RES1   0.0000
    12 C3       2.3416  10.1602   7.3624   C.ar      1 RES1   0.0000
    13 H3       2.3773  10.9493   7.8893   H         1 RES1   0.0000
    14 C4       3.5084   9.5640   6.9101   C.ar      1 RES1   0.0000
    15 H4       4.3542   9.9440   7.1198   H         1 RES1   0.0000
    16 C5       3.4323   8.4171   6.1509   C.ar      1 RES1   0.0000
    17 C6       4.6511   7.7836   5.5391   C.3       1 RES1   0.0000
    18 H5       4.9516   8.3264   4.7679   H         1 RES1   0.0000
    19 H6       5.3826   7.7642   6.2047   H         1 RES1   0.0000
    20 C7       5.3713   5.6442   4.9516   C.2       1 RES1   0.0000
    21 H7       6.2264   6.0162   5.1353   H         1 RES1   0.0000
    22 C8       5.3478   4.2682   4.5443   C.ar      1 RES1   0.0000
    23 C9       6.5759   3.6129   4.4854   C.ar      1 RES1   0.0000
    24 H8       7.3657   4.1027   4.6830   H         1 RES1   0.0000
    25 C10      6.6846   2.2815   4.1544   C.ar      1 RES1   0.0000
    26 C11      5.4925   1.6186   3.8511   C.ar      1 RES1   0.0000
    27 H9       5.5453   0.6994   3.6171   H         1 RES1   0.0000
    28 C12      4.2316   2.2125   3.8701   C.ar      1 RES1   0.0000
    29 C13      4.1510   3.5667   4.2531   C.ar      1 RES1   0.0000
    30 C14      2.9599   1.4155   3.5148   C.3       1 RES1   0.0000
    31 C15      2.0456   1.2891   4.7454   C.3       1 RES1   0.0000
    32 H10      2.4700   0.7078   5.4109   H         1 RES1   0.0000
    33 H11      1.1855   0.9029   4.4750   H         1 RES1   0.0000
    34 H12      1.8968   2.1754   5.1353   H         1 RES1   0.0000
    35 C16      2.1920   2.1118   2.3917   C.3       1 RES1   0.0000
    36 H13      1.9197   3.0050   2.6864   H         1 RES1   0.0000
    37 H14      1.3972   1.5859   2.1647   H         1 RES1   0.0000
    38 H15      2.7677   2.1905   1.6032   H         1 RES1   0.0000
    39 C17      3.2863  -0.0006   3.0399   C.3       1 RES1   0.0000
    40 H16      3.8540   0.0457   2.2427   H         1 RES1   0.0000
    41 H17      2.4548  -0.4708   2.8216   H         1 RES1   0.0000
    42 H18      3.7579  -0.4828   3.7505   H         1 RES1   0.0000
    43 C18      8.0687   1.6073   4.1769   C.3       1 RES1   0.0000
    44 C19      8.0086   0.1613   3.7193   C.3       1 RES1   0.0000
    45 H19      8.9014  -0.2386   3.7800   H         1 RES1   0.0000
    46 H20      7.6989   0.1255   2.7904   H         1 RES1   0.0000
    47 H21      7.3877  -0.3375   4.2895   H         1 RES1   0.0000
    48 C20      9.0223   2.3605   3.2202   C.3       1 RES1   0.0000
    49 H22      9.0915   3.2975   3.4992   H         1 RES1   0.0000
    50 H23      8.6693   2.3164   2.3068   H         1 RES1   0.0000
    51 H24      9.9093   1.9442   3.2479   H         1 RES1   0.0000
    52 C21      8.6293   1.6597   5.5981   C.3       1 RES1   0.0000
    53 H25      8.0122   1.2074   6.2099   H         1 RES1   0.0000
    54 H26      8.7357   2.5947   5.8719   H         1 RES1   0.0000
    55 H27      9.5009   1.2120   5.6223   H         1 RES1   0.0000
    56 C22      3.4084   5.4091   7.9500   C.ar      1 RES1   0.0000
    57 H28      4.2057   5.8117   7.6259   H         1 RES1   0.0000
    58 C23      3.3473   5.0443   9.2810   C.ar      1 RES1   0.0000
    59 H29      4.0778   5.2010   9.8685   H         1 RES1   0.0000
    60 C24      2.1800   4.4430   9.7299   C.ar      1 RES1   0.0000
    61 H30      2.1020   4.1786  10.6398   H         1 RES1   0.0000
    62 C25      1.1489   4.2305   8.8720   C.ar      1 RES1   0.0000
    63 H31      0.3540   3.8064   9.1753   H         1 RES1   0.0000
    64 C26      1.2607   4.6348   7.5479   C.ar      1 RES1   0.0000
    65 C27      0.1656   4.4496   6.5617   C.3       1 RES1   0.0000
    66 H32      0.1218   3.5001   6.2879   H         1 RES1   0.0000
    67 H33     -0.6994   4.6908   6.9777   H         1 RES1   0.0000
    68 C28     -0.6374   5.6916   4.7367   C.2       1 RES1   0.0000
    69 H34     -1.4839   5.4595   5.1007   H         1 RES1   0.0000
    70 C29     -0.6486   6.4619   3.5166   C.ar      1 RES1   0.0000
    71 C30     -1.9081   6.7770   2.9741   C.ar      1 RES1   0.0000
    72 H35     -2.6896   6.4989   3.4386   H         1 RES1   0.0000
    73 C31     -2.0464   7.4646   1.8094   C.ar      1 RES1   0.0000
    74 C32     -0.8315   7.8748   1.1837   C.ar      1 RES1   0.0000
    75 H36     -0.9021   8.3745   0.3796   H         1 RES1   0.0000
    76 C33      0.4229   7.6076   1.6448   C.ar      1 RES1   0.0000
    77 C34      0.5415   6.8780   2.8666   C.ar      1 RES1   0.0000
    78 C35      1.6863   8.0491   0.8874   C.3       1 RES1   0.0000
    79 C36      2.5666   8.9258   1.7539   C.3       1 RES1   0.0000
    80 H37      2.0588   9.7099   2.0486   H         1 RES1   0.0000
    81 H38      3.3474   9.2171   1.2357   H         1 RES1   0.0000
    82 H39      2.8648   8.4171   2.5356   H         1 RES1   0.0000
    83 C37      2.4870   6.8179   0.4385   C.3       1 RES1   0.0000
    84 H40      3.2976   7.1079  -0.0295   H         1 RES1   0.0000
    85 H41      1.9387   6.2730  -0.1629   H         1 RES1   0.0000
    86 H42      2.7366   6.2873   1.2236   H         1 RES1   0.0000
    87 C38      1.3248   8.8524  -0.3674   C.3       1 RES1   0.0000
    88 H43      0.8271   9.6555  -0.1092   H         1 RES1   0.0000
    89 H44      0.7720   8.3020  -0.9602   H         1 RES1   0.0000
    90 H45      2.1460   9.1135  -0.8354   H         1 RES1   0.0000
    91 C39     -3.3868   7.7582   1.1421   C.3       1 RES1   0.0000
    92 C40     -3.5538   9.2680   0.9255   C.3       1 RES1   0.0000
    93 H46     -3.5417   9.7253   1.7921   H         1 RES1   0.0000
    94 H47     -4.4071   9.4410   0.4766   H         1 RES1   0.0000
    95 H48     -2.8193   9.6010   0.3692   H         1 RES1   0.0000
    96 C41     -3.4423   7.0340  -0.2080   C.3       1 RES1   0.0000
    97 H49     -4.3089   7.2014  -0.6343   H         1 RES1   0.0000
    98 H50     -3.3291   6.0704  -0.0676   H         1 RES1   0.0000
    99 H51     -2.7250   7.3659  -0.7868   H         1 RES1   0.0000
   100 C42     -4.5687   7.2696   1.9914   C.3       1 RES1   0.0000
   101 H52     -4.5526   7.7167   2.8632   H         1 RES1   0.0000
   102 H53     -4.4998   6.3011   2.1196   H         1 RES1   0.0000
   103 H54     -5.4090   7.4785   1.5321   H         1 RES1   0.0000
   104 N5      -0.7231   0.7010   9.5548   N.pl3     2 RES2   0.0000
   105 O3      -0.7928   1.7480  10.1822   O.3       2 RES2  -1.0000
   106 O4       0.4284   0.2617   9.2654   O.2       2 RES2   0.0000
   107 O5      -1.7411   0.0663   9.2637   O.2       2 RES2   0.0000
   108 O6       1.3810  -1.5891   7.4439   O.3       3 RES3   0.0000
   109 O7      -3.3230   9.1033   4.8840   O.3       4 RES4   0.0000
@<TRIPOS>BOND
     1     1     2    1
     2     2     8   ar
     3     3     1    1
     4     4     1    1
     5     5     1    1
     6     6     1    1
     7     7     1    1
     8     8     9    1
     9    10     8   ar
    10    11    10    1
    11    12    10   ar
    12    13    12    1
    13    14    12   ar
    14    15    14    1
    15    16     2   ar
    16    17     3    1
    17    18    17    1
    18    19    17    1
    19    20     3    2
    20    21    20    1
    21    22    20    1
    22    23    22   ar
    23    24    23    1
    24    25    23   ar
    25    26    25   ar
    26    27    26    1
    27    28    26   ar
    28    29     6    1
    29    30    28    1
    30    31    30    1
    31    32    31    1
    32    33    31    1
    33    34    31    1
    34    35    30    1
    35    36    35    1
    36    37    35    1
    37    38    35    1
    38    39    30    1
    39    40    39    1
    40    41    39    1
    41    42    39    1
    42    43    25    1
    43    44    43    1
    44    45    44    1
    45    46    44    1
    46    47    44    1
    47    48    43    1
    48    49    48    1
    49    50    48    1
    50    51    48    1
    51    52    43    1
    52    53    52    1
    53    54    52    1
    54    55    52    1
    55    56     4   ar
    56    57    56    1
    57    58    56   ar
    58    59    58    1
    59    60    58   ar
    60    61    60    1
    61    62    60   ar
    62    63    62    1
    63    64     4   ar
    64    65     5    1
    65    66    65    1
    66    67    65    1
    67    68     5    2
    68    69    68    1
    69    70    68    1
    70    71    70   ar
    71    72    71    1
    72    73    71   ar
    73    74    73   ar
    74    75    74    1
    75    76    74   ar
    76    77     7    1
    77    78    76    1
    78    79    78    1
    79    80    79    1
    80    81    79    1
    81    82    79    1
    82    83    78    1
    83    84    83    1
    84    85    83    1
    85    86    83    1
    86    87    78    1
    87    88    87    1
    88    89    87    1
    89    90    87    1
    90    91    73    1
    91    92    91    1
    92    93    92    1
    93    94    92    1
    94    95    92    1
    95    96    91    1
    96    97    96    1
    97    98    96    1
    98    99    96    1
    99   100    91    1
   100   101   100    1
   101   102   100    1
   102   103   100    1
   103    14    16   ar
   104    16    17    1
   105    22    29   ar
   106    28    29   ar
   107    62    64   ar
   108    64    65    1
   109    70    77   ar
   110    76    77   ar
   111   104   105    1
   112   106   104    2
   113   107   104    2
@<TRIPOS>SUBSTRUCTURE
     1 RES1        1 GROUP             0 ****  ****    0  
     2 RES2      104 GROUP             0 ****  ****    0  
     3 RES3      108 GROUP             0 ****  ****    0  
     4 RES4      109 GROUP             0 ****  ****    0  
@<TRIPOS>CRYSIN
   10.9100   11.7200   17.8510  102.9680   90.5100  108.3180     2     1
