@<TRIPOS>MOLECULE
JITSUB
   104   107     3     0     0
SMALL
USER_CHARGES
****
Generated from the CSD

@<TRIPOS>ATOM
     1 Fe1      5.9265   4.6980   0.0000   Fe        1 RES1   2.0000
     2 C1       0.6306   1.5052   1.2475   C.ar      1 RES1   0.0000
     3 C2      -0.3301   1.5522   2.2402   C.ar      1 RES1   0.0000
     4 C3      -0.5233   0.4181   3.0279   C.ar      1 RES1   0.0000
     5 H1      -1.1710   0.4472   3.6962   H         1 RES1   0.0000
     6 C4       0.1986  -0.7423   2.8639   C.ar      1 RES1   0.0000
     7 C5       1.1557  -0.7348   1.8677   C.ar      1 RES1   0.0000
     8 H2       1.6671  -1.5005   1.7376   H         1 RES1   0.0000
     9 C6       1.3874   0.3617   1.0568   C.ar      1 RES1   0.0000
    10 C7      -0.0622  -1.9638   3.7443   C.3       1 RES1   0.0000
    11 C8      -0.0100  -1.5710   5.2235   C.3       1 RES1   0.0000
    12 H3       0.8410  -1.1717   5.4195   H         1 RES1   0.0000
    13 H4      -0.1303  -2.3537   5.7670   H         1 RES1   0.0000
    14 H5      -0.7105  -0.9405   5.4124   H         1 RES1   0.0000
    15 C9      -1.4437  -2.5613   3.3896   C.3       1 RES1   0.0000
    16 H6      -2.1270  -1.9074   3.5554   H         1 RES1   0.0000
    17 H7      -1.6060  -3.3375   3.9314   H         1 RES1   0.0000
    18 H8      -1.4567  -2.8094   2.4629   H         1 RES1   0.0000
    19 C10      0.9714  -3.0631   3.5269   C.3       1 RES1   0.0000
    20 H9       0.8789  -3.4183   2.6394   H         1 RES1   0.0000
    21 H10      0.8339  -3.7640   4.1684   H         1 RES1   0.0000
    22 H11      1.8532  -2.6985   3.6338   H         1 RES1   0.0000
    23 C11      2.4032   0.2932  -0.0588   C.3       1 RES1   0.0000
    24 H12      2.6705  -0.6295  -0.1925   H         1 RES1   0.0000
    25 H13      1.9954   0.6070  -0.8822   H         1 RES1   0.0000
    26 C12      3.9358   2.2767  -0.2513   C.2       1 RES1   0.0000
    27 H14      3.4623   2.7333  -0.9089   H         1 RES1   0.0000
    28 C13      5.3356   1.7073   1.1637   C.2       1 RES1   0.0000
    29 H15      6.0901   1.7185   1.7073   H         1 RES1   0.0000
    30 C14     -2.7837   4.0159  -0.2299   C.2       1 RES1   0.0000
    31 H16     -2.8210   4.3400  -1.1014   H         1 RES1   0.0000
    32 C15     -3.3680   3.4380   1.6841   C.2       1 RES1   0.0000
    33 H17     -3.8623   3.2604   2.4505   H         1 RES1   0.0000
    34 C16     -1.0745   2.8244   2.5823   C.3       1 RES1   0.0000
    35 H18     -1.5332   2.6957   3.4271   H         1 RES1   0.0000
    36 H19     -0.4285   3.5367   2.7071   H         1 RES1   0.0000
    37 N1       5.0387   2.7230   0.3172   N.2       1 RES1   0.0000
    38 N2       3.5921   1.1031   0.2299   N.pl3     1 RES1   0.0000
    39 N3       4.4994   0.7244   1.1655   N.2       1 RES1   0.0000
    40 N4      -3.8771   3.9078   0.5560   N.2       1 RES1   0.0000
    41 N5      -1.6600   3.6259   0.3368   N.2       1 RES1   0.0000
    42 N6      -2.0594   3.2548   1.5736   N.pl3     1 RES1   0.0000
    43 O1       0.9308   2.5830   0.4446   O.3       1 RES1   0.0000
    44 H20      0.2507   3.0199   0.3083   H         1 RES1   0.0000
    45 O2       5.5188   5.2571   1.9497   O.3       1 RES1   0.0000
    46 H21      4.7306   5.4459   2.2063   H         1 RES1   0.0000
    47 H22      6.1825   5.6038   2.2847   H         1 RES1   0.0000
    48 Fe1     -5.9265   4.6980   0.0000   Fe        1 RES1   2.0000
    49 Fe1     17.7795   4.6980   0.0000   Fe        1 RES1   2.0000
    50 C1B     11.2224   7.8908  -1.2475   C.ar      1 RES1   0.0000
    51 C2B     12.1831   7.8438  -2.2402   C.ar      1 RES1   0.0000
    52 C3B     12.3763   8.9779  -3.0279   C.ar      1 RES1   0.0000
    53 H1B     13.0240   8.9488  -3.6962   H         1 RES1   0.0000
    54 C4B     11.6544  10.1383  -2.8639   C.ar      1 RES1   0.0000
    55 C5B     10.6973  10.1308  -1.8677   C.ar      1 RES1   0.0000
    56 H2B     10.1859  10.8965  -1.7376   H         1 RES1   0.0000
    57 C6B     10.4656   9.0343  -1.0568   C.ar      1 RES1   0.0000
    58 C7B     11.9152  11.3598  -3.7443   C.3       1 RES1   0.0000
    59 C8B     11.8630  10.9670  -5.2235   C.3       1 RES1   0.0000
    60 H3B     11.0120  10.5677  -5.4195   H         1 RES1   0.0000
    61 H4B     11.9833  11.7497  -5.7670   H         1 RES1   0.0000
    62 H5B     12.5635  10.3365  -5.4124   H         1 RES1   0.0000
    63 C9B     13.2967  11.9573  -3.3896   C.3       1 RES1   0.0000
    64 H6B     13.9800  11.3034  -3.5554   H         1 RES1   0.0000
    65 H7B     13.4590  12.7335  -3.9314   H         1 RES1   0.0000
    66 H8B     13.3097  12.2054  -2.4629   H         1 RES1   0.0000
    67 C10B    10.8816  12.4591  -3.5269   C.3       1 RES1   0.0000
    68 H9B     10.9741  12.8143  -2.6394   H         1 RES1   0.0000
    69 H10B    11.0191  13.1600  -4.1684   H         1 RES1   0.0000
    70 H11B     9.9998  12.0945  -3.6338   H         1 RES1   0.0000
    71 C11B     9.4498   9.1028   0.0588   C.3       1 RES1   0.0000
    72 H12B     9.1825  10.0255   0.1925   H         1 RES1   0.0000
    73 H13B     9.8576   8.7890   0.8822   H         1 RES1   0.0000
    74 C12B     7.9172   7.1193   0.2513   C.2       1 RES1   0.0000
    75 H14B     8.3907   6.6627   0.9089   H         1 RES1   0.0000
    76 C13B     6.5174   7.6887  -1.1637   C.2       1 RES1   0.0000
    77 H15B     5.7629   7.6775  -1.7073   H         1 RES1   0.0000
    78 C14B    14.6367   5.3801   0.2299   C.2       1 RES1   0.0000
    79 H16B    14.6740   5.0560   1.1014   H         1 RES1   0.0000
    80 C15B    15.2210   5.9580  -1.6841   C.2       1 RES1   0.0000
    81 H17B    15.7153   6.1356  -2.4505   H         1 RES1   0.0000
    82 C16B    12.9275   6.5716  -2.5823   C.3       1 RES1   0.0000
    83 H18B    13.3862   6.7003  -3.4271   H         1 RES1   0.0000
    84 H19B    12.2815   5.8593  -2.7071   H         1 RES1   0.0000
    85 N1B      6.8143   6.6730  -0.3172   N.2       1 RES1   0.0000
    86 N2B      8.2609   8.2929  -0.2299   N.pl3     1 RES1   0.0000
    87 N3B      7.3536   8.6716  -1.1655   N.2       1 RES1   0.0000
    88 N4B     15.7301   5.4882  -0.5560   N.2       1 RES1   0.0000
    89 N4       7.9759   3.9078   0.5560   N.3       1 RES1   0.0000
    90 N4B      3.8771   5.4882  -0.5560   N.3       1 RES1   0.0000
    91 N5B     13.5130   5.7701  -0.3368   N.2       1 RES1   0.0000
    92 N6B     13.9124   6.1412  -1.5736   N.pl3     1 RES1   0.0000
    93 O1B     10.9222   6.8130  -0.4446   O.3       1 RES1   0.0000
    94 H20B    11.6023   6.3761  -0.3083   H         1 RES1   0.0000
    95 O2B      6.3342   4.1389  -1.9497   O.3       1 RES1   0.0000
    96 H21B     7.1224   3.9501  -2.2063   H         1 RES1   0.0000
    97 H22B     5.6705   3.7922  -2.2847   H         1 RES1   0.0000
    98 N7       7.0834   4.9188   5.0399   N.pl3     2 RES2   0.0000
    99 O3       7.1427   4.2310   4.2344   O.3       2 RES2  -1.0000
   100 O4       6.6466   6.0679   4.7459   O.2       2 RES2   0.0000
   101 O5       7.2209   4.7995   6.2233   O.2       2 RES2   0.0000
   102 O6       4.8876   7.7385   2.7926   O.3       3 RES3   0.0000
   103 H23      4.3619   8.1961   2.3061   H         3 RES3   0.0000
   104 H24      5.6012   8.1999   2.7677   H         3 RES3   0.0000
@<TRIPOS>BOND
     1     1    37    1
     2     2     3   ar
     3     3     4   ar
     4     4     5    1
     5     6     4   ar
     6     7     6   ar
     7     8     7    1
     8     9     2   ar
     9    10     6    1
    10    11    10    1
    11    12    11    1
    12    13    11    1
    13    14    11    1
    14    15    10    1
    15    16    15    1
    16    17    15    1
    17    18    15    1
    18    19    10    1
    19    20    19    1
    20    21    19    1
    21    22    19    1
    22    23     9    1
    23    24    23    1
    24    25    23    1
    25    26    27    1
    26    28    29    1
    27    30    31    1
    28    32    33    1
    29    34     3    1
    30    35    34    1
    31    36    34    1
    32    37    26    2
    33    38    23    1
    34    39    28    2
    35    40    30    1
    36    41    30    2
    37    42    32    1
    38    43     2    1
    39    44    43    1
    40    45     1    1
    41    46    45    1
    42    47    45    1
    43    48    40   un
    44    49    88   un
    45    50    51   ar
    46    51    52   ar
    47    52    53    1
    48    54    52   ar
    49    55    54   ar
    50    56    55    1
    51    57    50   ar
    52    58    54    1
    53    59    58    1
    54    60    59    1
    55    61    59    1
    56    62    59    1
    57    63    58    1
    58    64    63    1
    59    65    63    1
    60    66    63    1
    61    67    58    1
    62    68    67    1
    63    69    67    1
    64    70    67    1
    65    71    57    1
    66    72    71    1
    67    73    71    1
    68    74    75    1
    69    76    77    1
    70    78    79    1
    71    80    81    1
    72    82    51    1
    73    83    82    1
    74    84    82    1
    75    85     1    1
    76    86    71    1
    77    87    76    2
    78    88    78    1
    79    89     1   un
    80    90     1   un
    81    91    78    2
    82    92    80    1
    83    93    50    1
    84    94    93    1
    85    95     1    1
    86    96    95    1
    87    97    95    1
    88     7     9   ar
    89    26    38    1
    90    28    37    1
    91    32    40    2
    92    34    42    1
    93    38    39    1
    94    41    42    1
    95    55    57   ar
    96    74    85    2
    97    74    86    1
    98    76    85    1
    99    80    88    2
   100    82    92    1
   101    86    87    1
   102    91    92    1
   103    98    99    1
   104   100    98    2
   105   101    98    2
   106   102   103    1
   107   104   102    1
@<TRIPOS>SUBSTRUCTURE
     1 RES1        1 GROUP             0 ****  ****    0  
     2 RES2       98 GROUP             0 ****  ****    0  
     3 RES3      102 GROUP             0 ****  ****    0  
@<TRIPOS>CRYSIN
   11.8530    9.3960   18.7810   90.0000  108.3940   90.0000   231     1
