@<TRIPOS>MOLECULE
JOBYEE
   105   113     3     0     0
SMALL
USER_CHARGES
****
Generated from the CSD

@<TRIPOS>ATOM
     1 Fe1      3.0643   0.8872   2.9394   Fe        1 RES1   1.0000
     2 O1       2.8539  -0.9128   2.4601   O.3       1 RES1   0.0000
     3 O2       1.3010   1.3045   3.4240   O.3       1 RES1   0.0000
     4 N1       2.6846   1.4641   1.0704   N.2       1 RES1   0.0000
     5 N2       3.5858   2.8746   3.1440   N.3       1 RES1   0.0000
     6 N3       5.1133   0.6886   2.6934   N.3       1 RES1   0.0000
     7 N4       3.5091   0.3786   4.8021   N.2       1 RES1   0.0000
     8 C1       2.2157  -1.4358   1.4218   C.ar      1 RES1   0.0000
     9 C2       1.9356  -2.7918   1.4058   C.ar      1 RES1   0.0000
    10 C3       1.2983  -3.3855   0.3602   C.ar      1 RES1   0.0000
    11 C4       0.8986  -2.6383  -0.7364   C.ar      1 RES1   0.0000
    12 C5       1.1709  -1.3086  -0.7816   C.ar      1 RES1   0.0000
    13 C6       1.8367  -0.6614   0.2946   C.ar      1 RES1   0.0000
    14 C7       2.1211   0.7270   0.1633   C.2       1 RES1   0.0000
    15 C8       2.9331   2.8888   0.7845   C.3       1 RES1   0.0000
    16 C9       2.8726   3.6299   2.0737   C.3       1 RES1   0.0000
    17 C10      5.0773   3.0665   3.1834   C.3       1 RES1   0.0000
    18 C11      5.7524   1.9750   2.3989   C.3       1 RES1   0.0000
    19 C12      5.6315   0.0626   3.8834   C.2       1 RES1   0.0000
    20 C13      4.8413  -0.1646   4.9800   C.3       1 RES1   0.0000
    21 C14      2.7490   0.5049   5.8404   C.2       1 RES1   0.0000
    22 C15      1.4073   1.0238   5.8083   C.ar      1 RES1   0.0000
    23 C16      0.7336   1.1319   7.0318   C.ar      1 RES1   0.0000
    24 C17     -0.5412   1.5701   7.1091   C.ar      1 RES1   0.0000
    25 C18     -1.1952   1.9134   5.9483   C.ar      1 RES1   0.0000
    26 C19     -0.5653   1.8326   4.7248   C.ar      1 RES1   0.0000
    27 C20      0.7626   1.3681   4.6213   C.ar      1 RES1   0.0000
    28 H1       2.1238  -3.3421   2.0562   H         1 RES1   0.0000
    29 H2       1.2079  -4.4326   0.3791   H         1 RES1   0.0000
    30 H3       0.4832  -2.9887  -1.4874   H         1 RES1   0.0000
    31 H4       0.7108  -0.4948  -1.5458   H         1 RES1   0.0000
    32 H5       1.8408   0.8683  -0.6125   H         1 RES1   0.0000
    33 H6       2.0146   3.0392   0.1021   H         1 RES1   0.0000
    34 H7       3.7517   2.7565   0.4229   H         1 RES1   0.0000
    35 H8       3.3535   4.5336   2.0853   H         1 RES1   0.0000
    36 H9       1.9944   3.7359   2.3916   H         1 RES1   0.0000
    37 H10      5.2080   4.0994   2.7415   H         1 RES1   0.0000
    38 H11      5.4486   3.0089   4.3456   H         1 RES1   0.0000
    39 H12      5.8270   1.8478   1.4583   H         1 RES1   0.0000
    40 H13      6.6796   2.0598   2.6103   H         1 RES1   0.0000
    41 H14      6.4121  -0.3130   3.7332   H         1 RES1   0.0000
    42 H15      4.8606  -0.9087   4.4331   H         1 RES1   0.0000
    43 H16      4.8873  -0.5452   5.8039   H         1 RES1   0.0000
    44 H17      3.0603   0.1716   6.7080   H         1 RES1   0.0000
    45 H18      1.1751   0.8683   7.8309   H         1 RES1   0.0000
    46 H19     -1.0134   1.6155   7.9913   H         1 RES1   0.0000
    47 H20     -2.0515   2.4435   5.8185   H         1 RES1   0.0000
    48 H21     -1.0092   2.1406   3.8644   H         1 RES1   0.0000
    49 H22      3.1714   3.2714   3.9665   H         1 RES1   0.0000
    50 H23      5.2495   0.0606   2.0562   H         1 RES1   0.0000
    51 O3       2.6037   5.0172   4.9231   O.2       2 RES2   0.0000
    52 C21      1.8011   5.7200   5.4641   C.2       2 RES2   0.0000
    53 C22      1.9201   7.1830   5.4758   C.3       2 RES2   0.0000
    54 C23      0.6872   5.1374   6.2691   C.3       2 RES2   0.0000
    55 H24      1.7434   7.8959   6.5185   H         2 RES2   0.0000
    56 H25      1.2511   7.7444   4.7540   H         2 RES2   0.0000
    57 H26      2.5859   7.6636   5.2060   H         2 RES2   0.0000
    58 H27      0.4866   5.6745   7.0726   H         2 RES2   0.0000
    59 H28     -0.0418   5.8966   5.7602   H         2 RES2   0.0000
    60 H29      0.7700   3.9378   6.2268   H         2 RES2   0.0000
    61 B1       5.2447   0.6775  -3.6063   B         3 RES3  -1.0000
    62 C24      4.8935  -0.8855  -3.9563   C.ar      3 RES3   0.0000
    63 C25      4.0785  -1.6509  -3.1119   C.ar      3 RES3   0.0000
    64 C26      3.7950  -2.9776  -3.3190   C.ar      3 RES3   0.0000
    65 C27      4.3117  -3.6460  -4.4011   C.ar      3 RES3   0.0000
    66 C28      5.0959  -2.9443  -5.2789   C.ar      3 RES3   0.0000
    67 C29      5.3737  -1.5923  -5.0704   C.ar      3 RES3   0.0000
    68 C30      3.8773   1.5196  -3.2607   C.ar      3 RES3   0.0000
    69 C31      2.5985   1.1036  -3.6821   C.ar      3 RES3   0.0000
    70 C32      1.4665   1.8750  -3.4896   C.ar      3 RES3   0.0000
    71 C33      1.5614   3.1109  -2.9165   C.ar      3 RES3   0.0000
    72 C34      2.7919   3.5733  -2.5024   C.ar      3 RES3   0.0000
    73 C35      3.9258   2.7736  -2.6497   C.ar      3 RES3   0.0000
    74 C36      6.2721   0.7189  -2.2939   C.ar      3 RES3   0.0000
    75 C37      6.2478  -0.1676  -1.2235   C.ar      3 RES3   0.0000
    76 C38      7.1403  -0.1121  -0.1604   C.ar      3 RES3   0.0000
    77 C39      8.1092   0.8330  -0.1094   C.ar      3 RES3   0.0000
    78 C40      8.1665   1.7458  -1.1025   C.ar      3 RES3   0.0000
    79 C41      7.2853   1.6892  -2.1874   C.ar      3 RES3   0.0000
    80 C42      5.9822   1.4186  -4.8939   C.ar      3 RES3   0.0000
    81 C43      7.2476   1.0349  -5.3329   C.ar      3 RES3   0.0000
    82 C44      7.8777   1.5893  -6.4222   C.ar      3 RES3   0.0000
    83 C45      7.2577   2.5879  -7.1222   C.ar      3 RES3   0.0000
    84 C46      6.0332   3.0251  -6.7197   C.ar      3 RES3   0.0000
    85 C47      5.4003   2.4475  -5.6304   C.ar      3 RES3   0.0000
    86 H30      3.6557  -1.2621  -2.4061   H         3 RES3   0.0000
    87 H31      3.2073  -3.3219  -2.7270   H         3 RES3   0.0000
    88 H32      4.1784  -4.6244  -4.5644   H         3 RES3   0.0000
    89 H33      5.4609  -3.3926  -6.0810   H         3 RES3   0.0000
    90 H34      5.9326  -1.0299  -5.7310   H         3 RES3   0.0000
    91 H35      2.5500   0.1918  -4.0977   H         3 RES3   0.0000
    92 H36      0.6377   1.5246  -3.9519   H         3 RES3   0.0000
    93 H37      0.8911   3.5440  -2.8290   H         3 RES3   0.0000
    94 H38      2.9019   4.4629  -2.1145   H         3 RES3   0.0000
    95 H39      4.8670   3.0695  -2.2457   H         3 RES3   0.0000
    96 H40      5.6030  -0.7169  -1.2395   H         3 RES3   0.0000
    97 H41      7.0713  -0.9592   0.4083   H         3 RES3   0.0000
    98 H42      8.6685   0.7876   0.5541   H         3 RES3   0.0000
    99 H43      8.8068   2.3324  -1.2104   H         3 RES3   0.0000
   100 H44      7.2562   2.3627  -2.8582   H         3 RES3   0.0000
   101 H45      7.8009   0.4140  -4.7831   H         3 RES3   0.0000
   102 H46      8.7336   1.3631  -6.7372   H         3 RES3   0.0000
   103 H47      7.6356   2.8776  -7.8601   H         3 RES3   0.0000
   104 H48      5.4857   3.7258  -7.2330   H         3 RES3   0.0000
   105 H49      4.5633   2.7666  -5.3518   H         3 RES3   0.0000
@<TRIPOS>BOND
     1     1     2    1
     2     2     8    1
     3     3     1    1
     4     4     1    1
     5     5     1    1
     6     6     1    1
     7     7     1    1
     8     8     9   ar
     9     9    10   ar
    10    10    11   ar
    11    11    12   ar
    12    12    13   ar
    13    13     8   ar
    14    14     4    2
    15    15     4    1
    16    16     5    1
    17    17     5    1
    18    18     6    1
    19    19     6    1
    20    20     7    1
    21    21     7    2
    22    22    21    1
    23    23    22   ar
    24    24    23   ar
    25    25    24   ar
    26    26    25   ar
    27    27     3    1
    28    28     9    1
    29    29    10    1
    30    30    11    1
    31    31    12    1
    32    32    14    1
    33    33    15    1
    34    34    15    1
    35    35    16    1
    36    36    16    1
    37    37    17    1
    38    38    17    1
    39    39    18    1
    40    40    18    1
    41    41    19    1
    42    42    20    1
    43    43    20    1
    44    44    21    1
    45    45    23    1
    46    46    24    1
    47    47    25    1
    48    48    26    1
    49    49     5    1
    50    50     6    1
    51    13    14    1
    52    15    16    1
    53    17    18    1
    54    19    20    1
    55    22    27   ar
    56    26    27   ar
    57    51    52    2
    58    52    53    1
    59    53    55    1
    60    54    52    1
    61    56    53    1
    62    57    53    1
    63    58    54    1
    64    59    54    1
    65    60    54    1
    66    61    62    1
    67    62    63   ar
    68    63    64   ar
    69    64    65   ar
    70    65    66   ar
    71    66    67   ar
    72    67    62   ar
    73    68    61    1
    74    69    68   ar
    75    70    69   ar
    76    71    70   ar
    77    72    71   ar
    78    73    68   ar
    79    74    61    1
    80    75    74   ar
    81    76    75   ar
    82    77    76   ar
    83    78    77   ar
    84    79    74   ar
    85    80    61    1
    86    81    80   ar
    87    82    81   ar
    88    83    82   ar
    89    84    83   ar
    90    85    80   ar
    91    86    63    1
    92    87    64    1
    93    88    65    1
    94    89    66    1
    95    90    67    1
    96    91    69    1
    97    92    70    1
    98    93    71    1
    99    94    72    1
   100    95    73    1
   101    96    75    1
   102    97    76    1
   103    98    77    1
   104    99    78    1
   105   100    79    1
   106   101    81    1
   107   102    82    1
   108   103    83    1
   109   104    84    1
   110   105    85    1
   111    72    73   ar
   112    78    79   ar
   113    84    85   ar
@<TRIPOS>SUBSTRUCTURE
     1 RES1        1 GROUP             0 ****  ****    0  
     2 RES2       51 GROUP             0 ****  ****    0  
     3 RES3       61 GROUP             0 ****  ****    0  
@<TRIPOS>CRYSIN
   27.4180   10.0970   14.7260   90.0000   98.0000   90.0000    14     2
