@<TRIPOS>MOLECULE
JOHPAX
   125   134     3     0     0
SMALL
USER_CHARGES
****
Generated from the CSD

@<TRIPOS>ATOM
     1 Fe1     11.6890   5.8928   3.2427   Fe        1 RES1   1.0000
     2 O1      11.6775   4.3694   2.0803   O.3       1 RES1   0.0000
     3 O2      10.1601   5.0973   4.0369   O.3       1 RES1   0.0000
     4 N1      13.4500   7.0587   2.5532   N.3       1 RES1   0.0000
     5 N2      13.2803   5.1197   4.3812   N.ar      1 RES1   0.0000
     6 N3      11.4227   7.6883   4.3860   N.ar      1 RES1   0.0000
     7 N4      10.8823   7.1213   1.6852   N.ar      1 RES1   0.0000
     8 C1      14.6221   6.1607   2.6801   C.3       1 RES1   0.0000
     9 C2      13.6101   8.2215   3.4656   C.3       1 RES1   0.0000
    10 C3      13.2092   7.4708   1.1568   C.3       1 RES1   0.0000
    11 C4      10.6148   3.5754   2.3199   C.ar      1 RES1   0.0000
    12 C5       9.7983   3.9552   3.4148   C.ar      1 RES1   0.0000
    13 C6       8.6956   3.1671   3.7862   C.ar      1 RES1   0.0000
    14 C7       8.4439   2.0315   3.0007   C.ar      1 RES1   0.0000
    15 C8       9.2101   1.6638   1.8947   C.ar      1 RES1   0.0000
    16 C9      10.3097   2.4510   1.5773   C.ar      1 RES1   0.0000
    17 C10      7.8154   3.5670   4.9715   C.3       1 RES1   0.0000
    18 C11      7.1608   4.9181   4.6780   C.3       1 RES1   0.0000
    19 C12      8.6542   3.6680   6.2537   C.3       1 RES1   0.0000
    20 C13      6.6987   2.5472   5.2238   C.3       1 RES1   0.0000
    21 C14      8.8933   0.4030   1.0775   C.3       1 RES1   0.0000
    22 C15      8.8436   0.7260  -0.4142   C.3       1 RES1   0.0000
    23 C16      9.9691  -0.6415   1.3440   C.3       1 RES1   0.0000
    24 C17      7.5509  -0.2345   1.4567   C.3       1 RES1   0.0000
    25 C18     14.5374   5.3644   3.9385   C.ar      1 RES1   0.0000
    26 C19     15.6410   4.8245   4.5478   C.ar      1 RES1   0.0000
    27 C20     15.4561   3.9894   5.6285   C.ar      1 RES1   0.0000
    28 C21     14.1826   3.7394   6.0902   C.ar      1 RES1   0.0000
    29 C22     13.1247   4.3247   5.4507   C.ar      1 RES1   0.0000
    30 C23     12.3326   8.6505   4.1511   C.ar      1 RES1   0.0000
    31 C24     12.1514   9.9473   4.5732   C.ar      1 RES1   0.0000
    32 C25     11.0004  10.2659   5.2651   C.ar      1 RES1   0.0000
    33 C26     10.0595   9.2962   5.5031   C.ar      1 RES1   0.0000
    34 C27     10.3036   8.0221   5.0540   C.ar      1 RES1   0.0000
    35 C28     11.7590   7.7736   0.8950   C.ar      1 RES1   0.0000
    36 C29     11.3445   8.5942  -0.1254   C.ar      1 RES1   0.0000
    37 C30      9.9893   8.7506  -0.3412   C.ar      1 RES1   0.0000
    38 C31      9.0871   8.1079   0.4618   C.ar      1 RES1   0.0000
    39 C32      9.5656   7.2965   1.4646   C.ar      1 RES1   0.0000
    40 H1      14.6453   5.5695   1.9375   H         1 RES1   0.0000
    41 H2      15.4153   6.6832   2.6944   H         1 RES1   0.0000
    42 H3      14.2449   7.9916   4.1337   H         1 RES1   0.0000
    43 H4      13.9366   8.9552   2.9578   H         1 RES1   0.0000
    44 H5      13.7230   8.2489   0.9759   H         1 RES1   0.0000
    45 H6      13.4843   6.7677   0.5792   H         1 RES1   0.0000
    46 H7       7.7076   1.4804   3.2371   H         1 RES1   0.0000
    47 H8      10.8584   2.2141   0.8410   H         1 RES1   0.0000
    48 H9       7.8353   5.5705   4.5272   H         1 RES1   0.0000
    49 H10      6.6137   4.8433   3.9052   H         1 RES1   0.0000
    50 H11      6.6274   5.1795   5.4190   H         1 RES1   0.0000
    51 H12      9.0099   2.8127   6.4663   H         1 RES1   0.0000
    52 H13      9.3656   4.2831   6.1188   H         1 RES1   0.0000
    53 H14      8.1051   3.9700   6.9677   H         1 RES1   0.0000
    54 H15      6.1703   2.8313   5.9601   H         1 RES1   0.0000
    55 H16      6.1524   2.4787   4.4494   H         1 RES1   0.0000
    56 H17      7.0817   1.6998   5.4174   H         1 RES1   0.0000
    57 H18      9.6615   1.1318  -0.6776   H         1 RES1   0.0000
    58 H19      8.7142  -0.0756  -0.9061   H         1 RES1   0.0000
    59 H20      8.1247   1.3227  -0.5840   H         1 RES1   0.0000
    60 H21      9.9567  -0.8782   2.2644   H         1 RES1   0.0000
    61 H22      9.7975  -1.4120   0.8156   H         1 RES1   0.0000
    62 H23     10.8182  -0.2846   1.1187   H         1 RES1   0.0000
    63 H24      6.8494   0.3854   1.2933   H         1 RES1   0.0000
    64 H25      7.4125  -1.0148   0.9346   H         1 RES1   0.0000
    65 H26      7.5604  -0.4661   2.3786   H         1 RES1   0.0000
    66 H27     16.5152   5.0226   4.2321   H         1 RES1   0.0000
    67 H28     16.2046   3.5885   6.0537   H         1 RES1   0.0000
    68 H29     14.0416   3.1700   6.8376   H         1 RES1   0.0000
    69 H30     12.2459   4.1614   5.7744   H         1 RES1   0.0000
    70 H31     12.8064  10.6120   4.3923   H         1 RES1   0.0000
    71 H32     10.8611  11.1532   5.5761   H         1 RES1   0.0000
    72 H33      9.2566   9.5007   5.9680   H         1 RES1   0.0000
    73 H34      9.6557   7.3489   5.2206   H         1 RES1   0.0000
    74 H35     11.9780   9.0459  -0.6712   H         1 RES1   0.0000
    75 H36      9.6825   9.3055  -1.0489   H         1 RES1   0.0000
    76 H37      8.1529   8.2178   0.3285   H         1 RES1   0.0000
    77 H38      8.9450   6.8430   2.0232   H         1 RES1   0.0000
    78 C33     12.3408   2.6176  10.5873   C.ar      2 RES2   0.0000
    79 C34     12.2121   1.7322   9.5098   C.ar      2 RES2   0.0000
    80 C35     11.2212   0.7782   9.4257   C.ar      2 RES2   0.0000
    81 C36     10.2998   0.6642  10.4508   C.ar      2 RES2   0.0000
    82 C37     10.3938   1.4941  11.5378   C.ar      2 RES2   0.0000
    83 C38     11.4006   2.4597  11.6013   C.ar      2 RES2   0.0000
    84 C39     13.1822   4.9167   9.4892   C.ar      2 RES2   0.0000
    85 C40     14.0320   6.0214   9.3242   C.ar      2 RES2   0.0000
    86 C41     13.7522   7.0659   8.4673   C.ar      2 RES2   0.0000
    87 C42     12.5720   7.0796   7.7548   C.ar      2 RES2   0.0000
    88 C43     11.6939   6.0403   7.9055   C.ar      2 RES2   0.0000
    89 C44     12.0065   4.9770   8.7434   C.ar      2 RES2   0.0000
    90 C45     13.6146   4.4334  12.0678   C.ar      2 RES2   0.0000
    91 C46     14.2894   3.8627  13.1436   C.ar      2 RES2   0.0000
    92 C47     14.2268   4.3790  14.4337   C.ar      2 RES2   0.0000
    93 C48     13.4770   5.5152  14.7098   C.ar      2 RES2   0.0000
    94 C49     12.8179   6.1231  13.6641   C.ar      2 RES2   0.0000
    95 C50     12.8825   5.5904  12.3772   C.ar      2 RES2   0.0000
    96 C51     14.9256   2.9367  10.1795   C.ar      2 RES2   0.0000
    97 C52     15.8613   3.3599   9.2242   C.ar      2 RES2   0.0000
    98 C53     16.9685   2.6068   8.8545   C.ar      2 RES2   0.0000
    99 C54     17.1982   1.3801   9.4241   C.ar      2 RES2   0.0000
   100 C55     16.3196   0.9255  10.3873   C.ar      2 RES2   0.0000
   101 C56     15.2222   1.6870  10.7491   C.ar      2 RES2   0.0000
   102 B1      13.5379   3.7331  10.5746   B         2 RES2  -1.0000
   103 H39     12.8392   1.7919   8.8005   H         2 RES2   0.0000
   104 H40     11.1719   0.2042   8.6704   H         2 RES2   0.0000
   105 H41      9.6070   0.0163  10.4016   H         2 RES2   0.0000
   106 H42      9.7706   1.4129  12.2503   H         2 RES2   0.0000
   107 H43     11.4470   3.0276  12.3613   H         2 RES2   0.0000
   108 H44     14.8376   6.0510   9.8256   H         2 RES2   0.0000
   109 H45     14.3748   7.7783   8.3673   H         2 RES2   0.0000
   110 H46     12.3716   7.7988   7.1661   H         2 RES2   0.0000
   111 H47     10.8683   6.0455   7.4358   H         2 RES2   0.0000
   112 H48     11.3894   4.2591   8.8132   H         2 RES2   0.0000
   113 H49     14.8171   3.0882  12.9897   H         2 RES2   0.0000
   114 H50     14.7010   3.9485  15.1351   H         2 RES2   0.0000
   115 H51     13.4211   5.8631  15.5921   H         2 RES2   0.0000
   116 H52     12.3145   6.9130  13.8212   H         2 RES2   0.0000
   117 H53     12.4105   6.0301  11.6790   H         2 RES2   0.0000
   118 H54     15.7309   4.2042   8.8085   H         2 RES2   0.0000
   119 H55     17.5717   2.9446   8.2023   H         2 RES2   0.0000
   120 H56     17.9444   0.8556   9.1607   H         2 RES2   0.0000
   121 H57     16.4688   0.0851  10.8031   H         2 RES2   0.0000
   122 H58     14.6384   1.3476  11.4172   H         2 RES2   0.0000
   123 N5       2.6556   2.9776   1.5710   N.1       3 RES3   0.0000
   124 C57      1.1033   1.4425   3.0070   C.3       3 RES3   0.0000
   125 C58      1.9854   2.3104   2.2025   C.1       3 RES3   0.0000
@<TRIPOS>BOND
     1     1     2    1
     2     2    11    1
     3     3     1    1
     4     4     1    1
     5     5     1    1
     6     6     1    1
     7     7     1    1
     8     8     4    1
     9     9     4    1
    10    10     4    1
    11    11    12   ar
    12    12     3    1
    13    13    12   ar
    14    14    13   ar
    15    15    14   ar
    16    16    11   ar
    17    17    13    1
    18    18    17    1
    19    19    17    1
    20    20    17    1
    21    21    15    1
    22    22    21    1
    23    23    21    1
    24    24    21    1
    25    25     5   ar
    26    26    25   ar
    27    27    26   ar
    28    28    27   ar
    29    29     5   ar
    30    30     6   ar
    31    31    30   ar
    32    32    31   ar
    33    33    32   ar
    34    34     6   ar
    35    35     7   ar
    36    36    35   ar
    37    37    36   ar
    38    38    37   ar
    39    39     7   ar
    40    40     8    1
    41    41     8    1
    42    42     9    1
    43    43     9    1
    44    44    10    1
    45    45    10    1
    46    46    14    1
    47    47    16    1
    48    48    18    1
    49    49    18    1
    50    50    18    1
    51    51    19    1
    52    52    19    1
    53    53    19    1
    54    54    20    1
    55    55    20    1
    56    56    20    1
    57    57    22    1
    58    58    22    1
    59    59    22    1
    60    60    23    1
    61    61    23    1
    62    62    23    1
    63    63    24    1
    64    64    24    1
    65    65    24    1
    66    66    26    1
    67    67    27    1
    68    68    28    1
    69    69    29    1
    70    70    31    1
    71    71    32    1
    72    72    33    1
    73    73    34    1
    74    74    36    1
    75    75    37    1
    76    76    38    1
    77    77    39    1
    78     8    25    1
    79     9    30    1
    80    10    35    1
    81    15    16   ar
    82    28    29   ar
    83    33    34   ar
    84    38    39   ar
    85    78    79   ar
    86    79    80   ar
    87    80    81   ar
    88    81    82   ar
    89    82    83   ar
    90    83    78   ar
    91    84    85   ar
    92    85    86   ar
    93    86    87   ar
    94    87    88   ar
    95    88    89   ar
    96    89    84   ar
    97    90    91   ar
    98    91    92   ar
    99    92    93   ar
   100    93    94   ar
   101    94    95   ar
   102    95    90   ar
   103    96    97   ar
   104    97    98   ar
   105    98    99   ar
   106    99   100   ar
   107   100   101   ar
   108   101    96   ar
   109   102    78    1
   110   103    79    1
   111   104    80    1
   112   105    81    1
   113   106    82    1
   114   107    83    1
   115   108    85    1
   116   109    86    1
   117   110    87    1
   118   111    88    1
   119   112    89    1
   120   113    91    1
   121   114    92    1
   122   115    93    1
   123   116    94    1
   124   117    95    1
   125   118    97    1
   126   119    98    1
   127   120    99    1
   128   121   100    1
   129   122   101    1
   130    84   102    1
   131    90   102    1
   132    96   102    1
   133   123   125    3
   134   124   125    1
@<TRIPOS>SUBSTRUCTURE
     1 RES1        1 GROUP             0 ****  ****    0  
     2 RES2       78 GROUP             0 ****  ****    0  
     3 RES3      123 GROUP             0 ****  ****    0  
@<TRIPOS>CRYSIN
   12.4640   13.4800   15.9800   85.1100   83.9600   70.7600     2     1
