@<TRIPOS>MOLECULE
JOTPOA
   139   147     6     0     0
SMALL
USER_CHARGES
****
Generated from the CSD

@<TRIPOS>ATOM
     1 Fe1      3.9275   5.1435  13.3710   Fe        1 RES1   2.0000
     2 O1       2.0685   7.8434   7.0805   O.2       1 RES1   0.0000
     3 O2       0.6399   8.9155   8.4128   O.3       1 RES1   0.0000
     4 H1       0.3634   9.2453   7.6915   H         1 RES1   0.0000
     5 N1       1.9524   5.8779  13.9055   N.2       1 RES1   0.0000
     6 N2       1.3021   6.5592  12.9102   N.pl3     1 RES1   0.0000
     7 N3       3.0917   6.0603  11.6091   N.ar      1 RES1   0.0000
     8 N4       4.9417   5.3232  10.5078   N.pl3     1 RES1   0.0000
     9 N5       5.3756   4.8768  11.7220   N.2       1 RES1   0.0000
    10 N6       2.3725   2.3169  12.8268   N.pl3     1 RES1   0.0000
    11 H2       1.6962   2.6419  12.3670   H         1 RES1   0.0000
    12 N7       3.3339   3.0773  13.3618   N.2       1 RES1   0.0000
    13 N8       5.3316   4.1358  14.6178   N.ar      1 RES1   0.0000
    14 N9       5.0080   6.7208  14.4527   N.2       1 RES1   0.0000
    15 N10      5.0284   8.0670  14.5674   N.pl3     1 RES1   0.0000
    16 H3       4.4212   8.6000  14.2211   H         1 RES1   0.0000
    17 C1       1.0924   5.8454  14.9218   C.2       1 RES1   0.0000
    18 H4       1.2652   5.4359  15.7603   H         1 RES1   0.0000
    19 C2      -0.1088   6.5016  14.5865   C.2       1 RES1   0.0000
    20 H5      -0.8737   6.6165  15.1387   H         1 RES1   0.0000
    21 C3       0.0526   6.9358  13.3167   C.2       1 RES1   0.0000
    22 H6      -0.5856   7.4133  12.8003   H         1 RES1   0.0000
    23 C4       1.9176   6.6936  11.6629   C.ar      1 RES1   0.0000
    24 C5       1.3684   7.3796  10.5998   C.ar      1 RES1   0.0000
    25 H7       0.5493   7.8528  10.6839   H         1 RES1   0.0000
    26 C6       2.0640   7.3464   9.3995   C.ar      1 RES1   0.0000
    27 C7       3.2656   6.6268   9.2953   C.ar      1 RES1   0.0000
    28 H8       3.7329   6.5521   8.4720   H         1 RES1   0.0000
    29 C8       3.7320   6.0374  10.4400   C.ar      1 RES1   0.0000
    30 C9       5.7964   4.9685   9.5194   C.2       1 RES1   0.0000
    31 H9       5.7009   5.1573   8.5930   H         1 RES1   0.0000
    32 C10      6.8127   4.2929  10.1030   C.2       1 RES1   0.0000
    33 H10      7.5699   3.9142   9.6725   H         1 RES1   0.0000
    34 C11      6.5246   4.2628  11.4614   C.2       1 RES1   0.0000
    35 H11      7.0767   3.8572  12.1188   H         1 RES1   0.0000
    36 C12      1.5924   8.0516   8.1609   C.2       1 RES1   0.0000
    37 C13     -1.8992  -2.6302   9.8216   C.ar      1 RES1   0.0000
    38 H12     -1.6642  -1.8747   9.2956   H         1 RES1   0.0000
    39 C14     -2.8610  -3.4994   9.3561   C.ar      1 RES1   0.0000
    40 H13     -3.2669  -3.3450   8.5123   H         1 RES1   0.0000
    41 C15     -3.2353  -4.5874  10.1013   C.ar      1 RES1   0.0000
    42 H14     -3.8997  -5.1851   9.7782   H         1 RES1   0.0000
    43 C16     -2.6484  -4.7997  11.2999   C.ar      1 RES1   0.0000
    44 H15     -2.9151  -5.5493  11.8182   H         1 RES1   0.0000
    45 C17     -1.6620  -3.9444  11.7984   C.ar      1 RES1   0.0000
    46 H16     -1.2631  -4.1181  12.6422   H         1 RES1   0.0000
    47 C18     -1.2626  -2.8302  11.0497   C.ar      1 RES1   0.0000
    48 C19     -0.2480  -1.8752  11.5570   C.ar      1 RES1   0.0000
    49 C20      0.7436  -2.2373  12.4724   C.ar      1 RES1   0.0000
    50 H17      0.7914  -3.1376  12.7711   H         1 RES1   0.0000
    51 C21      1.6553  -1.3177  12.9536   C.ar      1 RES1   0.0000
    52 H18      2.3139  -1.5930  13.5799   H         1 RES1   0.0000
    53 C22      1.6212   0.0053  12.5298   C.ar      1 RES1   0.0000
    54 C23      0.6652   0.3576  11.5969   C.ar      1 RES1   0.0000
    55 H19      0.6371   1.2511  11.2751   H         1 RES1   0.0000
    56 C24     -0.2451  -0.5521  11.1279   C.ar      1 RES1   0.0000
    57 H20     -0.8919  -0.2722  10.4915   H         1 RES1   0.0000
    58 C25      2.5440   0.9983  13.0648   C.2       1 RES1   0.0000
    59 C26      3.7116   0.9053  13.8222   C.2       1 RES1   0.0000
    60 H21      4.1172   0.1149  14.1589   H         1 RES1   0.0000
    61 C27      4.1545   2.2104  13.9820   C.2       1 RES1   0.0000
    62 C28      5.3349   2.8020  14.6403   C.ar      1 RES1   0.0000
    63 C29      6.3802   2.0972  15.2223   C.ar      1 RES1   0.0000
    64 H22      6.3832   1.1472  15.2408   H         1 RES1   0.0000
    65 C30      7.4163   2.8299  15.7764   C.ar      1 RES1   0.0000
    66 H23      8.1574   2.3731  16.1592   H         1 RES1   0.0000
    67 C31      7.3942   4.2115  15.7834   C.ar      1 RES1   0.0000
    68 H24      8.0997   4.7102  16.1796   H         1 RES1   0.0000
    69 C32      6.3100   4.8536  15.1927   C.ar      1 RES1   0.0000
    70 C33      6.1073   6.2912  15.1180   C.2       1 RES1   0.0000
    71 C34      6.8114   7.3672  15.6531   C.2       1 RES1   0.0000
    72 H25      7.6122   7.3317  16.1625   H         1 RES1   0.0000
    73 C35      6.1030   8.4990  15.2865   C.2       1 RES1   0.0000
    74 C36      6.3793   9.9169  15.5280   C.ar      1 RES1   0.0000
    75 C37      7.6639  10.3163  15.9119   C.ar      1 RES1   0.0000
    76 H26      8.3322   9.6564  16.0610   H         1 RES1   0.0000
    77 C38      7.9800  11.6451  16.0769   C.ar      1 RES1   0.0000
    78 H27      8.8603  11.8868  16.3380   H         1 RES1   0.0000
    79 C39      7.0307  12.6456  15.8685   C.ar      1 RES1   0.0000
    80 C40      5.7308  12.2388  15.5106   C.ar      1 RES1   0.0000
    81 H28      5.0585  12.8955  15.3762   H         1 RES1   0.0000
    82 C41      5.4170  10.9119  15.3491   C.ar      1 RES1   0.0000
    83 H29      4.5300  10.6673  15.1139   H         1 RES1   0.0000
    84 C42      7.3633  14.0747  16.0092   C.ar      1 RES1   0.0000
    85 C43      8.1972  14.5256  17.0341   C.ar      1 RES1   0.0000
    86 H30      8.5670  13.8984  17.6431   H         1 RES1   0.0000
    87 C44      8.4983  15.8747  17.1800   C.ar      1 RES1   0.0000
    88 H31      9.0533  16.1646  17.8943   H         1 RES1   0.0000
    89 C45      7.9920  16.7873  16.2923   C.ar      1 RES1   0.0000
    90 H32      8.1926  17.7096  16.3941   H         1 RES1   0.0000
    91 C46      7.1922  16.3685  15.2535   C.ar      1 RES1   0.0000
    92 H33      6.8597  17.0013  14.6282   H         1 RES1   0.0000
    93 C47      6.8694  15.0233  15.1146   C.ar      1 RES1   0.0000
    94 H34      6.3052  14.7477  14.4028   H         1 RES1   0.0000
    95 O3       5.9961  -0.7360  11.1800   O.3       2 RES2   0.0000
    96 C48      4.2473  -2.1334  10.4852   C.3       2 RES2   0.0000
    97 H35      4.6520  -2.2816   9.6044   H         2 RES2   0.0000
    98 H36      3.6340  -1.3701  10.4374   H         2 RES2   0.0000
    99 H37      3.7514  -2.9342  10.7551   H         2 RES2   0.0000
   100 C49      5.2806  -1.8606  11.4493   C.3       2 RES2   0.0000
   101 H38      4.8670  -1.7690  12.3434   H         2 RES2   0.0000
   102 H39      5.8998  -2.6319  11.4808   H         2 RES2   0.0000
   103 C50      6.9216  -0.3667  12.0920   C.3       2 RES2   0.0000
   104 H40      7.6757  -1.0079  12.0668   H         2 RES2   0.0000
   105 H41      6.5203  -0.4062  12.9964   H         2 RES2   0.0000
   106 C51      7.4351   0.9909  11.8523   C.3       2 RES2   0.0000
   107 H42      7.7932   1.0480  10.9421   H         2 RES2   0.0000
   108 H43      8.1475   1.1884  12.4964   H         2 RES2   0.0000
   109 H44      6.7085   1.6384  11.9599   H         2 RES2   0.0000
   110 Cl1     -0.5953   6.4688  18.2049   Cl        3 RES3   0.0000
   111 O4       0.7811   6.8458  18.2327   O.2       3 RES3   0.0000
   112 O5      -1.0946   6.3956  19.5428   O.2       3 RES3   0.0000
   113 O6      -1.3449   7.4511  17.4760   O.2       3 RES3   0.0000
   114 O7      -0.7219   5.1891  17.5639   O.3       3 RES3  -1.0000
   115 Cl2     -0.6636   3.9944  11.2297   Cl        4 RES4   0.0000
   116 O8      -1.0408   3.7382  12.5767   O.2       4 RES4   0.0000
   117 O9      -1.0951   5.2990  10.8192   O.2       4 RES4   0.0000
   118 O10      0.7897   3.9403  11.1244   O.3       4 RES4  -1.0000
   119 O11     -1.2070   3.0024  10.3566   O.2       4 RES4   0.0000
   120 O12      2.6339   9.2740  13.6912   O.2       5 RES5   0.0000
   121 C52      0.5188  10.3031  13.9716   C.3       5 RES5   0.0000
   122 H45      0.5086  11.2092  14.3451   H         5 RES5   0.0000
   123 H46     -0.2853   9.8223  14.2593   H         5 RES5   0.0000
   124 H47      0.5364  10.3536  12.9930   H         5 RES5   0.0000
   125 C53      1.7193   9.5867  14.4493   C.2       5 RES5   0.0000
   126 C54      1.7769   9.2428  15.9102   C.3       5 RES5   0.0000
   127 H48      2.5227   8.6282  16.0726   H         5 RES5   0.0000
   128 H49      0.9371   8.8160  16.1798   H         5 RES5   0.0000
   129 H50      1.9093  10.0615  16.4338   H         5 RES5   0.0000
   130 O13      9.3721   9.0918  11.5292   O.2       6 RES6   0.0000
   131 C55      8.1168   8.9157   9.5836   C.3       6 RES6   0.0000
   132 H51      7.2280   9.3234   9.5267   H         6 RES6   0.0000
   133 H52      8.1311   8.0884   9.0574   H         6 RES6   0.0000
   134 H53      8.7861   9.5382   9.2314   H         6 RES6   0.0000
   135 C56      8.4232   8.6080  10.9803   C.2       6 RES6   0.0000
   136 C57      7.5352   7.6485  11.7012   C.3       6 RES6   0.0000
   137 H54      7.8356   6.7317  11.5275   H         6 RES6   0.0000
   138 H55      6.6136   7.7551  11.3852   H         6 RES6   0.0000
   139 H56      7.5733   7.8275  12.6638   H         6 RES6   0.0000
@<TRIPOS>BOND
     1     1     5    1
     2     2    36    2
     3     3     4    1
     4     5     6    1
     5     6    21    1
     6     7     1    1
     7     8     9    1
     8     9     1    1
     9    10    11    1
    10    12     1    1
    11    13     1    1
    12    14     1    1
    13    15    14    1
    14    16    15    1
    15    17     5    2
    16    18    17    1
    17    19    17    1
    18    20    19    1
    19    21    19    2
    20    22    21    1
    21    23     6    1
    22    24    23   ar
    23    25    24    1
    24    26    24   ar
    25    27    26   ar
    26    28    27    1
    27    29     7   ar
    28    30     8    1
    29    31    30    1
    30    32    30    2
    31    33    32    1
    32    34     9    2
    33    35    34    1
    34    36     3    1
    35    37    38    1
    36    39    37   ar
    37    40    39    1
    38    41    39   ar
    39    42    41    1
    40    43    41   ar
    41    44    43    1
    42    45    43   ar
    43    46    45    1
    44    47    37   ar
    45    48    47    1
    46    49    48   ar
    47    50    49    1
    48    51    49   ar
    49    52    51    1
    50    53    51   ar
    51    54    53   ar
    52    55    54    1
    53    56    48   ar
    54    57    56    1
    55    58    10    1
    56    59    58    2
    57    60    59    1
    58    61    12    2
    59    62    13   ar
    60    63    62   ar
    61    64    63    1
    62    65    63   ar
    63    66    65    1
    64    67    65   ar
    65    68    67    1
    66    69    13   ar
    67    70    14    2
    68    71    70    1
    69    72    71    1
    70    73    15    1
    71    74    73    1
    72    75    74   ar
    73    76    75    1
    74    77    75   ar
    75    78    77    1
    76    79    77   ar
    77    80    79   ar
    78    81    80    1
    79    82    74   ar
    80    83    82    1
    81    84    79    1
    82    85    84   ar
    83    86    85    1
    84    87    85   ar
    85    88    87    1
    86    89    87   ar
    87    90    89    1
    88    91    89   ar
    89    92    91    1
    90    93    84   ar
    91    94    93    1
    92     7    23   ar
    93     8    29    1
    94    10    12    1
    95    26    36    1
    96    27    29   ar
    97    32    34    1
    98    45    47   ar
    99    53    58    1
   100    54    56   ar
   101    59    61    1
   102    61    62    1
   103    67    69   ar
   104    69    70    1
   105    71    73    2
   106    80    82   ar
   107    91    93   ar
   108    95   100    1
   109    96    97    1
   110    98    96    1
   111    99    96    1
   112   100    96    1
   113   101   100    1
   114   102   100    1
   115   103    95    1
   116   104   103    1
   117   105   103    1
   118   106   103    1
   119   107   106    1
   120   108   106    1
   121   109   106    1
   122   110   111    2
   123   112   110    2
   124   113   110    2
   125   114   110    1
   126   115   116    2
   127   117   115    2
   128   118   115    1
   129   119   115    2
   130   120   125    2
   131   121   122    1
   132   123   121    1
   133   124   121    1
   134   125   121    1
   135   126   125    1
   136   127   126    1
   137   128   126    1
   138   129   126    1
   139   130   135    2
   140   131   132    1
   141   133   131    1
   142   134   131    1
   143   135   131    1
   144   136   135    1
   145   137   136    1
   146   138   136    1
   147   139   136    1
@<TRIPOS>SUBSTRUCTURE
     1 RES1        1 GROUP             0 ****  ****    0  
     2 RES2       95 GROUP             0 ****  ****    0  
     3 RES3      110 GROUP             0 ****  ****    0  
     4 RES4      115 GROUP             0 ****  ****    0  
     5 RES5      120 GROUP             0 ****  ****    0  
     6 RES6      130 GROUP             0 ****  ****    0  
@<TRIPOS>CRYSIN
   10.9594   15.2064   18.1301  104.4800   94.5550  103.0520     2     1
