@<TRIPOS>MOLECULE
JUBQOP
   105   108     3     0     0
SMALL
USER_CHARGES
****
Generated from the CSD

@<TRIPOS>ATOM
     1 Fe1      5.9655   6.9446  16.1771   Fe        1 RES1   0.0000
     2 Cl1      7.8580   8.1654  16.3546   Cl        1 RES1  -1.0000
     3 Cl2      4.4761   8.6377  16.3880   Cl        1 RES1   0.0000
     4 S1       6.6578   4.7988  17.7513   S.o2      1 RES1   0.0000
     5 S2       4.6276   5.5474  14.1824   S.o2      1 RES1   0.0000
     6 Si1      5.5137   6.6525  19.7062   Si        1 RES1   0.0000
     7 Si2      6.1791   7.5253  12.6933   Si        1 RES1   0.0000
     8 O1       7.0518   5.0147  16.3324   O.2       1 RES1   0.0000
     9 O2       4.2584   5.5296  15.6197   O.2       1 RES1   0.0000
    10 O3       7.7482   4.5253  18.6687   O.2       1 RES1   0.0000
    11 O4       3.5391   5.8057  13.2616   O.2       1 RES1   0.0000
    12 N1       5.8128   6.0817  18.0611   N.2       1 RES1   0.0000
    13 N2       5.8215   6.5593  14.1270   N.2       1 RES1   0.0000
    14 C1       6.0443   6.4763  11.1654   C.3       1 RES1   0.0000
    15 H1       6.7094   5.7565  11.2043   H         1 RES1   0.0000
    16 H2       6.2072   7.0284  10.3733   H         1 RES1   0.0000
    17 H3       5.1470   6.0868  11.1150   H         1 RES1   0.0000
    18 C2       5.2251   3.9325  13.8211   C.3       1 RES1   0.0000
    19 H4       4.4975   3.2839  13.9241   H         1 RES1   0.0000
    20 H5       5.9527   3.7073  14.4392   H         1 RES1   0.0000
    21 H6       5.5577   3.9054  12.9008   H         1 RES1   0.0000
    22 C3       6.9817   7.6398  20.2520   C.3       1 RES1   0.0000
    23 H7       7.7696   7.0572  20.2955   H         1 RES1   0.0000
    24 H8       6.8076   8.0226  21.1380   H         1 RES1   0.0000
    25 H9       7.1469   8.3630  19.6110   H         1 RES1   0.0000
    26 C4       7.9348   8.1411  12.8046   C.3       1 RES1   0.0000
    27 H10      8.0352   8.7017  13.6013   H         1 RES1   0.0000
    28 H11      8.1468   8.6662  12.0033   H         1 RES1   0.0000
    29 H12      8.5463   7.3773  12.8641   H         1 RES1   0.0000
    30 C5       5.6023   3.3974  17.7772   C.3       1 RES1   0.0000
    31 H13      6.0889   2.6149  17.4429   H         1 RES1   0.0000
    32 H14      4.8211   3.5650  17.2071   H         1 RES1   0.0000
    33 H15      5.3055   3.2280  18.6952   H         1 RES1   0.0000
    34 C6       5.2407   5.2366  20.8747   C.3       1 RES1   0.0000
    35 H16      4.4328   4.7489  20.6115   H         1 RES1   0.0000
    36 H17      5.1314   5.5821  21.7859   H         1 RES1   0.0000
    37 H18      6.0108   4.6337  20.8427   H         1 RES1   0.0000
    38 C7       4.9997   8.9591  12.6169   C.3       1 RES1   0.0000
    39 H19      4.1113   8.6374  12.3582   H         1 RES1   0.0000
    40 H20      5.3166   9.6078  11.9552   H         1 RES1   0.0000
    41 H21      4.9483   9.3876  13.4983   H         1 RES1   0.0000
    42 C8       3.9886   7.6991  19.7232   C.3       1 RES1   0.0000
    43 H22      4.1448   8.5120  19.1989   H         1 RES1   0.0000
    44 H23      3.7698   7.9430  20.6481   H         1 RES1   0.0000
    45 H24      3.2431   7.1978  19.3340   H         1 RES1   0.0000
    46 N3       0.6138   6.0207  16.8752   N.pl3     2 RES2   0.0000
    47 N4       0.6718   7.8295  15.6595   N.pl3     2 RES2   1.0000
    48 C9       1.3816  10.1464  15.8449   C.ar      2 RES2   0.0000
    49 C10      1.1272   9.0557  15.0322   C.ar      2 RES2   0.0000
    50 C11      1.0290   5.0469  17.8802   C.ar      2 RES2   0.0000
    51 C12      1.3928   6.9776  16.3784   C.2       2 RES2   0.0000
    52 H25      2.3302   7.0437  16.5203   H         2 RES2   0.0000
    53 C13      0.8325   5.4094  19.2104   C.ar      2 RES2   0.0000
    54 C14      1.8012   3.2602  19.8422   C.ar      2 RES2   0.0000
    55 C15      1.7945  11.3149  15.1925   C.ar      2 RES2   0.0000
    56 H26      2.0066  12.0771  15.7190   H         2 RES2   0.0000
    57 C16      1.2477   4.4931  20.1742   C.ar      2 RES2   0.0000
    58 H27      1.1472   4.7184  21.0922   H         2 RES2   0.0000
    59 C17      1.9307   2.9418  18.4869   C.ar      2 RES2   0.0000
    60 H28      2.2878   2.0950  18.2488   H         2 RES2   0.0000
    61 C18      1.9061  11.4064  13.8051   C.ar      2 RES2   0.0000
    62 C19      1.6294  10.2666  13.0542   C.ar      2 RES2   0.0000
    63 H29      1.7164  10.3072  12.1086   H         2 RES2   0.0000
    64 C20      1.6896   3.4634  16.0006   C.3       2 RES2   0.0000
    65 H30      2.1516   2.6031  15.9159   H         2 RES2   0.0000
    66 H31      2.2074   4.1578  15.5404   H         2 RES2   0.0000
    67 H32      0.7991   3.3974  15.5954   H         2 RES2   0.0000
    68 C21      1.2298   9.0692  13.6425   C.ar      2 RES2   0.0000
    69 C22      1.5535   3.8241  17.4750   C.ar      2 RES2   0.0000
    70 C23     -0.6495   7.3976  15.7099   C.2       2 RES2   0.0000
    71 H33     -1.3950   7.8143  15.2932   H         2 RES2   0.0000
    72 C24     -0.6785   6.2714  16.4585   C.2       2 RES2   0.0000
    73 H34     -1.4463   5.7515  16.6623   H         2 RES2   0.0000
    74 C25      2.2208   2.2779  20.9182   C.3       2 RES2   0.0000
    75 H35      2.4284   2.7656  21.7424   H         2 RES2   0.0000
    76 H36      3.0132   1.7851  20.6206   H         2 RES2   0.0000
    77 H37      1.4887   1.6479  21.0854   H         2 RES2   0.0000
    78 C26      1.2789  10.0955  17.3445   C.3       2 RES2   0.0000
    79 H38      0.4174   9.7060  17.6009   H         2 RES2   0.0000
    80 H39      1.3459  11.0033  17.7085   H         2 RES2   0.0000
    81 H40      2.0066   9.5451  17.7039   H         2 RES2   0.0000
    82 C27      2.3168  12.7003  13.1457   C.3       2 RES2   0.0000
    83 H41      1.5178  13.1711  12.8252   H         2 RES2   0.0000
    84 H42      2.9061  12.5072  12.3879   H         2 RES2   0.0000
    85 H43      2.7900  13.2626  13.7936   H         2 RES2   0.0000
    86 C28      0.2098   6.7185  19.6224   C.3       2 RES2   0.0000
    87 H44      0.6830   7.4569  19.1852   H         2 RES2   0.0000
    88 H45      0.2745   6.8201  20.5954   H         2 RES2   0.0000
    89 H46     -0.7343   6.7304  19.3546   H         2 RES2   0.0000
    90 C29      0.9955   7.8397  12.8092   C.3       2 RES2   0.0000
    91 H47      1.5356   7.0996  13.1595   H         2 RES2   0.0000
    92 H48      1.2499   8.0192  11.8820   H         2 RES2   0.0000
    93 H49      0.0469   7.5958  12.8481   H         2 RES2   0.0000
    94 C30     12.1198   2.7606  21.9233   C.ar      3 RES3   0.0000
    95 H50     13.0036   2.6573  22.2598   H         3 RES3   0.0000
    96 C31      9.5775   3.0688  20.9228   C.ar      3 RES3   0.0000
    97 H51      8.7048   3.1687  20.5634   H         3 RES3   0.0000
    98 C32     11.3453   1.6496  21.7241   C.ar      3 RES3   0.0000
    99 H52     11.6756   0.7807  21.9164   H         3 RES3   0.0000
   100 C33     11.6488   4.0054  21.6554   C.ar      3 RES3   0.0000
   101 H53     12.2001   4.7624  21.8134   H         3 RES3   0.0000
   102 C34     10.0574   1.8308  21.2250   C.ar      3 RES3   0.0000
   103 H54      9.4994   1.0737  21.0945   H         3 RES3   0.0000
   104 C35     10.3676   4.1781  21.1449   C.ar      3 RES3   0.0000
   105 H55     10.0395   5.0486  20.9526   H         3 RES3   0.0000
@<TRIPOS>BOND
     1     1     2    1
     2     3     1    1
     3     4     8    2
     4     5     9    2
     5     6    12    1
     6     7    13    1
     7     8     1    1
     8     9     1    1
     9    10     4    2
    10    11     5    2
    11    12     1    1
    12    13     1    1
    13    14     7    1
    14    15    14    1
    15    16    14    1
    16    17    14    1
    17    18     5    1
    18    19    18    1
    19    20    18    1
    20    21    18    1
    21    22     6    1
    22    23    22    1
    23    24    22    1
    24    25    22    1
    25    26     7    1
    26    27    26    1
    27    28    26    1
    28    29    26    1
    29    30     4    1
    30    31    30    1
    31    32    30    1
    32    33    30    1
    33    34     6    1
    34    35    34    1
    35    36    34    1
    36    37    34    1
    37    38     7    1
    38    39    38    1
    39    40    38    1
    40    41    38    1
    41    42     6    1
    42    43    42    1
    43    44    42    1
    44    45    42    1
    45     4    12    1
    46     5    13    1
    47    46    50    1
    48    47    49    1
    49    48    49   ar
    50    49    68   ar
    51    50    53   ar
    52    51    46    1
    53    52    51    1
    54    53    57   ar
    55    54    57   ar
    56    55    48   ar
    57    56    55    1
    58    57    58    1
    59    59    54   ar
    60    60    59    1
    61    61    55   ar
    62    62    61   ar
    63    63    62    1
    64    64    65    1
    65    66    64    1
    66    67    64    1
    67    68    62   ar
    68    69    50   ar
    69    70    47    1
    70    71    70    1
    71    72    46    1
    72    73    72    1
    73    74    54    1
    74    75    74    1
    75    76    74    1
    76    77    74    1
    77    78    48    1
    78    79    78    1
    79    80    78    1
    80    81    78    1
    81    82    61    1
    82    83    82    1
    83    84    82    1
    84    85    82    1
    85    86    53    1
    86    87    86    1
    87    88    86    1
    88    89    86    1
    89    90    68    1
    90    91    90    1
    91    92    90    1
    92    93    90    1
    93    47    51    2
    94    59    69   ar
    95    64    69    1
    96    70    72    2
    97    94    95    1
    98    96    97    1
    99    98    94   ar
   100    99    98    1
   101   100    94   ar
   102   101   100    1
   103   102    96   ar
   104   103   102    1
   105   104    96   ar
   106   105   104    1
   107    98   102   ar
   108   100   104   ar
@<TRIPOS>SUBSTRUCTURE
     1 RES1        1 GROUP             0 ****  ****    0  
     2 RES2       46 GROUP             0 ****  ****    0  
     3 RES3       94 GROUP             0 ****  ****    0  
@<TRIPOS>CRYSIN
   22.3200   16.9360   22.8940   90.0000   90.0000   90.0000    61     1
