@<TRIPOS>MOLECULE
JUDDAN
   100   116     2     0     0
SMALL
NO_CHARGES
****
Generated from the CSD

@<TRIPOS>ATOM
     1 Fe1     -3.7834   8.3531  10.6716   Fe        1 RES1   0.0000
     2 Fe2     -5.4211   7.9420   8.6731   Fe        1 RES1   0.0000
     3 Fe3     -1.8042   9.5451   7.0510   Fe        1 RES1   0.0000
     4 P1      -3.5124   9.0716   8.5744   P.3       1 RES1   0.0000
     5 P2      -5.5302   9.6479  10.1096   P.3       1 RES1   0.0000
     6 C1      -2.6922   6.9410  10.4181   C.1       1 RES1   0.0000
     7 C2      -2.6512   9.2492  11.6866   C.1       1 RES1   0.0000
     8 C3      -4.7597   7.5536  11.9679   C.1       1 RES1   0.0000
     9 C4      -6.4612   8.2545   7.2660   C.1       1 RES1   0.0000
    10 C5      -6.6048   6.9670   9.6487   C.1       1 RES1   0.0000
    11 C6      -4.5687   6.5974   7.8812   C.1       1 RES1   0.0000
    12 C7      -3.0768   9.4361   5.7507   C.1       1 RES1   0.0000
    13 C8      -1.2080   7.8838   6.5873   C.1       1 RES1   0.0000
    14 C9      -0.7669   9.6209   8.5490   C.1       1 RES1   0.0000
    15 C10     -0.7367  10.6384   6.0738   C.1       1 RES1   0.0000
    16 O1      -2.0029   6.0564  10.2875   O.2       1 RES1   0.0000
    17 O2      -1.8864   9.7195  12.4016   O.2       1 RES1   0.0000
    18 O3      -5.4057   7.0687  12.7427   O.2       1 RES1   0.0000
    19 O4      -7.1495   8.3303   6.3677   O.2       1 RES1   0.0000
    20 O5      -7.3325   6.3783  10.2730   O.2       1 RES1   0.0000
    21 O6      -3.9730   5.7667   7.3422   O.2       1 RES1   0.0000
    22 O7      -3.8624   9.3582   4.9505   O.2       1 RES1   0.0000
    23 O8      -0.8877   6.8507   6.2716   O.2       1 RES1   0.0000
    24 O9      -0.1432   9.6583   9.5072   O.2       1 RES1   0.0000
    25 O10     -0.0729  11.3528   5.4713   O.2       1 RES1   0.0000
    26 P2B     -3.2697  11.1181   8.0373   P.3       1 RES1   0.0000
    27 Fe3B    -6.9958  11.2209  11.0959   Fe        1 RES1   0.0000
    28 P1B     -5.2875  11.6944   9.5725   P.3       1 RES1   0.0000
    29 Fe1B    -5.0165  12.4129   7.4752   Fe        1 RES1   0.0000
    30 Fe2B    -3.3788  12.8240   9.4738   Fe        1 RES1   0.0000
    31 C7B     -5.7231  11.3299  12.3961   C.1       1 RES1   0.0000
    32 C8B     -7.5919  12.8822  11.5596   C.1       1 RES1   0.0000
    33 C9B     -8.0330  11.1451   9.5979   C.1       1 RES1   0.0000
    34 C10B    -8.0632  10.1276  12.0731   C.1       1 RES1   0.0000
    35 C1B     -6.1077  13.8250   7.7288   C.1       1 RES1   0.0000
    36 C2B     -6.1488  11.5168   6.4603   C.1       1 RES1   0.0000
    37 C3B     -4.0402  13.2124   6.1790   C.1       1 RES1   0.0000
    38 C4B     -2.3387  12.5115  10.8809   C.1       1 RES1   0.0000
    39 C5B     -2.1951  13.7990   8.4982   C.1       1 RES1   0.0000
    40 C6B     -4.2312  14.1686  10.2657   C.1       1 RES1   0.0000
    41 O7B     -4.9375  11.4078  13.1964   O.2       1 RES1   0.0000
    42 O8B     -7.9122  13.9153  11.8753   O.2       1 RES1   0.0000
    43 O9B     -8.6567  11.1077   8.6397   O.2       1 RES1   0.0000
    44 O10B    -8.7271   9.4132  12.6756   O.2       1 RES1   0.0000
    45 O1B     -6.7970  14.7096   7.8594   O.2       1 RES1   0.0000
    46 O2B     -6.9135  11.0465   5.7453   O.2       1 RES1   0.0000
    47 O3B     -3.3942  13.6973   5.4041   O.2       1 RES1   0.0000
    48 O4B     -1.6504  12.4357  11.7791   O.2       1 RES1   0.0000
    49 O5B     -1.4674  14.3877   7.8739   O.2       1 RES1   0.0000
    50 O6B     -4.8269  14.9993  10.8047   O.2       1 RES1   0.0000
    51 Fe4      4.6503   7.4488   7.5861   Fe        2 RES2   0.0000
    52 Fe5      6.8145   6.1654   8.2679   Fe        2 RES2   0.0000
    53 Fe6      4.3062   3.3672   6.2186   Fe        2 RES2   0.0000
    54 P3       4.9556   5.2299   7.4711   P.3       2 RES2   0.0000
    55 P4       5.1106   6.6586   9.6414   P.3       2 RES2   0.0000
    56 C11      5.0033   7.5962   5.8288   C.1       2 RES2   0.0000
    57 C12      2.9427   7.9513   7.4929   C.1       2 RES2   0.0000
    58 C13      5.3237   9.0488   8.0028   C.1       2 RES2   0.0000
    59 C14      7.7507   4.8125   8.9718   C.1       2 RES2   0.0000
    60 C15      7.7569   7.5266   8.9700   C.1       2 RES2   0.0000
    61 C16      7.5702   6.1374   6.6817   C.1       2 RES2   0.0000
    62 C17      5.9060   2.6362   6.7506   C.1       2 RES2   0.0000
    63 C18      4.9615   3.8905   4.5803   C.1       2 RES2   0.0000
    64 C19      2.6968   4.2134   5.9975   C.1       2 RES2   0.0000
    65 C20      3.5783   1.7205   5.8814   C.1       2 RES2   0.0000
    66 O11      5.1898   7.6990   4.7255   O.2       2 RES2   0.0000
    67 O12      1.8989   8.3760   7.3313   O.2       2 RES2   0.0000
    68 O13      5.7368  10.0642   8.2732   O.2       2 RES2   0.0000
    69 O14      8.3981   3.9559   9.3529   O.2       2 RES2   0.0000
    70 O15      8.3106   8.4113   9.4527   O.2       2 RES2   0.0000
    71 O16      8.0280   6.0730   5.6165   O.2       2 RES2   0.0000
    72 O17      6.8999   2.2147   7.0737   O.2       2 RES2   0.0000
    73 O18      5.4252   4.2581   3.6167   O.2       2 RES2   0.0000
    74 O19      1.7032   4.7295   5.9159   O.2       2 RES2   0.0000
    75 O20      3.1462   0.6853   5.7199   O.2       2 RES2   0.0000
    76 P4B      3.8725   3.7244   8.5054   P.3       2 RES2   0.0000
    77 Fe6B     4.6768   7.0158  11.9283   Fe        2 RES2   0.0000
    78 P3B      4.0275   5.1531  10.6758   P.3       2 RES2   0.0000
    79 Fe4B     4.3328   2.9342  10.5608   Fe        2 RES2   0.0000
    80 Fe5B     2.1686   4.2176   9.8790   Fe        2 RES2   0.0000
    81 C17B     3.0771   7.7468  11.3962   C.1       2 RES2   0.0000
    82 C18B     4.0216   6.4925  13.5666   C.1       2 RES2   0.0000
    83 C19B     6.2863   6.1696  12.1493   C.1       2 RES2   0.0000
    84 C20B     5.4048   8.6625  12.2655   C.1       2 RES2   0.0000
    85 C11B     3.9798   2.7868  12.3181   C.1       2 RES2   0.0000
    86 C12B     6.0404   2.4317  10.6540   C.1       2 RES2   0.0000
    87 C13B     3.6594   1.3342  10.1441   C.1       2 RES2   0.0000
    88 C14B     1.2324   5.5705   9.1751   C.1       2 RES2   0.0000
    89 C15B     1.2262   2.8564   9.1769   C.1       2 RES2   0.0000
    90 C16B     1.4129   4.2456  11.4652   C.1       2 RES2   0.0000
    91 O17B     2.0831   8.1683  11.0732   O.2       2 RES2   0.0000
    92 O18B     3.5579   6.1249  14.5302   O.2       2 RES2   0.0000
    93 O19B     7.2798   5.6535  12.2310   O.2       2 RES2   0.0000
    94 O20B     5.8369   9.6977  12.4270   O.2       2 RES2   0.0000
    95 O11B     3.7933   2.6840  13.4214   O.2       2 RES2   0.0000
    96 O12B     7.0842   2.0070  10.8155   O.2       2 RES2   0.0000
    97 O13B     3.2463   0.3188   9.8737   O.2       2 RES2   0.0000
    98 O14B     0.5850   6.4271   8.7940   O.2       2 RES2   0.0000
    99 O15B     0.6725   1.9717   8.6942   O.2       2 RES2   0.0000
   100 O16B     0.9551   4.3100  12.5304   O.2       2 RES2   0.0000
@<TRIPOS>BOND
     1     1     2    1
     2     2     4    1
     3     3     4    1
     4     4     1    1
     5     5     1    1
     6     6     1    1
     7     7     1    1
     8     8     1    1
     9     9     2    1
    10    10     2    1
    11    11     2    1
    12    12     3    1
    13    13     3    1
    14    14     3    1
    15    15     3    1
    16    16     6    3
    17    17     7    3
    18    18     8    3
    19    19     9    3
    20    20    10    3
    21    21    11    3
    22    22    12    3
    23    23    13    3
    24    24    14    3
    25    25    15    3
    26    26     3    1
    27    27     5    1
    28    28     5    1
    29    29    26    1
    30    30    26    1
    31    31    27    1
    32    32    27    1
    33    33    27    1
    34    34    27    1
    35    35    29    1
    36    36    29    1
    37    37    29    1
    38    38    30    1
    39    39    30    1
    40    40    30    1
    41    41    31    3
    42    42    32    3
    43    43    33    3
    44    44    34    3
    45    45    35    3
    46    46    36    3
    47    47    37    3
    48    48    38    3
    49    49    39    3
    50    50    40    3
    51     2     5    1
    52     4     5    1
    53     4    26    1
    54    26    28    1
    55    27    28    1
    56    28    29    1
    57    28    30    1
    58    29    30    1
    59    51    52    1
    60    52    54    1
    61    53    54    1
    62    54    51    1
    63    55    51    1
    64    56    51    1
    65    57    51    1
    66    58    51    1
    67    59    52    1
    68    60    52    1
    69    61    52    1
    70    62    53    1
    71    63    53    1
    72    64    53    1
    73    65    53    1
    74    66    56    3
    75    67    57    3
    76    68    58    3
    77    69    59    3
    78    70    60    3
    79    71    61    3
    80    72    62    3
    81    73    63    3
    82    74    64    3
    83    75    65    3
    84    76    53    1
    85    77    55    1
    86    78    55    1
    87    79    76    1
    88    80    76    1
    89    81    77    1
    90    82    77    1
    91    83    77    1
    92    84    77    1
    93    85    79    1
    94    86    79    1
    95    87    79    1
    96    88    80    1
    97    89    80    1
    98    90    80    1
    99    91    81    3
   100    92    82    3
   101    93    83    3
   102    94    84    3
   103    95    85    3
   104    96    86    3
   105    97    87    3
   106    98    88    3
   107    99    89    3
   108   100    90    3
   109    52    55    1
   110    54    55    1
   111    54    76    1
   112    76    78    1
   113    77    78    1
   114    78    79    1
   115    78    80    1
   116    79    80    1
@<TRIPOS>SUBSTRUCTURE
     1 RES1        1 GROUP             0 ****  ****    0  
     2 RES2       51 GROUP             0 ****  ****    0  
@<TRIPOS>CRYSIN
   17.7830   10.3830   20.1680   90.0000  115.8700   90.0000    14     1
