@<TRIPOS>MOLECULE
JUHDUO
   120   132     1     0     0
SMALL
NO_CHARGES
****
Generated from the CSD

@<TRIPOS>ATOM
     1 Fe1      3.5098  18.2827   1.2053   Fe        1 RES1   0.0000
     2 Si1      3.0919  18.4688   3.2758   Si        1 RES1   0.0000
     3 H1       2.1471  18.5625   1.8715   H         1 RES1   0.0000
     4 C1       1.8999  19.6388   4.1797   C.ar      1 RES1   0.0000
     5 C2       0.5663  19.2656   4.2676   C.ar      1 RES1   0.0000
     6 C3      -0.3694  20.0262   4.9515   C.ar      1 RES1   0.0000
     7 C4       0.0001  21.1816   5.5735   C.ar      1 RES1   0.0000
     8 C5       1.3026  21.5707   5.5126   C.ar      1 RES1   0.0000
     9 C6       2.2468  20.8207   4.8137   C.ar      1 RES1   0.0000
    10 C7       3.6639  17.3883   4.7112   C.ar      1 RES1   0.0000
    11 C8       4.0554  16.0745   4.5236   C.ar      1 RES1   0.0000
    12 C9       4.4246  15.2582   5.5888   C.ar      1 RES1   0.0000
    13 C10      4.4282  15.7556   6.8625   C.ar      1 RES1   0.0000
    14 C11      4.0730  17.0595   7.0888   C.ar      1 RES1   0.0000
    15 C12      3.6695  17.8591   6.0363   C.ar      1 RES1   0.0000
    16 C13      5.1602  17.8926   0.2881   C.3       1 RES1   0.0000
    17 N1       5.2014  17.8460  -1.0703   N.pl3     1 RES1   0.0000
    18 C14      6.4792  17.5510  -1.5109   C.2       1 RES1   0.0000
    19 C15      7.2567  17.4054  -0.4307   C.2       1 RES1   0.0000
    20 N2       6.4436  17.6068   0.6809   N.pl3     1 RES1   0.0000
    21 C16      6.8900  17.4003   2.0356   C.ar      1 RES1   0.0000
    22 C17      7.3270  18.4894   2.7833   C.ar      1 RES1   0.0000
    23 C18      7.6938  18.2672   4.1042   C.ar      1 RES1   0.0000
    24 C19      7.6649  17.0032   4.6739   C.ar      1 RES1   0.0000
    25 C20      7.2966  15.9414   3.8748   C.ar      1 RES1   0.0000
    26 C21      6.9092  16.1044   2.5449   C.ar      1 RES1   0.0000
    27 C22      6.5394  14.9103   1.7033   C.3       1 RES1   0.0000
    28 C23      8.0107  16.8135   6.1380   C.3       1 RES1   0.0000
    29 C24      7.4174  19.8553   2.1765   C.3       1 RES1   0.0000
    30 B1       3.8971  18.0431  -1.9093   B         1 RES1   0.0000
    31 N3       3.3240  19.4181  -1.4743   N.pl3     1 RES1   0.0000
    32 C25      3.1951  19.6906  -0.1406   C.3       1 RES1   0.0000
    33 N4       2.7110  20.9734  -0.1015   N.pl3     1 RES1   0.0000
    34 C26      2.5071  21.4606  -1.3950   C.2       1 RES1   0.0000
    35 C27      2.8737  20.4864  -2.2320   C.2       1 RES1   0.0000
    36 C28      2.5838  21.8503   1.0341   C.ar      1 RES1   0.0000
    37 C29      3.7094  22.5850   1.4162   C.ar      1 RES1   0.0000
    38 C30      3.5493  23.5345   2.4224   C.ar      1 RES1   0.0000
    39 C31      2.3179  23.7669   3.0126   C.ar      1 RES1   0.0000
    40 C32      1.2330  23.0239   2.6025   C.ar      1 RES1   0.0000
    41 C33      1.3395  22.0486   1.6175   C.ar      1 RES1   0.0000
    42 C34      0.1410  21.2467   1.2066   C.3       1 RES1   0.0000
    43 C35      2.1614  24.8204   4.0991   C.3       1 RES1   0.0000
    44 C36      5.0292  22.3845   0.7309   C.3       1 RES1   0.0000
    45 N5       2.8710  17.0208  -1.3288   N.pl3     1 RES1   0.0000
    46 C37      2.6421  17.0638   0.0161   C.3       1 RES1   0.0000
    47 N6       1.6407  16.1490   0.2280   N.pl3     1 RES1   0.0000
    48 C38      1.2363  15.5847  -0.9771   C.2       1 RES1   0.0000
    49 C39      1.9886  16.1379  -1.9286   C.2       1 RES1   0.0000
    50 C40      1.0712  15.7690   1.4929   C.ar      1 RES1   0.0000
    51 C41      1.6756  14.7524   2.2210   C.ar      1 RES1   0.0000
    52 C42      1.0776  14.3693   3.4156   C.ar      1 RES1   0.0000
    53 C43     -0.0988  14.9424   3.8642   C.ar      1 RES1   0.0000
    54 C44     -0.7338  14.4731   5.1600   C.3       1 RES1   0.0000
    55 C45     -0.6871  15.9260   3.0991   C.ar      1 RES1   0.0000
    56 C46     -0.1205  16.3652   1.9019   C.ar      1 RES1   0.0000
    57 C47     -0.7806  17.4321   1.0754   C.3       1 RES1   0.0000
    58 C48      2.8915  14.0547   1.6917   C.3       1 RES1   0.0000
    59 C49      4.2534  17.8861  -3.4742   C.ar      1 RES1   0.0000
    60 C50      4.7969  18.9456  -4.2116   C.ar      1 RES1   0.0000
    61 C51      5.1898  18.7997  -5.5381   C.ar      1 RES1   0.0000
    62 C52      5.0735  17.5832  -6.1630   C.ar      1 RES1   0.0000
    63 C53      4.6032  16.5074  -5.4589   C.ar      1 RES1   0.0000
    64 C54      4.2063  16.6616  -4.1379   C.ar      1 RES1   0.0000
    65 H2       0.2628  18.4487   3.8362   H         1 RES1   0.0000
    66 H3      -1.2651  19.7514   4.9599   H         1 RES1   0.0000
    67 H4      -0.6822  21.7311   6.0399   H         1 RES1   0.0000
    68 H5       1.5661  22.3797   5.9282   H         1 RES1   0.0000
    69 H6       3.1675  21.1168   4.7437   H         1 RES1   0.0000
    70 H7       4.0818  15.7010   3.6016   H         1 RES1   0.0000
    71 H8       4.6853  14.3243   5.4193   H         1 RES1   0.0000
    72 H9       4.7444  15.2004   7.5890   H         1 RES1   0.0000
    73 H10      4.0757  17.4304   8.0004   H         1 RES1   0.0000
    74 H11      3.3919  18.7758   6.2109   H         1 RES1   0.0000
    75 H12      6.7215  17.4617  -2.4439   H         1 RES1   0.0000
    76 H13      8.1959  17.1915  -0.3703   H         1 RES1   0.0000
    77 H14      7.9808  19.0261   4.6419   H         1 RES1   0.0000
    78 H15      7.3206  15.0554   4.2589   H         1 RES1   0.0000
    79 H16      6.0921  14.2618   2.2884   H         1 RES1   0.0000
    80 H17      7.3587  14.5206   1.3358   H         1 RES1   0.0000
    81 H18      5.9376  15.1805   0.9965   H         1 RES1   0.0000
    82 H19      8.0149  15.8660   6.3395   H         1 RES1   0.0000
    83 H20      8.8969  17.1545   6.2985   H         1 RES1   0.0000
    84 H21      7.3602  17.2711   6.6943   H         1 RES1   0.0000
    85 H22      7.9651  20.4313   2.7026   H         1 RES1   0.0000
    86 H23      7.8245  19.7998   1.3230   H         1 RES1   0.0000
    87 H24      6.5388  20.2293   2.0807   H         1 RES1   0.0000
    88 H25      2.1541  22.3285  -1.5789   H         1 RES1   0.0000
    89 H26      2.8232  20.4910  -3.1846   H         1 RES1   0.0000
    90 H27      4.3120  24.0465   2.6927   H         1 RES1   0.0000
    91 H28      0.3702  23.2017   2.9853   H         1 RES1   0.0000
    92 H29     -0.4900  21.2049   1.9252   H         1 RES1   0.0000
    93 H30     -0.2840  21.6543   0.4467   H         1 RES1   0.0000
    94 H31      0.4240  20.3601   0.9767   H         1 RES1   0.0000
    95 H32      1.2644  24.7604   4.4907   H         1 RES1   0.0000
    96 H33      2.3411  25.6848   3.7288   H         1 RES1   0.0000
    97 H34      2.8229  24.6210   4.7663   H         1 RES1   0.0000
    98 H35      5.7023  22.8860   1.1944   H         1 RES1   0.0000
    99 H36      4.9846  22.6556  -0.1908   H         1 RES1   0.0000
   100 H37      5.2455  21.4524   0.7520   H         1 RES1   0.0000
   101 H38      0.5495  14.9188  -1.0658   H         1 RES1   0.0000
   102 H39      1.9496  15.9741  -2.8779   H         1 RES1   0.0000
   103 H40      1.4842  13.6872   3.9465   H         1 RES1   0.0000
   104 H41     -1.6739  14.6173   5.0886   H         1 RES1   0.0000
   105 H42     -0.3782  14.9814   5.8589   H         1 RES1   0.0000
   106 H43     -0.5210  13.5365   5.2865   H         1 RES1   0.0000
   107 H44     -1.5127  16.3268   3.3910   H         1 RES1   0.0000
   108 H45     -0.1556  18.1216   0.8523   H         1 RES1   0.0000
   109 H46     -1.5423  17.8286   1.5393   H         1 RES1   0.0000
   110 H47     -1.0879  17.0237   0.2657   H         1 RES1   0.0000
   111 H48      3.2787  13.4454   2.3478   H         1 RES1   0.0000
   112 H49      3.5771  14.7254   1.4714   H         1 RES1   0.0000
   113 H50      2.6657  13.5564   0.8990   H         1 RES1   0.0000
   114 H51      4.9226  19.7998  -3.7557   H         1 RES1   0.0000
   115 H52      5.5468  19.5552  -6.0088   H         1 RES1   0.0000
   116 H53      5.3366  17.4816  -7.0661   H         1 RES1   0.0000
   117 H54      4.5262  15.6584  -5.8618   H         1 RES1   0.0000
   118 H55      3.8765  15.8916  -3.6723   H         1 RES1   0.0000
   119 H56      3.7960  17.2398   2.1796   H         1 RES1   0.0000
   120 H57      4.1000  19.2537   2.5499   H         1 RES1   0.0000
@<TRIPOS>BOND
     1     1     3    1
     2     2     3    1
     3     4     2    1
     4     5     4   ar
     5     6     5   ar
     6     7     6   ar
     7     8     7   ar
     8     9     4   ar
     9    10     2    1
    10    11    10   ar
    11    12    11   ar
    12    13    12   ar
    13    14    13   ar
    14    15    10   ar
    15    16     1    1
    16    17    16    1
    17    18    17    1
    18    19    18    2
    19    20    16    1
    20    21    20    1
    21    22    21   ar
    22    23    22   ar
    23    24    23   ar
    24    25    24   ar
    25    26    21   ar
    26    27    26    1
    27    28    24    1
    28    29    22    1
    29    30    17    1
    30    31    30    1
    31    32     1    1
    32    33    32    1
    33    34    33    1
    34    35    31    1
    35    36    33    1
    36    37    36   ar
    37    38    37   ar
    38    39    38   ar
    39    40    39   ar
    40    41    36   ar
    41    42    41    1
    42    43    39    1
    43    44    37    1
    44    45    30    1
    45    46     1    1
    46    47    46    1
    47    48    47    1
    48    49    45    1
    49    50    47    1
    50    51    50   ar
    51    52    51   ar
    52    53    52   ar
    53    54    53    1
    54    55    53   ar
    55    56    50   ar
    56    57    56    1
    57    58    51    1
    58    59    30    1
    59    60    59   ar
    60    61    60   ar
    61    62    61   ar
    62    63    62   ar
    63    64    59   ar
    64    65     5    1
    65    66     6    1
    66    67     7    1
    67    68     8    1
    68    69     9    1
    69    70    11    1
    70    71    12    1
    71    72    13    1
    72    73    14    1
    73    74    15    1
    74    75    18    1
    75    76    19    1
    76    77    23    1
    77    78    25    1
    78    79    27    1
    79    80    27    1
    80    81    27    1
    81    82    28    1
    82    83    28    1
    83    84    28    1
    84    85    29    1
    85    86    29    1
    86    87    29    1
    87    88    34    1
    88    89    35    1
    89    90    38    1
    90    91    40    1
    91    92    42    1
    92    93    42    1
    93    94    42    1
    94    95    43    1
    95    96    43    1
    96    97    43    1
    97    98    44    1
    98    99    44    1
    99   100    44    1
   100   101    48    1
   101   102    49    1
   102   103    52    1
   103   104    54    1
   104   105    54    1
   105   106    54    1
   106   107    55    1
   107   108    57    1
   108   109    57    1
   109   110    57    1
   110   111    58    1
   111   112    58    1
   112   113    58    1
   113   114    60    1
   114   115    61    1
   115   116    62    1
   116   117    63    1
   117   118    64    1
   118   119     1    1
   119   120     1    1
   120     2   119    1
   121     2   120    1
   122     8     9   ar
   123    14    15   ar
   124    19    20    1
   125    25    26   ar
   126    31    32    1
   127    34    35    2
   128    40    41   ar
   129    45    46    1
   130    48    49    2
   131    55    56   ar
   132    63    64   ar
@<TRIPOS>SUBSTRUCTURE
     1 RES1        1 GROUP             0 ****  ****    0  
@<TRIPOS>CRYSIN
   11.6262   28.4439   14.8902   90.0000  108.3270   90.0000   231     1
