@<TRIPOS>MOLECULE
JUHDIC
   125   134     2     0     0
SMALL
NO_CHARGES
****
Generated from the CSD

@<TRIPOS>ATOM
     1 Fe1      2.4726  12.9376  10.4887   Fe        1 RES1   0.0000
     2 Si1      4.0986  13.2134   9.1875   Si        1 RES1   0.0000
     3 N1       2.6708  10.3090  11.9732   N.pl3     1 RES1   0.0000
     4 N2       0.8372  11.4226  12.2691   N.pl3     1 RES1   0.0000
     5 N3       2.2052  15.3477  12.2656   N.pl3     1 RES1   0.0000
     6 N4       0.6150  13.8899  12.4999   N.pl3     1 RES1   0.0000
     7 N5       0.1216  12.9594   8.5223   N.pl3     1 RES1   0.0000
     8 N6      -0.4401  12.7470  10.6027   N.pl3     1 RES1   0.0000
     9 C1       2.0363  11.4706  11.6173   C.3       1 RES1   0.0000
    10 C2       1.8654   9.5627  12.8310   C.2       1 RES1   0.0000
    11 C3       0.7334  10.2439  13.0001   C.2       1 RES1   0.0000
    12 C4       4.0357   9.9550  11.6772   C.ar      1 RES1   0.0000
    13 C5       5.0287  10.2612  12.6197   C.ar      1 RES1   0.0000
    14 C6       6.3339   9.8861  12.3220   C.ar      1 RES1   0.0000
    15 C7       6.6791   9.2086  11.1629   C.ar      1 RES1   0.0000
    16 C8       5.6682   8.9063  10.2891   C.ar      1 RES1   0.0000
    17 C9       4.3397   9.2584  10.5164   C.ar      1 RES1   0.0000
    18 C10      4.6897  10.9903  13.8915   C.3       1 RES1   0.0000
    19 C11      8.1137   8.8240  10.9057   C.3       1 RES1   0.0000
    20 C12      3.2523   8.8661   9.5511   C.3       1 RES1   0.0000
    21 C13      1.7906  14.1153  11.8287   C.3       1 RES1   0.0000
    22 C14      1.2820  15.8893  13.1640   C.2       1 RES1   0.0000
    23 C15      0.3063  14.9937  13.2873   C.2       1 RES1   0.0000
    24 C16      3.4249  15.9888  11.8481   C.ar      1 RES1   0.0000
    25 C17      3.3839  16.9035  10.8123   C.ar      1 RES1   0.0000
    26 C18      4.5935  17.4642  10.4019   C.ar      1 RES1   0.0000
    27 C19      5.7854  17.1542  10.9990   C.ar      1 RES1   0.0000
    28 C20      5.7814  16.2758  12.0648   C.ar      1 RES1   0.0000
    29 C21      4.6018  15.6788  12.5122   C.ar      1 RES1   0.0000
    30 C22      2.0824  17.2901  10.1782   C.3       1 RES1   0.0000
    31 C23      7.1007  17.7628  10.5252   C.3       1 RES1   0.0000
    32 C24      4.6124  14.7506  13.6942   C.3       1 RES1   0.0000
    33 C25      0.6553  12.8427   9.7801   C.3       1 RES1   0.0000
    34 C26     -1.2665  12.9575   8.5734   C.2       1 RES1   0.0000
    35 C27     -1.6089  12.8504   9.8646   C.2       1 RES1   0.0000
    36 C28      0.8865  12.9020   7.2980   C.ar      1 RES1   0.0000
    37 C29      1.1770  11.6562   6.7608   C.ar      1 RES1   0.0000
    38 C30      1.9746  11.6084   5.6228   C.ar      1 RES1   0.0000
    39 C31      2.4574  12.7662   5.0239   C.ar      1 RES1   0.0000
    40 C32      2.0781  13.9794   5.5418   C.ar      1 RES1   0.0000
    41 C33      1.2889  14.0885   6.6850   C.ar      1 RES1   0.0000
    42 C34      0.6262  10.4028   7.3949   C.3       1 RES1   0.0000
    43 C35      3.3612  12.7011   3.8084   C.3       1 RES1   0.0000
    44 C36      0.8959  15.4223   7.2276   C.3       1 RES1   0.0000
    45 C37     -1.4362  12.2820  13.1041   C.ar      1 RES1   0.0000
    46 C38     -2.5798  11.5816  12.7236   C.ar      1 RES1   0.0000
    47 C39     -3.5265  11.1395  13.6449   C.ar      1 RES1   0.0000
    48 C40     -3.3531  11.3730  14.9731   C.ar      1 RES1   0.0000
    49 C41     -2.2322  12.0504  15.3994   C.ar      1 RES1   0.0000
    50 C42     -1.2972  12.4848  14.4869   C.ar      1 RES1   0.0000
    51 C43      5.9360  13.3039   9.4929   C.ar      1 RES1   0.0000
    52 C44      6.7742  13.6101   8.4166   C.ar      1 RES1   0.0000
    53 C45      8.1374  13.7115   8.5575   C.ar      1 RES1   0.0000
    54 C46      8.6832  13.4895   9.7483   C.ar      1 RES1   0.0000
    55 C47      7.9196  13.1336  10.8493   C.ar      1 RES1   0.0000
    56 C48      6.5279  13.0475  10.7084   C.ar      1 RES1   0.0000
    57 B1      -0.1742  12.5958  12.1405   B         1 RES1   0.0000
    58 H1       2.0872   8.7226  13.2133   H         1 RES1   0.0000
    59 H2      -0.0099   9.9779  13.5286   H         1 RES1   0.0000
    60 H3       7.0208  10.1061  12.9420   H         1 RES1   0.0000
    61 H4       5.8891   8.4355   9.4947   H         1 RES1   0.0000
    62 H5       5.4765  11.1108  14.4111   H         1 RES1   0.0000
    63 H6       4.3145  11.8380  13.6836   H         1 RES1   0.0000
    64 H7       4.0612  10.4755  14.3847   H         1 RES1   0.0000
    65 H8       8.1697   8.3724  10.0707   H         1 RES1   0.0000
    66 H9       8.6544   9.6048  10.8793   H         1 RES1   0.0000
    67 H10      8.4218   8.2499  11.5962   H         1 RES1   0.0000
    68 H11      2.4154   9.1914   9.8611   H         1 RES1   0.0000
    69 H12      3.4341   9.2278   8.6914   H         1 RES1   0.0000
    70 H13      3.2215   7.9188   9.4947   H         1 RES1   0.0000
    71 H14      1.3514  16.7294  13.6008   H         1 RES1   0.0000
    72 H15     -0.4795  15.0894  13.8122   H         1 RES1   0.0000
    73 H16      4.5934  18.0728   9.6744   H         1 RES1   0.0000
    74 H17      6.5978  16.0692  12.5034   H         1 RES1   0.0000
    75 H18      2.2402  17.9235   9.4876   H         1 RES1   0.0000
    76 H19      1.5125  17.6728  10.8335   H         1 RES1   0.0000
    77 H20      1.6671  16.5189   9.8100   H         1 RES1   0.0000
    78 H21      7.8145  17.4394  11.0625   H         1 RES1   0.0000
    79 H22      7.0647  18.7100  10.5833   H         1 RES1   0.0000
    80 H23      7.2443  17.5063   9.6215   H         1 RES1   0.0000
    81 H24      3.7266  14.4483  13.8510   H         1 RES1   0.0000
    82 H25      4.9322  15.2080  14.4640   H         1 RES1   0.0000
    83 H26      5.1753  14.0081  13.5128   H         1 RES1   0.0000
    84 H27     -1.8555  13.0188   7.8300   H         1 RES1   0.0000
    85 H28     -2.4899  12.8370  10.2204   H         1 RES1   0.0000
    86 H29      2.2025  10.7606   5.2582   H         1 RES1   0.0000
    87 H30      2.3709  14.7698   5.1049   H         1 RES1   0.0000
    88 H31      0.9207   9.6411   6.9070   H         1 RES1   0.0000
    89 H32      0.9374  10.3434   8.2916   H         1 RES1   0.0000
    90 H33     -0.3240  10.4315   7.3914   H         1 RES1   0.0000
    91 H34      3.5862  13.5833   3.5336   H         1 RES1   0.0000
    92 H35      4.1538  12.2246   4.0251   H         1 RES1   0.0000
    93 H36      2.9059  12.2571   3.1038   H         1 RES1   0.0000
    94 H37      0.3604  15.3037   8.0009   H         1 RES1   0.0000
    95 H38      1.6753  15.9180   7.4548   H         1 RES1   0.0000
    96 H39      0.4021  15.8969   6.5688   H         1 RES1   0.0000
    97 H40     -2.7169  11.4036  11.8005   H         1 RES1   0.0000
    98 H41     -4.2966  10.6649  13.3507   H         1 RES1   0.0000
    99 H42     -3.9962  11.0783  15.6072   H         1 RES1   0.0000
   100 H43     -2.1037  12.2265  16.3242   H         1 RES1   0.0000
   101 H44     -0.5265  12.9403  14.8040   H         1 RES1   0.0000
   102 H45      6.3761  13.7536   7.5676   H         1 RES1   0.0000
   103 H46      8.6765  13.9278   7.8054   H         1 RES1   0.0000
   104 H47      9.6234  13.5986   9.8399   H         1 RES1   0.0000
   105 H48      8.3483  12.9403  11.6737   H         1 RES1   0.0000
   106 H49      5.9904  12.8140  11.4570   H         1 RES1   0.0000
   107 H50      4.0147  13.1470  11.4095   H         1 RES1   0.0000
   108 H51      2.9688  14.2359   9.3608   H         1 RES1   0.0000
   109 H52      3.2151  12.2380   9.4313   H         1 RES1   0.0000
   110 H53      4.2724  13.4685   7.6539   H         1 RES1   0.0000
   111 O1       3.7201  11.1644  17.8690   O.3       2 RES2   0.0000
   112 C49      2.1461  11.8859  16.2431   C.3       2 RES2   0.0000
   113 C50      3.4591  12.2437  17.0006   C.3       2 RES2   0.0000
   114 C51      4.9910  11.4457  18.5701   C.3       2 RES2   0.0000
   115 C52      5.1885  10.3052  19.4685   C.3       2 RES2   0.0000
   116 H54      1.9062  12.5767  15.6372   H         2 RES2   0.0000
   117 H55      1.4503  11.7653  16.8790   H         2 RES2   0.0000
   118 H56      2.2812  11.0764  15.7640   H         2 RES2   0.0000
   119 H57      3.3459  13.0417  17.5026   H         2 RES2   0.0000
   120 H58      4.1782  12.3528  16.3876   H         2 RES2   0.0000
   121 H59      4.9213  12.2418  19.0863   H         2 RES2   0.0000
   122 H60      5.7074  11.5318  17.9518   H         2 RES2   0.0000
   123 H61      5.9932  10.4066  19.9635   H         2 RES2   0.0000
   124 H62      4.4542  10.2305  20.0674   H         2 RES2   0.0000
   125 H63      5.2418   9.5225  18.9330   H         2 RES2   0.0000
@<TRIPOS>BOND
     1     1     9    1
     2     2    51    1
     3     3     9    1
     4     4     9    1
     5     5    21    1
     6     6    21    1
     7     7    33    1
     8     8    33    1
     9    10     3    1
    10    11     4    1
    11    12     3    1
    12    13    12   ar
    13    14    13   ar
    14    15    14   ar
    15    16    15   ar
    16    17    12   ar
    17    18    13    1
    18    19    15    1
    19    20    17    1
    20    21     1    1
    21    22     5    1
    22    23     6    1
    23    24     5    1
    24    25    24   ar
    25    26    25   ar
    26    27    26   ar
    27    28    27   ar
    28    29    24   ar
    29    30    25    1
    30    31    27    1
    31    32    29    1
    32    33     1    1
    33    34     7    1
    34    35     8    1
    35    36     7    1
    36    37    36   ar
    37    38    37   ar
    38    39    38   ar
    39    40    39   ar
    40    41    36   ar
    41    42    37    1
    42    43    39    1
    43    44    41    1
    44    45    46   ar
    45    46    47   ar
    46    47    48   ar
    47    48    49   ar
    48    49    50   ar
    49    50    45   ar
    50    51    52   ar
    51    52    53   ar
    52    53    54   ar
    53    54    55   ar
    54    55    56   ar
    55    56    51   ar
    56    57     4    1
    57    58    10    1
    58    59    11    1
    59    60    14    1
    60    61    16    1
    61    62    18    1
    62    63    18    1
    63    64    18    1
    64    65    19    1
    65    66    19    1
    66    67    19    1
    67    68    20    1
    68    69    20    1
    69    70    20    1
    70    71    22    1
    71    72    23    1
    72    73    26    1
    73    74    28    1
    74    75    30    1
    75    76    30    1
    76    77    30    1
    77    78    31    1
    78    79    31    1
    79    80    31    1
    80    81    32    1
    81    82    32    1
    82    83    32    1
    83    84    34    1
    84    85    35    1
    85    86    38    1
    86    87    40    1
    87    88    42    1
    88    89    42    1
    89    90    42    1
    90    91    43    1
    91    92    43    1
    92    93    43    1
    93    94    44    1
    94    95    44    1
    95    96    44    1
    96    97    46    1
    97    98    47    1
    98    99    48    1
    99   100    49    1
   100   101    50    1
   101   102    52    1
   102   103    53    1
   103   104    54    1
   104   105    55    1
   105   106    56    1
   106   107     1    1
   107   108     1    1
   108   109     1    1
   109   110     2    1
   110     2   108    1
   111     2   109    1
   112     6    57    1
   113     8    57    1
   114    10    11    2
   115    16    17   ar
   116    22    23    2
   117    28    29   ar
   118    34    35    2
   119    40    41   ar
   120    45    57    1
   121   111   113    1
   122   112   113    1
   123   113   119    1
   124   114   111    1
   125   115   114    1
   126   116   112    1
   127   117   112    1
   128   118   112    1
   129   120   113    1
   130   121   114    1
   131   122   114    1
   132   123   115    1
   133   124   115    1
   134   125   115    1
@<TRIPOS>SUBSTRUCTURE
     1 RES1        1 GROUP             0 ****  ****    0  
     2 RES2      111 GROUP             0 ****  ****    0  
@<TRIPOS>CRYSIN
   14.2044   19.1368   17.6250   90.0000   91.8940   90.0000   231     1
