@<TRIPOS>MOLECULE
JURQUK
   123   174     1     0     0
SMALL
NO_CHARGES
****
Generated from the CSD

@<TRIPOS>ATOM
     1 Fe1     10.1347   9.1870  26.1141   Fe        1 RES1   0.0000
     2 Fe2      7.7694  10.9005  27.5729   Fe        1 RES1   0.0000
     3 Fe3      7.0870   9.3477  24.9731   Fe        1 RES1   0.0000
     4 Fe4      9.3218  10.8933  23.4661   Fe        1 RES1   0.0000
     5 Fe5      9.9999  12.4588  26.0631   Fe        1 RES1   0.0000
     6 Fe6      5.4739  12.4598  29.2801   Fe        1 RES1   0.0000
     7 Fe7      4.8738  10.9025  26.4699   Fe        1 RES1   0.0000
     8 Fe8      4.0414   9.1790  23.8311   Fe        1 RES1   0.0000
     9 Fe9      6.4028  10.8880  22.3750   Fe        1 RES1   0.0000
    10 Fe10     7.0972  12.4451  24.9672   Fe        1 RES1   0.0000
    11 Fe11     7.7790  13.9971  27.5729   Fe        1 RES1   0.0000
    12 Fe12    10.1360  15.7203  26.1228   Fe        1 RES1   0.0000
    13 Fe13     9.3146  14.0123  23.4633   Fe        1 RES1   0.0000
    14 Fe14     8.7196  12.4538  20.6860   Fe        1 RES1   0.0000
    15 Fe15     4.8694  14.0023  26.4753   Fe        1 RES1   0.0000
    16 Fe16     4.1834  12.4478  23.8837   Fe        1 RES1   0.0000
    17 Fe17     6.3991  13.9998  22.3798   Fe        1 RES1   0.0000
    18 Fe18     7.0807  15.5561  24.9709   Fe        1 RES1   0.0000
    19 Fe19     4.0347  15.7258  23.8316   Fe        1 RES1   0.0000
    20 O1      11.3602   7.9483  26.5133   O.3       1 RES1   0.0000
    21 O2       9.1701   9.5284  27.8099   O.3       1 RES1   0.0000
    22 O3       8.5273   8.1427  25.5592   O.3       1 RES1   0.0000
    23 O4      10.4485   9.4886  24.1351   O.3       1 RES1   0.0000
    24 O5      11.1776  10.9391  26.4764   O.3       1 RES1   0.0000
    25 O6       6.9240  11.0687  29.2764   O.3       1 RES1   0.0000
    26 O7       6.4581   9.7104  26.7454   O.3       1 RES1   0.0000
    27 O8       5.6600   8.1153  24.4522   O.3       1 RES1   0.0000
    28 O9       7.7810   9.7627  23.1697   O.3       1 RES1   0.0000
    29 O10      9.8575  11.0787  21.5871   O.3       1 RES1   0.0000
    30 O11     10.3033  12.4570  24.1266   O.3       1 RES1   0.0000
    31 O12     11.1014  14.0596  26.4481   O.3       1 RES1   0.0000
    32 O13      8.9530  12.4844  27.7080   O.3       1 RES1   0.0000
    33 O14      8.5043  10.9765  25.4403   O.3       1 RES1   0.0000
    34 O15      4.8849  12.4545  30.9524   O.3       1 RES1   0.0000
    35 O16      4.3514  11.1236  28.3223   O.3       1 RES1   0.0000
    36 O17      3.6611   9.5010  25.7800   O.3       1 RES1   0.0000
    37 O18      2.8314   7.9508  23.4217   O.3       1 RES1   0.0000
    38 O19      4.9870   9.5708  22.0939   O.3       1 RES1   0.0000
    39 O20      7.2260  11.0638  20.6444   O.3       1 RES1   0.0000
    40 O21      9.3111  12.4396  18.9938   O.3       1 RES1   0.0000
    41 O22      9.8632  13.8752  21.6126   O.3       1 RES1   0.0000
    42 O23     10.5492  15.3806  24.1465   O.3       1 RES1   0.0000
    43 O24     11.3113  17.0206  26.5954   O.3       1 RES1   0.0000
    44 O25      9.1371  15.3382  27.8637   O.3       1 RES1   0.0000
    45 O26      6.9326  13.8204  29.3698   O.3       1 RES1   0.0000
    46 O27      6.3804  12.4745  26.8785   O.3       1 RES1   0.0000
    47 O28      5.7362  11.0139  24.4494   O.3       1 RES1   0.0000
    48 O29      7.8012  12.4720  23.0820   O.3       1 RES1   0.0000
    49 O30      8.3893  13.8577  25.4969   O.3       1 RES1   0.0000
    50 O31      4.3399  13.8777  28.3591   O.3       1 RES1   0.0000
    51 O32      3.9013  12.4720  25.7970   O.3       1 RES1   0.0000
    52 O33      3.0572  10.9865  23.5095   O.3       1 RES1   0.0000
    53 O34      5.2113  12.4770  22.2411   O.3       1 RES1   0.0000
    54 O35      7.2734  13.8553  20.5963   O.3       1 RES1   0.0000
    55 O36      7.7264  15.1488  23.1726   O.3       1 RES1   0.0000
    56 O37      8.5202  16.7689  25.5167   O.3       1 RES1   0.0000
    57 O38      6.3833  15.1114  26.7709   O.3       1 RES1   0.0000
    58 O39      5.7836  13.9201  24.4635   O.3       1 RES1   0.0000
    59 O40      3.6985  15.4080  25.7970   O.3       1 RES1   0.0000
    60 O41      3.0586  14.0522  23.4387   O.3       1 RES1   0.0000
    61 O42      5.0718  15.4205  22.1081   O.3       1 RES1   0.0000
    62 O43      5.6499  16.7614  24.3871   O.3       1 RES1   0.0000
    63 O44      2.8602  17.0405  23.3792   O.3       1 RES1   0.0000
    64 C1      12.3380   6.9164  26.3547   C.3       1 RES1   0.0000
    65 C2      12.8457   6.5101  27.4871   C.2       1 RES1   0.0000
    66 C3       9.9380   9.6406  29.0159   C.3       1 RES1   0.0000
    67 C4       9.8028   8.1726  29.7294   C.3       1 RES1   0.0000
    68 C5       8.9444   7.0012  24.8033   C.3       1 RES1   0.0000
    69 C6       8.5086   5.7774  25.9102   C.3       1 RES1   0.0000
    70 C7      11.9771   9.7129  23.8011   C.3       1 RES1   0.0000
    71 C8      12.5077  10.8943  25.8904   C.3       1 RES1   0.0000
    72 C9      13.4985  10.8469  27.0993   C.3       1 RES1   0.0000
    73 C10      7.8687  11.2632  30.5362   C.3       1 RES1   0.0000
    74 C11      7.1397   9.9222  31.4422   C.3       1 RES1   0.0000
    75 C12      6.0123   7.0984  23.3622   C.3       1 RES1   0.0000
    76 C13      5.3796   5.7923  23.7274   C.3       1 RES1   0.0000
    77 C14      9.9625   9.7428  20.8737   C.3       1 RES1   0.0000
    78 C15     11.4062   9.8574  20.0923   C.3       1 RES1   0.0000
    79 C16     11.7959  13.8253  27.7844   C.3       1 RES1   0.0000
    80 C17     13.3763  14.5157  27.2352   C.3       1 RES1   0.0000
    81 C18      4.1314  12.7935  32.0933   C.3       1 RES1   0.0000
    82 C19      4.4909  12.0832  33.2569   C.2       1 RES1   0.0000
    83 C20      4.3672   9.8525  29.1801   C.3       1 RES1   0.0000
    84 C21      2.9191   9.9771  29.9898   C.3       1 RES1   0.0000
    85 C22      2.2922   9.5932  26.2585   C.3       1 RES1   0.0000
    86 C23      2.0880   8.0006  26.8077   C.3       1 RES1   0.0000
    87 C24      1.6106   7.4149  23.0027   C.2       1 RES1   0.0000
    88 C25      1.3388   6.1537  22.7252   C.2       1 RES1   0.0000
    89 C26      5.5679   8.1227  21.5164   C.3       1 RES1   0.0000
    90 C27      4.5009   8.1078  20.2169   C.3       1 RES1   0.0000
    91 C28      6.3732  11.0638  19.5148   C.3       1 RES1   0.0000
    92 C29      7.1195   9.9895  18.5041   C.3       1 RES1   0.0000
    93 C30     10.1882  12.7835  17.9322   C.3       1 RES1   0.0000
    94 C31      9.8978  12.0159  16.8309   C.2       1 RES1   0.0000
    95 C32     10.5405  16.6891  23.2348   C.3       1 RES1   0.0000
    96 C33     12.1453  16.8711  23.3339   C.3       1 RES1   0.0000
    97 C34     11.3041  13.6808  21.3380   C.3       1 RES1   0.0000
    98 C35     11.6909  14.8323  20.2792   C.3       1 RES1   0.0000
    99 C36     11.8448  18.0126  27.3767   C.2       1 RES1   0.0000
   100 C37     12.9564  18.8176  26.8983   C.3       1 RES1   0.0000
   101 C38      8.7819  16.5146  28.7158   C.3       1 RES1   0.0000
   102 C39     10.0114  16.6193  29.7634   C.3       1 RES1   0.0000
   103 C40      6.4667  15.2410  29.9672   C.3       1 RES1   0.0000
   104 C41      2.8113  13.6758  28.5148   C.3       1 RES1   0.0000
   105 C42      2.3856  14.7924  29.5822   C.3       1 RES1   0.0000
   106 C43      2.4561  10.8694  22.1392   C.3       1 RES1   0.0000
   107 C44      7.6200  15.0142  19.9026   C.3       1 RES1   0.0000
   108 C45      6.8837  14.8273  18.4135   C.3       1 RES1   0.0000
   109 C46      8.0499  17.8855  26.3774   C.3       1 RES1   0.0000
   110 C47      9.0148  19.1715  25.6158   C.3       1 RES1   0.0000
   111 C48      3.6238  16.5969  26.5869   C.3       1 RES1   0.0000
   112 C49      1.8349  16.7315  26.6605   C.3       1 RES1   0.0000
   113 C50      1.6753  13.8303  23.9285   C.3       1 RES1   0.0000
   114 C51      4.1414  15.1239  20.8312   C.3       1 RES1   0.0000
   115 C52      4.1644  16.5770  20.1857   C.3       1 RES1   0.0000
   116 C53      5.4155  17.9079  25.5025   C.3       1 RES1   0.0000
   117 C54      5.3033  19.2189  24.4947   C.3       1 RES1   0.0000
   118 C55      2.2361  17.9777  22.7649   C.2       1 RES1   0.0000
   119 C56      1.2841  18.8625  23.2801   C.2       1 RES1   0.0000
   120 C57     12.2014   8.0305  23.1103   C.3       1 RES1   0.0000
   121 C58      7.2648  14.7974  31.5526   C.3       1 RES1   0.0000
   122 C59      0.6974  10.8046  22.8810   C.3       1 RES1   0.0000
   123 C60      0.8686  14.4235  22.3430   C.3       1 RES1   0.0000
@<TRIPOS>BOND
     1     1    20    1
     2     2    21    1
     3     3    22    1
     4     4    23    1
     5     5    24    1
     6     6    25    1
     7     7    26    1
     8     8    27    1
     9     9    28    1
    10    10    33    1
    11    11    32    1
    12    12    31    1
    13    13    30    1
    14    14    29    1
    15    15    46    1
    16    16    47    1
    17    17    48    1
    18    18    49    1
    19    19    58    1
    20    20    64    1
    21    21     1    1
    22    22     1    1
    23    23     1    1
    24    24     1    1
    25    25     2    1
    26    26     2    1
    27    27     3    1
    28    28     3    1
    29    29     4    1
    30    30     4    1
    31    31     5    1
    32    32     2    1
    33    33     1    1
    34    34     6    1
    35    35     6    1
    36    36     7    1
    37    37     8    1
    38    38     8    1
    39    39     9    1
    40    40    14    1
    41    41    13    1
    42    42    12    1
    43    43    12    1
    44    44    11    1
    45    45     6    1
    46    46     2    1
    47    47     3    1
    48    48     4    1
    49    49     5    1
    50    50     6    1
    51    51     7    1
    52    52     8    1
    53    53     9    1
    54    54    14    1
    55    55    13    1
    56    56    12    1
    57    57    11    1
    58    58    10    1
    59    59    15    1
    60    60    16    1
    61    61    17    1
    62    62    18    1
    63    63    19    1
    64    64    65    1
    65    66    21    1
    66    67    66    1
    67    68    22    1
    68    69    68    1
    69    70    23    1
    70    71    24    1
    71    72    71    1
    72    73    25    1
    73    74    73    1
    74    75    27    1
    75    76    75    1
    76    77    29    1
    77    78    77    1
    78    79    31    1
    79    80    79    1
    80    81    34    1
    81    82    81    1
    82    83    35    1
    83    84    83    1
    84    85    36    1
    85    86    85    1
    86    87    37    1
    87    88    87    1
    88    89    38    1
    89    90    89    1
    90    91    39    1
    91    92    91    1
    92    93    40    1
    93    94    93    1
    94    95    42    1
    95    96    95    1
    96    97    41    1
    97    98    97    1
    98    99    43    1
    99   100    99    1
   100   101    44    1
   101   102   101    1
   102   103    45    1
   103   104    50    1
   104   105   104    1
   105   106    52    1
   106   107    54    1
   107   108   107    1
   108   109    56    1
   109   110   109    1
   110   111    59    1
   111   112   111    1
   112   113    60    1
   113   114    61    1
   114   115   114    1
   115   116    62    1
   116   117   116    1
   117   118    63    1
   118   119   118    1
   119   120    70    1
   120   121   103    1
   121   122   106    1
   122   123   113    1
   123     2    33    1
   124     3    26    1
   125     3    33    1
   126     4    28    1
   127     4    33    1
   128     5    30    1
   129     5    32    1
   130     5    33    1
   131     6    46    1
   132     7    35    1
   133     7    46    1
   134     7    47    1
   135     8    36    1
   136     8    47    1
   137     9    38    1
   138     9    47    1
   139     9    48    1
   140    10    46    1
   141    10    47    1
   142    10    48    1
   143    10    49    1
   144    11    45    1
   145    11    46    1
   146    11    49    1
   147    12    44    1
   148    12    49    1
   149    13    42    1
   150    13    48    1
   151    13    49    1
   152    14    39    1
   153    14    41    1
   154    14    48    1
   155    15    50    1
   156    15    51    1
   157    15    57    1
   158    15    58    1
   159    16    51    1
   160    16    52    1
   161    16    53    1
   162    16    58    1
   163    17    53    1
   164    17    54    1
   165    17    55    1
   166    17    58    1
   167    18    55    1
   168    18    56    1
   169    18    57    1
   170    18    58    1
   171    19    59    1
   172    19    60    1
   173    19    61    1
   174    19    62    1
@<TRIPOS>SUBSTRUCTURE
     1 RES1        1 GROUP             0 ****  ****    0  
@<TRIPOS>CRYSIN
   14.3800   24.9240   28.3110   90.0000   90.0000   90.0000    19     1
