@<TRIPOS>MOLECULE
JURREV
   209   220     1     0     0
SMALL
NO_CHARGES
****
Generated from the CSD

@<TRIPOS>ATOM
     1 Fe1     16.1595  -0.0000  -5.6002   Fe        1 RES1   0.0000
     2 Fe2     16.1595  -0.0000  -2.4985   Fe        1 RES1   0.0000
     3 Fe3     16.1595   0.0000   0.4992   Fe        1 RES1   0.0000
     4 Fe4     16.1595   0.0000   3.4833   Fe        1 RES1   0.0000
     5 Fe5     16.1595   0.0000   6.4723   Fe        1 RES1   0.0000
     6 Fe6     16.1595   0.0000   9.4504   Fe        1 RES1   0.0000
     7 Fe7     16.1595   0.0000  12.5437   Fe        1 RES1   0.0000
     8 Fe8     13.4366  -0.0961  14.0147   Fe        1 RES1   0.0000
     9 Fe9     10.7889  -0.1260  15.4434   Fe        1 RES1   0.0000
    10 O1      17.2826   1.0358  -6.9101   O.2       1 RES1   0.0000
    11 O2      17.1889  -1.7064  -5.8519   O.2       1 RES1   0.0000
    12 O3      17.2567   0.6173  -4.0228   O.3       1 RES1   0.0000
    13 O4      17.3262  -0.5333  -0.9947   O.3       1 RES1   0.0000
    14 O5      17.3747   0.3959   2.0084   O.3       1 RES1   0.0000
    15 O6      14.9637   0.4492   4.9841   O.3       1 RES1   0.0000
    16 O7      14.9508  -0.4541   7.9676   O.3       1 RES1   0.0000
    17 O8      15.4113   1.0051  10.9611   O.3       1 RES1   0.0000
    18 O9      15.0623   1.0536  13.8692   O.3       1 RES1   0.0000
    19 O10     14.5452  -1.1910  12.8020   O.3       1 RES1   0.0000
    20 O11     11.7981   1.0051  14.1690   O.3       1 RES1   0.0000
    21 O12     12.4137  -1.2507  15.2677   O.3       1 RES1   0.0000
    22 C1      18.3717   0.4719  -7.6558   C.3       1 RES1   0.0000
    23 H1      19.1296   0.3555  -7.0604   H         1 RES1   0.0000
    24 H2      18.1100  -0.4072  -7.9716   H         1 RES1   0.0000
    25 C2      18.7870   1.2604  -8.7774   C.3       1 RES1   0.0000
    26 H3      19.5174   0.8258  -9.2225   H         1 RES1   0.0000
    27 H4      19.0666   2.1266  -8.4737   H         1 RES1   0.0000
    28 H5      18.0534   1.3574  -9.3879   H         1 RES1   0.0000
    29 C3      18.3394  -2.1686  -5.1269   C.3       1 RES1   0.0000
    30 H6      19.0488  -2.3609  -5.7614   H         1 RES1   0.0000
    31 H7      18.6481  -1.4544  -4.5466   H         1 RES1   0.0000
    32 C4      18.1116  -3.2998  -4.3571   C.3       1 RES1   0.0000
    33 H8      18.9179  -3.5422  -3.8971   H         1 RES1   0.0000
    34 H9      17.8369  -4.0237  -4.9225   H         1 RES1   0.0000
    35 H10     17.4199  -3.1156  -3.7136   H         1 RES1   0.0000
    36 C5      18.2166   1.6321  -4.0113   C.3       1 RES1   0.0000
    37 H11     18.9115   1.3816  -4.6368   H         1 RES1   0.0000
    38 H12     17.7948   2.4336  -4.3602   H         1 RES1   0.0000
    39 C6      18.8290   1.9715  -2.8326   C.3       1 RES1   0.0000
    40 H13     19.5029   2.6356  -3.0010   H         1 RES1   0.0000
    41 H14     19.2379   1.1926  -2.4477   H         1 RES1   0.0000
    42 H15     18.1778   2.3254  -2.2222   H         1 RES1   0.0000
    43 C7      18.4832  -1.3283  -0.9562   C.3       1 RES1   0.0000
    44 H16     19.1975  -0.8209  -0.5413   H         1 RES1   0.0000
    45 H17     18.7547  -1.5271  -1.8673   H         1 RES1   0.0000
    46 C8      18.3152  -2.5484  -0.2496   C.3       1 RES1   0.0000
    47 H18     19.1393  -3.0396  -0.2586   H         1 RES1   0.0000
    48 H19     17.6284  -3.0703  -0.6736   H         1 RES1   0.0000
    49 H20     18.0631  -2.3625   0.6555   H         1 RES1   0.0000
    50 C9      18.5301   1.2330   2.0027   C.3       1 RES1   0.0000
    51 H21     18.9373   1.2217   2.8837   H         1 RES1   0.0000
    52 H22     19.1765   0.8855   1.3682   H         1 RES1   0.0000
    53 C10     18.2166   2.5160   1.6689   C.3       1 RES1   0.0000
    54 H23     19.0133   3.0509   1.6749   H         1 RES1   0.0000
    55 H24     17.5912   2.8683   2.3064   H         1 RES1   0.0000
    56 H25     17.8272   2.5322   0.7938   H         1 RES1   0.0000
    57 C11     13.7744   1.1796   4.9585   C.3       1 RES1   0.0000
    58 H26     13.2314   0.8548   4.2218   H         1 RES1   0.0000
    59 H27     13.2880   1.0019   5.7795   H         1 RES1   0.0000
    60 C12     13.9117   2.5354   4.8262   C.3       1 RES1   0.0000
    61 H28     13.0439   2.9443   4.8052   H         1 RES1   0.0000
    62 H29     14.3771   2.7310   4.0113   H         1 RES1   0.0000
    63 H30     14.4094   2.8796   5.5720   H         1 RES1   0.0000
    64 C13     13.8325  -1.3202   7.9204   C.3       1 RES1   0.0000
    65 H31     13.5578  -1.5335   8.8255   H         1 RES1   0.0000
    66 H32     13.0957  -0.8629   7.4874   H         1 RES1   0.0000
    67 C14     14.1072  -2.5128   7.2288   C.3       1 RES1   0.0000
    68 H33     13.3187  -3.0590   7.2108   H         1 RES1   0.0000
    69 H34     14.8134  -2.9847   7.6769   H         1 RES1   0.0000
    70 H35     14.3787  -2.3076   6.3327   H         1 RES1   0.0000
    71 C15     14.4773   2.0329  10.9725   C.3       1 RES1   0.0000
    72 H36     14.7666   2.7035  11.6130   H         1 RES1   0.0000
    73 H37     13.6322   1.6757  11.2853   H         1 RES1   0.0000
    74 C16     14.2559   2.6841   9.7006   C.3       1 RES1   0.0000
    75 H38     13.5724   3.3499   9.7968   H         1 RES1   0.0000
    76 H39     13.9780   2.0329   9.0511   H         1 RES1   0.0000
    77 H40     15.0703   3.0994   9.4059   H         1 RES1   0.0000
    78 C17     15.4986   2.0975  14.6681   C.3       1 RES1   0.0000
    79 H41     15.7604   2.8279  14.0878   H         1 RES1   0.0000
    80 H42     16.2969   1.8018  15.1342   H         1 RES1   0.0000
    81 C18     14.6147   2.6081  15.6214   C.3       1 RES1   0.0000
    82 H43     15.0445   3.3111  16.1145   H         1 RES1   0.0000
    83 H44     14.3561   1.9068  16.2258   H         1 RES1   0.0000
    84 H45     13.8358   2.9556  15.1823   H         1 RES1   0.0000
    85 C19     14.1977  -2.2785  11.9799   C.3       1 RES1   0.0000
    86 H46     14.4644  -2.0555  11.0748   H         1 RES1   0.0000
    87 H47     14.7375  -3.0364  12.2565   H         1 RES1   0.0000
    88 C20     12.9179  -2.6889  11.9348   C.3       1 RES1   0.0000
    89 H48     12.8468  -3.4533  11.3574   H         1 RES1   0.0000
    90 H49     12.3669  -1.9795  11.5950   H         1 RES1   0.0000
    91 H50     12.6270  -2.9249  12.8188   H         1 RES1   0.0000
    92 C21     11.2292   1.9052  13.2338   C.3       1 RES1   0.0000
    93 H51     11.9322   2.4579  12.8579   H         1 RES1   0.0000
    94 H52     10.6071   2.4902  13.6969   H         1 RES1   0.0000
    95 C22     10.5215   1.2184  12.1423   C.3       1 RES1   0.0000
    96 H53     10.1514   1.8697  11.5409   H         1 RES1   0.0000
    97 H54      9.8137   0.6819  12.5061   H         1 RES1   0.0000
    98 H55     11.1371   0.6561  11.6672   H         1 RES1   0.0000
    99 C23     12.9825  -2.1331  16.2318   C.3       1 RES1   0.0000
   100 H56     13.6208  -2.7116  15.7868   H         1 RES1   0.0000
   101 H57     12.2796  -2.6954  16.5926   H         1 RES1   0.0000
   102 C24     13.6483  -1.4592  17.3263   C.3       1 RES1   0.0000
   103 H58     13.9990  -2.1104  17.9368   H         1 RES1   0.0000
   104 H59     13.0213  -0.8952  17.7834   H         1 RES1   0.0000
   105 H60     14.3690  -0.9243  16.9805   H         1 RES1   0.0000
   106 Fe8E    18.8824   0.0961  14.0147   Fe        1 RES1   0.0000
   107 Fe9E    21.5301   0.1260  15.4434   Fe        1 RES1   0.0000
   108 O1E     15.0364  -1.0358  -6.9101   O.2       1 RES1   0.0000
   109 O2E     15.1301   1.7064  -5.8519   O.2       1 RES1   0.0000
   110 O3E     15.0623  -0.6173  -4.0228   O.3       1 RES1   0.0000
   111 O4E     14.9928   0.5333  -0.9947   O.3       1 RES1   0.0000
   112 O5E     14.9443  -0.3959   2.0084   O.3       1 RES1   0.0000
   113 O6E     17.3553  -0.4492   4.9841   O.3       1 RES1   0.0000
   114 O7E     17.3682   0.4541   7.9676   O.3       1 RES1   0.0000
   115 O8E     16.9077  -1.0051  10.9611   O.3       1 RES1   0.0000
   116 O9E     17.2567  -1.0536  13.8692   O.3       1 RES1   0.0000
   117 O10E    17.7738   1.1910  12.8020   O.3       1 RES1   0.0000
   118 O11E    20.5209  -1.0051  14.1690   O.3       1 RES1   0.0000
   119 O12E    19.9053   1.2507  15.2677   O.3       1 RES1   0.0000
   120 C1E     13.9473  -0.4719  -7.6558   C.3       1 RES1   0.0000
   121 H1E     13.1894  -0.3555  -7.0604   H         1 RES1   0.0000
   122 H2E     14.2090   0.4072  -7.9716   H         1 RES1   0.0000
   123 C2E     13.5320  -1.2604  -8.7774   C.3       1 RES1   0.0000
   124 H3E     12.8016  -0.8258  -9.2225   H         1 RES1   0.0000
   125 H4E     13.2524  -2.1266  -8.4737   H         1 RES1   0.0000
   126 H5E     14.2656  -1.3574  -9.3879   H         1 RES1   0.0000
   127 C3E     13.9796   2.1686  -5.1269   C.3       1 RES1   0.0000
   128 H6E     13.2702   2.3609  -5.7614   H         1 RES1   0.0000
   129 H7E     13.6709   1.4544  -4.5466   H         1 RES1   0.0000
   130 C4E     14.2074   3.2998  -4.3571   C.3       1 RES1   0.0000
   131 H8E     13.4011   3.5422  -3.8971   H         1 RES1   0.0000
   132 H9E     14.4821   4.0237  -4.9225   H         1 RES1   0.0000
   133 H10E    14.8991   3.1156  -3.7136   H         1 RES1   0.0000
   134 C5E     14.1024  -1.6321  -4.0113   C.3       1 RES1   0.0000
   135 H11E    13.4075  -1.3816  -4.6368   H         1 RES1   0.0000
   136 H12E    14.5242  -2.4336  -4.3602   H         1 RES1   0.0000
   137 C6E     13.4900  -1.9715  -2.8326   C.3       1 RES1   0.0000
   138 H13E    12.8161  -2.6356  -3.0010   H         1 RES1   0.0000
   139 H14E    13.0811  -1.1926  -2.4477   H         1 RES1   0.0000
   140 H15E    14.1412  -2.3254  -2.2222   H         1 RES1   0.0000
   141 C7E     13.8358   1.3283  -0.9562   C.3       1 RES1   0.0000
   142 H16E    13.1215   0.8209  -0.5413   H         1 RES1   0.0000
   143 H17E    13.5643   1.5271  -1.8673   H         1 RES1   0.0000
   144 C8E     14.0038   2.5484  -0.2496   C.3       1 RES1   0.0000
   145 H18E    13.1797   3.0396  -0.2586   H         1 RES1   0.0000
   146 H19E    14.6906   3.0703  -0.6736   H         1 RES1   0.0000
   147 H20E    14.2559   2.3625   0.6555   H         1 RES1   0.0000
   148 C9E     13.7889  -1.2330   2.0027   C.3       1 RES1   0.0000
   149 H21E    13.3817  -1.2217   2.8837   H         1 RES1   0.0000
   150 H22E    13.1425  -0.8855   1.3682   H         1 RES1   0.0000
   151 C10E    14.1024  -2.5160   1.6689   C.3       1 RES1   0.0000
   152 H23E    13.3057  -3.0509   1.6749   H         1 RES1   0.0000
   153 H24E    14.7278  -2.8683   2.3064   H         1 RES1   0.0000
   154 H25E    14.4918  -2.5322   0.7938   H         1 RES1   0.0000
   155 C11E    18.5446  -1.1796   4.9585   C.3       1 RES1   0.0000
   156 H26E    19.0876  -0.8548   4.2218   H         1 RES1   0.0000
   157 H27E    19.0310  -1.0019   5.7795   H         1 RES1   0.0000
   158 C12E    18.4073  -2.5354   4.8262   C.3       1 RES1   0.0000
   159 H28E    19.2751  -2.9443   4.8052   H         1 RES1   0.0000
   160 H29E    17.9419  -2.7310   4.0113   H         1 RES1   0.0000
   161 H30E    17.9096  -2.8796   5.5720   H         1 RES1   0.0000
   162 C13E    18.4865   1.3202   7.9204   C.3       1 RES1   0.0000
   163 H31E    18.7612   1.5335   8.8255   H         1 RES1   0.0000
   164 H32E    19.2233   0.8629   7.4874   H         1 RES1   0.0000
   165 C14E    18.2118   2.5128   7.2288   C.3       1 RES1   0.0000
   166 H33E    19.0003   3.0590   7.2108   H         1 RES1   0.0000
   167 H34E    17.5056   2.9847   7.6769   H         1 RES1   0.0000
   168 H35E    17.9403   2.3076   6.3327   H         1 RES1   0.0000
   169 C15E    17.8417  -2.0329  10.9725   C.3       1 RES1   0.0000
   170 H36E    17.5524  -2.7035  11.6130   H         1 RES1   0.0000
   171 H37E    18.6868  -1.6757  11.2853   H         1 RES1   0.0000
   172 C16E    18.0631  -2.6841   9.7006   C.3       1 RES1   0.0000
   173 H38E    18.7466  -3.3499   9.7968   H         1 RES1   0.0000
   174 H39E    18.3410  -2.0329   9.0511   H         1 RES1   0.0000
   175 H40E    17.2487  -3.0994   9.4059   H         1 RES1   0.0000
   176 C17E    16.8204  -2.0975  14.6681   C.3       1 RES1   0.0000
   177 H41E    16.5586  -2.8279  14.0878   H         1 RES1   0.0000
   178 H42E    16.0221  -1.8018  15.1342   H         1 RES1   0.0000
   179 C18E    17.7043  -2.6081  15.6214   C.3       1 RES1   0.0000
   180 H43E    17.2745  -3.3111  16.1145   H         1 RES1   0.0000
   181 H44E    17.9629  -1.9068  16.2258   H         1 RES1   0.0000
   182 H45E    18.4832  -2.9556  15.1823   H         1 RES1   0.0000
   183 C19E    18.1213   2.2785  11.9799   C.3       1 RES1   0.0000
   184 H46E    17.8546   2.0555  11.0748   H         1 RES1   0.0000
   185 H47E    17.5815   3.0364  12.2565   H         1 RES1   0.0000
   186 C20E    19.4011   2.6889  11.9348   C.3       1 RES1   0.0000
   187 H48E    19.4722   3.4533  11.3574   H         1 RES1   0.0000
   188 H49E    19.9521   1.9795  11.5950   H         1 RES1   0.0000
   189 H50E    19.6920   2.9249  12.8188   H         1 RES1   0.0000
   190 C21E    21.0898  -1.9052  13.2338   C.3       1 RES1   0.0000
   191 H51E    20.3868  -2.4579  12.8579   H         1 RES1   0.0000
   192 H52E    21.7119  -2.4902  13.6969   H         1 RES1   0.0000
   193 C22E    21.7975  -1.2184  12.1423   C.3       1 RES1   0.0000
   194 H53E    22.1676  -1.8697  11.5409   H         1 RES1   0.0000
   195 H54E    22.5053  -0.6819  12.5061   H         1 RES1   0.0000
   196 H55E    21.1819  -0.6561  11.6672   H         1 RES1   0.0000
   197 C23E    19.3365   2.1331  16.2318   C.3       1 RES1   0.0000
   198 H56E    18.6982   2.7116  15.7868   H         1 RES1   0.0000
   199 H57E    20.0394   2.6954  16.5926   H         1 RES1   0.0000
   200 C24E    18.6707   1.4592  17.3263   C.3       1 RES1   0.0000
   201 H58E    18.3200   2.1104  17.9368   H         1 RES1   0.0000
   202 H59E    19.2977   0.8952  17.7834   H         1 RES1   0.0000
   203 H60E    17.9500   0.9243  16.9805   H         1 RES1   0.0000
   204 Fe9B    16.2855   2.7091  -7.1091   Fe        1 RES1   0.0000
   205 Fe9G    16.0335  -2.7091  -7.1091   Fe        1 RES1   0.0000
   206 O1C      9.1156  -1.1231  15.6424   O.2       1 RES1   0.0000
   207 O1F     23.2034   1.1231  15.6424   O.2       1 RES1   0.0000
   208 O2C     22.5328  -1.0294  16.7006   O.2       1 RES1   0.0000
   209 O2F      9.7862   1.0294  16.7006   O.2       1 RES1   0.0000
@<TRIPOS>BOND
     1     1    10    1
     2     2    12    1
     3     3    13    1
     4     4    14    1
     5     5    15    1
     6     6    16    1
     7     7    17    1
     8     8    18    1
     9     9    20    1
    10    10    22    1
    11    11     1    1
    12    12     1    1
    13    13     2    1
    14    14     3    1
    15    15     4    1
    16    16     5    1
    17    17     6    1
    18    18     7    1
    19    19     7    1
    20    20     8    1
    21    21     8    1
    22    22    23    1
    23    24    22    1
    24    25    22    1
    25    26    25    1
    26    27    25    1
    27    28    25    1
    28    29    11    1
    29    30    29    1
    30    31    29    1
    31    32    29    1
    32    33    32    1
    33    34    32    1
    34    35    32    1
    35    36    12    1
    36    37    36    1
    37    38    36    1
    38    39    36    1
    39    40    39    1
    40    41    39    1
    41    42    39    1
    42    43    13    1
    43    44    43    1
    44    45    43    1
    45    46    43    1
    46    47    46    1
    47    48    46    1
    48    49    46    1
    49    50    14    1
    50    51    50    1
    51    52    50    1
    52    53    50    1
    53    54    53    1
    54    55    53    1
    55    56    53    1
    56    57    15    1
    57    58    57    1
    58    59    57    1
    59    60    57    1
    60    61    60    1
    61    62    60    1
    62    63    60    1
    63    64    16    1
    64    65    64    1
    65    66    64    1
    66    67    64    1
    67    68    67    1
    68    69    67    1
    69    70    67    1
    70    71    17    1
    71    72    71    1
    72    73    71    1
    73    74    71    1
    74    75    74    1
    75    76    74    1
    76    77    74    1
    77    78    18    1
    78    79    78    1
    79    80    78    1
    80    81    78    1
    81    82    81    1
    82    83    81    1
    83    84    81    1
    84    85    19    1
    85    86    85    1
    86    87    85    1
    87    88    85    1
    88    89    88    1
    89    90    88    1
    90    91    88    1
    91    92    20    1
    92    93    92    1
    93    94    92    1
    94    95    92    1
    95    96    95    1
    96    97    95    1
    97    98    95    1
    98    99    21    1
    99   100    99    1
   100   101    99    1
   101   102    99    1
   102   103   102    1
   103   104   102    1
   104   105   102    1
   105   106   116    1
   106   107   118    1
   107   108     1    1
   108   109     1    1
   109   110     1    1
   110   111     2    1
   111   112     3    1
   112   113     4    1
   113   114     5    1
   114   115     6    1
   115   116     7    1
   116   117     7    1
   117   118   106    1
   118   119   106    1
   119   120   108    1
   120   121   120    1
   121   122   120    1
   122   123   120    1
   123   124   123    1
   124   125   123    1
   125   126   123    1
   126   127   109    1
   127   128   127    1
   128   129   127    1
   129   130   127    1
   130   131   130    1
   131   132   130    1
   132   133   130    1
   133   134   110    1
   134   135   134    1
   135   136   134    1
   136   137   134    1
   137   138   137    1
   138   139   137    1
   139   140   137    1
   140   141   111    1
   141   142   141    1
   142   143   141    1
   143   144   141    1
   144   145   144    1
   145   146   144    1
   146   147   144    1
   147   148   112    1
   148   149   148    1
   149   150   148    1
   150   151   148    1
   151   152   151    1
   152   153   151    1
   153   154   151    1
   154   155   113    1
   155   156   155    1
   156   157   155    1
   157   158   155    1
   158   159   158    1
   159   160   158    1
   160   161   158    1
   161   162   114    1
   162   163   162    1
   163   164   162    1
   164   165   162    1
   165   166   165    1
   166   167   165    1
   167   168   165    1
   168   169   115    1
   169   170   169    1
   170   171   169    1
   171   172   169    1
   172   173   172    1
   173   174   172    1
   174   175   172    1
   175   176   116    1
   176   177   176    1
   177   178   176    1
   178   179   176    1
   179   180   179    1
   180   181   179    1
   181   182   179    1
   182   183   117    1
   183   184   183    1
   184   185   183    1
   185   186   183    1
   186   187   186    1
   187   188   186    1
   188   189   186    1
   189   190   118    1
   190   191   190    1
   191   192   190    1
   192   193   190    1
   193   194   193    1
   194   195   193    1
   195   196   193    1
   196   197   119    1
   197   198   197    1
   198   199   197    1
   199   200   197    1
   200   201   200    1
   201   202   200    1
   202   203   200    1
   203   204    10   un
   204   205    11   un
   205   206     9   un
   206   207   107   un
   207   208   107   un
   208   209     9   un
   209     2   110    1
   210     3   111    1
   211     4   112    1
   212     5   113    1
   213     6   114    1
   214     7   115    1
   215     8    19    1
   216     9    21    1
   217   106   117    1
   218   107   119    1
   219   108   205   un
   220   109   204   un
@<TRIPOS>SUBSTRUCTURE
     1 RES1        1 GROUP             0 ****  ****    0  
@<TRIPOS>CRYSIN
   16.1595   16.1595   30.0700   90.0000   90.0000   90.0000    80     1
