@<TRIPOS>MOLECULE
JUXNOH
   107   118     1     0     0
SMALL
NO_CHARGES
****
Generated from the CSD

@<TRIPOS>ATOM
     1 Fe1      3.2570   4.4956  10.6279   Fe        1 RES1   0.0000
     2 Si1      1.8916  -0.1894  10.3210   Si        1 RES1   0.0000
     3 Si2      0.6522   2.0857   6.0925   Si        1 RES1   0.0000
     4 C1       1.9437   4.7837  12.1934   C.2       1 RES1   0.0000
     5 H1       2.3443   4.6057  13.0702   H         1 RES1   0.0000
     6 C2       0.6059   6.3929   9.8310   C.ar      1 RES1   0.0000
     7 C3       2.3290   6.0420  11.6479   C.2       1 RES1   0.0000
     8 H2       2.9402   6.5427  12.2271   H         1 RES1   0.0000
     9 C4      -0.1365   7.2712   9.0524   C.ar      1 RES1   0.0000
    10 H3      -0.7402   6.9285   8.4329   H         1 RES1   0.0000
    11 C5      -0.0007   8.6341   9.1723   C.ar      1 RES1   0.0000
    12 H4      -0.5135   9.2061   8.6470   H         1 RES1   0.0000
    13 C6       1.7013   3.2493   7.1143   C.3       1 RES1   0.0000
    14 H5       2.6049   3.2088   6.7641   H         1 RES1   0.0000
    15 H6       1.3760   4.1481   6.9540   H         1 RES1   0.0000
    16 C7       1.5121   6.9046  10.7872   C.ar      1 RES1   0.0000
    17 C8       1.6459   8.2908  10.8734   C.ar      1 RES1   0.0000
    18 H7       2.2499   8.6500  11.4822   H         1 RES1   0.0000
    19 C9       0.5085   4.9088   9.6330   C.3       1 RES1   0.0000
    20 H8      -0.0549   4.7388   8.8491   H         1 RES1   0.0000
    21 C10     -0.1308   4.2356  10.8398   C.ar      1 RES1   0.0000
    22 C11      0.6285   4.1539  12.0237   C.ar      1 RES1   0.0000
    23 C12     -1.3943   3.6811  10.7751   C.ar      1 RES1   0.0000
    24 H9      -1.8981   3.7703   9.9993   H         1 RES1   0.0000
    25 C13      0.0867   3.4366  13.0972   C.ar      1 RES1   0.0000
    26 H10      0.5758   3.3472  13.8824   H         1 RES1   0.0000
    27 C14     -1.1746   2.8576  13.0056   C.ar      1 RES1   0.0000
    28 H11     -1.5158   2.3787  13.7248   H         1 RES1   0.0000
    29 C15     -1.9190   2.9912  11.8580   C.ar      1 RES1   0.0000
    30 H12     -2.7703   2.6208  11.8082   H         1 RES1   0.0000
    31 C16      0.9034   9.1444  10.0815   C.ar      1 RES1   0.0000
    32 H13      1.0138  10.0655  10.1609   H         1 RES1   0.0000
    33 C17      3.0421   2.2880   9.1063   C.3       1 RES1   0.0000
    34 H14      3.3260   1.6842   8.3884   H         1 RES1   0.0000
    35 C18      1.7871   3.0527   8.6538   C.3       1 RES1   0.0000
    36 H15      0.9933   2.5649   8.9555   H         1 RES1   0.0000
    37 C19      5.4506   2.9295   9.3932   C.3       1 RES1   0.0000
    38 H16      5.6323   2.2696   8.6928   H         1 RES1   0.0000
    39 C20      6.0796   5.3055   9.8862   C.ar      1 RES1   0.0000
    40 C21      6.3104   4.1515   9.1292   C.ar      1 RES1   0.0000
    41 C22      7.7289   6.4642   8.5460   C.ar      1 RES1   0.0000
    42 H17      8.2001   7.2425   8.3521   H         1 RES1   0.0000
    43 C23      6.7979   6.4517   9.5670   C.ar      1 RES1   0.0000
    44 H18      6.6481   7.2292  10.0532   H         1 RES1   0.0000
    45 C24      7.2601   4.1656   8.1110   C.ar      1 RES1   0.0000
    46 H19      7.4270   3.3898   7.6247   H         1 RES1   0.0000
    47 C25      7.9548   5.3196   7.8187   C.ar      1 RES1   0.0000
    48 H20      8.5784   5.3241   7.1277   H         1 RES1   0.0000
    49 C26      5.7761   2.3726  13.1322   C.ar      1 RES1   0.0000
    50 H21      5.5626   2.8071  13.9255   H         1 RES1   0.0000
    51 C27      5.8242   2.3210  10.7293   C.ar      1 RES1   0.0000
    52 C28      6.4336   1.0733  10.8088   C.ar      1 RES1   0.0000
    53 H22      6.6633   0.6306  10.0236   H         1 RES1   0.0000
    54 C29      5.4936   2.9992  11.9267   C.ar      1 RES1   0.0000
    55 C30      6.7047   0.4781  12.0143   C.ar      1 RES1   0.0000
    56 H23      7.1176  -0.3539  12.0399   H         1 RES1   0.0000
    57 C31      6.3627   1.1204  13.1928   C.ar      1 RES1   0.0000
    58 H24      6.5254   0.7157  14.0130   H         1 RES1   0.0000
    59 C32      4.8471   4.3136  11.9200   C.2       1 RES1   0.0000
    60 H25      4.6462   4.6456  12.8197   H         1 RES1   0.0000
    61 C33      5.1007   5.3579  10.9906   C.2       1 RES1   0.0000
    62 H26      5.0298   6.2501  11.3920   H         1 RES1   0.0000
    63 N1       1.8496   4.3631   9.3663   N.2       1 RES1   0.0000
    64 N2       4.0493   3.3640   9.2639   N.2       1 RES1   0.0000
    65 C34     -1.1163   2.1980   6.6792   C.3       1 RES1   0.0000
    66 H27     -1.6784   1.6736   6.1041   H         1 RES1   0.0000
    67 H28     -1.4030   3.1131   6.6590   H         1 RES1   0.0000
    68 H29     -1.1779   1.8625   7.5776   H         1 RES1   0.0000
    69 C35      1.2388   0.3235   6.2348   C.3       1 RES1   0.0000
    70 H30      0.6678  -0.2474   5.7149   H         1 RES1   0.0000
    71 H31      1.2096   0.0506   7.1547   H         1 RES1   0.0000
    72 H32      2.1387   0.2581   5.9088   H         1 RES1   0.0000
    73 C36      0.7719   2.6158   4.3074   C.3       1 RES1   0.0000
    74 H33      1.6713   2.4931   3.9976   H         1 RES1   0.0000
    75 H34      0.5306   3.5414   4.2319   H         1 RES1   0.0000
    76 H35      0.1742   2.0860   3.7753   H         1 RES1   0.0000
    77 C37      2.7695   1.4663  10.3737   C.3       1 RES1   0.0000
    78 H36      2.2598   2.0355  10.9718   H         1 RES1   0.0000
    79 H37      3.6279   1.3144  10.7994   H         1 RES1   0.0000
    80 C38      2.8072  -1.3333   9.1723   C.3       1 RES1   0.0000
    81 H38      2.9321  -0.9020   8.3224   H         1 RES1   0.0000
    82 H39      2.3004  -2.1392   9.0511   H         1 RES1   0.0000
    83 H40      3.6638  -1.5485   9.5495   H         1 RES1   0.0000
    84 C39      0.0784  -0.0484   9.9010   C.3       1 RES1   0.0000
    85 H41     -0.0188   0.1703   8.9716   H         1 RES1   0.0000
    86 H42     -0.3213   0.6412  10.4357   H         1 RES1   0.0000
    87 H43     -0.3581  -0.8860  10.0788   H         1 RES1   0.0000
    88 C40      1.9947  -0.9475  12.0223   C.3       1 RES1   0.0000
    89 H44      1.6094  -1.8253  12.0048   H         1 RES1   0.0000
    90 H45      1.5125  -0.3991  12.6473   H         1 RES1   0.0000
    91 H46      2.9141  -1.0058  12.2917   H         1 RES1   0.0000
    92 O1       3.7710   6.2908   6.8586   O.3       1 RES1   0.0000
    93 C41      3.2746   7.6014   7.2395   C.3       1 RES1   0.0000
    94 H47      2.3705   7.5086   7.5776   H         1 RES1   0.0000
    95 H48      3.2388   8.1658   6.4503   H         1 RES1   0.0000
    96 C42      4.8635   6.3171   5.9371   C.3       1 RES1   0.0000
    97 H49      5.6723   6.6039   6.3883   H         1 RES1   0.0000
    98 H50      4.6761   6.9392   5.2179   H         1 RES1   0.0000
    99 C43      4.1048   8.2642   8.2645   C.3       1 RES1   0.0000
   100 H51      4.1147   7.7294   9.0619   H         1 RES1   0.0000
   101 H52      3.7385   9.1290   8.4625   H         1 RES1   0.0000
   102 H53      5.0011   8.3627   7.9345   H         1 RES1   0.0000
   103 C44      5.0451   4.9498   5.3903   C.3       1 RES1   0.0000
   104 H54      5.1726   4.3317   6.1122   H         1 RES1   0.0000
   105 H55      5.8144   4.9357   4.8165   H         1 RES1   0.0000
   106 H56      4.2659   4.6988   4.8879   H         1 RES1   0.0000
   107 Li1      3.4106   4.8479   8.0382   Li        1 RES1   0.0000
@<TRIPOS>BOND
     1     1     4   un
     2     2    77    1
     3     3    13    1
     4     4     5    1
     5     6     9   ar
     6     7     1   un
     7     8     7    1
     8     9    10    1
     9    11     9   ar
    10    12    11    1
    11    13    14    1
    12    15    13    1
    13    16     6   ar
    14    17    16   ar
    15    18    17    1
    16    19     6    1
    17    20    19    1
    18    21    19    1
    19    22     4    1
    20    23    21   ar
    21    24    23    1
    22    25    22   ar
    23    26    25    1
    24    27    25   ar
    25    28    27    1
    26    29    23   ar
    27    30    29    1
    28    31    11   ar
    29    32    31    1
    30    33    34    1
    31    35    13    1
    32    36    35    1
    33    37    38    1
    34    39    40   ar
    35    40    37    1
    36    41    42    1
    37    43    39   ar
    38    44    43    1
    39    45    40   ar
    40    46    45    1
    41    47    41   ar
    42    48    47    1
    43    49    50    1
    44    51    37    1
    45    52    51   ar
    46    53    52    1
    47    54    49   ar
    48    55    52   ar
    49    56    55    1
    50    57    49   ar
    51    58    57    1
    52    59     1   un
    53    60    59    1
    54    61     1   un
    55    62    61    1
    56    63     1    1
    57    64     1    1
    58    65     3    1
    59    66    65    1
    60    67    65    1
    61    68    65    1
    62    69     3    1
    63    70    69    1
    64    71    69    1
    65    72    69    1
    66    73     3    1
    67    74    73    1
    68    75    73    1
    69    76    73    1
    70    77    33    1
    71    78    77    1
    72    79    77    1
    73    80     2    1
    74    81    80    1
    75    82    80    1
    76    83    80    1
    77    84     2    1
    78    85    84    1
    79    86    84    1
    80    87    84    1
    81    88     2    1
    82    89    88    1
    83    90    88    1
    84    91    88    1
    85    92    93    1
    86    93    94    1
    87    95    93    1
    88    96    92    1
    89    97    96    1
    90    98    96    1
    91    99    93    1
    92   100    99    1
    93   101    99    1
    94   102    99    1
    95   103    96    1
    96   104   103    1
    97   105   103    1
    98   106   103    1
    99   107    63    1
   100     4     7    2
   101     7    16    1
   102    17    31   ar
   103    19    63    1
   104    21    22   ar
   105    27    29   ar
   106    33    35    1
   107    33    64    1
   108    35    63    1
   109    37    64    1
   110    39    61    1
   111    41    43   ar
   112    45    47   ar
   113    51    54   ar
   114    54    59    1
   115    55    57   ar
   116    59    61    2
   117    64   107    1
   118    92   107    1
@<TRIPOS>SUBSTRUCTURE
     1 RES1        1 GROUP             0 ****  ****    0  
@<TRIPOS>CRYSIN
   11.3913   26.6073   13.8664   90.0000  103.7520   90.0000   231     1
