@<TRIPOS>MOLECULE
KACGIE
   157   168     1     0     0
SMALL
NO_CHARGES
****
Generated from the CSD

@<TRIPOS>ATOM
     1 Fe1      3.3256   3.2072   4.8081   Fe        1 RES1   0.0000
     2 P1       1.1487   3.8791   5.3647   P.3       1 RES1   0.0000
     3 N1       2.9817   1.4074   5.6072   N.2       1 RES1   0.0000
     4 N2       2.6854   2.5510   3.0416   N.2       1 RES1   0.0000
     5 C1       3.2420   1.0000   6.8948   C.2       1 RES1   0.0000
     6 C2       2.9122  -0.3841   7.0583   C.2       1 RES1   0.0000
     7 C3       2.4702  -0.8333   5.8735   C.2       1 RES1   0.0000
     8 C4       2.5219   0.2857   4.9687   C.2       1 RES1   0.0000
     9 C5       2.1950   0.2004   3.6118   C.2       1 RES1   0.0000
    10 C6       2.2672   1.2733   2.7214   C.2       1 RES1   0.0000
    11 C7       1.9049   1.2092   1.3424   C.2       1 RES1   0.0000
    12 C8       2.0532   2.4218   0.8251   C.2       1 RES1   0.0000
    13 C9       2.5587   3.2659   1.8636   C.2       1 RES1   0.0000
    14 C10      3.7832   1.7969   7.9035   C.2       1 RES1   0.0000
    15 C11      1.7634  -1.1238   3.0676   C.ar      1 RES1   0.0000
    16 C12      0.4585  -1.4988   3.0185   C.ar      1 RES1   0.0000
    17 C13      0.0771  -2.7223   2.4579   C.ar      1 RES1   0.0000
    18 C14      1.0304  -3.5456   1.9617   C.ar      1 RES1   0.0000
    19 C15      2.3139  -3.1961   2.0377   C.ar      1 RES1   0.0000
    20 C16      2.6934  -1.9982   2.5896   C.ar      1 RES1   0.0000
    21 C17      4.0759   1.1453   9.2229   C.ar      1 RES1   0.0000
    22 C18      5.2908   0.5397   9.4306   C.ar      1 RES1   0.0000
    23 C19      5.5809  -0.0840  10.6374   C.ar      1 RES1   0.0000
    24 C20      4.6574  -0.0762  11.6586   C.ar      1 RES1   0.0000
    25 C21      3.4554   0.5003  11.4557   C.ar      1 RES1   0.0000
    26 C22      3.1570   1.1010  10.2422   C.ar      1 RES1   0.0000
    27 C23      0.7332   5.6104   5.0456   C.3       1 RES1   0.0000
    28 C24     -0.6667   6.1238   5.3802   C.3       1 RES1   0.0000
    29 C25     -0.7563   7.5892   5.5245   C.3       1 RES1   0.0000
    30 C26     -2.1389   8.1096   5.8918   C.3       1 RES1   0.0000
    31 C27      0.7559   3.6924   7.1977   C.3       1 RES1   0.0000
    32 C28      1.0823   4.7287   8.0689   C.3       1 RES1   0.0000
    33 C29      0.9707   4.4649   9.7614   C.3       1 RES1   0.0000
    34 C30     -0.1866   4.0135   9.9845   C.3       1 RES1   0.0000
    35 C31     -0.2289   2.8436   4.7725   C.3       1 RES1   0.0000
    36 C32     -0.6594   3.0162   3.4118   C.3       1 RES1   0.0000
    37 C33     -1.7817   2.0282   2.9849   C.3       1 RES1   0.0000
    38 C34     -2.1161   1.9785   1.6107   C.3       1 RES1   0.0000
    39 H1       2.9941  -0.9018   7.8737   H         1 RES1   0.0000
    40 H2       2.1759  -1.7333   5.6697   H         1 RES1   0.0000
    41 H3       1.6042   0.4186   0.8693   H         1 RES1   0.0000
    42 H4       1.8575   2.6863  -0.0856   H         1 RES1   0.0000
    43 H5      -0.2207  -0.9085   3.3791   H         1 RES1   0.0000
    44 H6      -0.8578  -2.9779   2.4242   H         1 RES1   0.0000
    45 H7       0.7804  -4.3887   1.5530   H         1 RES1   0.0000
    46 H8       2.9929  -3.7995   1.6982   H         1 RES1   0.0000
    47 H9       3.6351  -1.7701   2.6396   H         1 RES1   0.0000
    48 H10      5.9555   0.5464   8.7247   H         1 RES1   0.0000
    49 H11      6.4366  -0.5258  10.7614   H         1 RES1   0.0000
    50 H12      4.8708  -0.4776  12.5145   H         1 RES1   0.0000
    51 H13      2.7930   0.4931  12.1644   H         1 RES1   0.0000
    52 H14      2.2817   1.4980  10.1104   H         1 RES1   0.0000
    53 H15      1.3667   6.1551   5.5572   H         1 RES1   0.0000
    54 H16      0.8721   5.7678   4.0898   H         1 RES1   0.0000
    55 H17     -1.2754   5.8488   4.6648   H         1 RES1   0.0000
    56 H18     -0.9513   5.7134   6.2226   H         1 RES1   0.0000
    57 H19     -0.1290   7.8664   6.2226   H         1 RES1   0.0000
    58 H20     -0.4934   7.9989   4.6735   H         1 RES1   0.0000
    59 H21     -2.0641   9.0331   6.2053   H         1 RES1   0.0000
    60 H22     -2.7195   8.0747   5.1033   H         1 RES1   0.0000
    61 H23     -2.4794   7.5481   6.6025   H         1 RES1   0.0000
    62 H24     -0.2096   3.5515   7.2746   H         1 RES1   0.0000
    63 H25      1.2284   2.8946   7.5150   H         1 RES1   0.0000
    64 H26      2.0122   4.9886   7.8747   H         1 RES1   0.0000
    65 H27      0.4918   5.4830   7.8574   H         1 RES1   0.0000
    66 H28      1.6593   3.8210  10.0287   H         1 RES1   0.0000
    67 H29      1.1261   5.3142  10.2258   H         1 RES1   0.0000
    68 H30     -0.8082   4.7722  10.0566   H         1 RES1   0.0000
    69 H31     -0.4539   3.4157   9.2854   H         1 RES1   0.0000
    70 H32     -0.1613   3.5416  10.8538   H         1 RES1   0.0000
    71 H33      0.0417   1.9084   4.8783   H         1 RES1   0.0000
    72 H34     -1.0004   3.0244   5.3466   H         1 RES1   0.0000
    73 H35     -0.9948   3.9304   3.3041   H         1 RES1   0.0000
    74 H36      0.1126   2.8829   2.8233   H         1 RES1   0.0000
    75 H37     -1.4991   1.1288   3.2522   H         1 RES1   0.0000
    76 H38     -2.5930   2.2723   3.4753   H         1 RES1   0.0000
    77 H39     -2.6922   2.7407   1.3886   H         1 RES1   0.0000
    78 H40     -1.2963   2.0175   1.0760   H         1 RES1   0.0000
    79 H41     -2.5913   1.1416   1.4251   H         1 RES1   0.0000
    80 P1A      5.5025   2.5353   4.2515   P.3       1 RES1   0.0000
    81 N1A      3.6695   5.0070   4.0090   N.2       1 RES1   0.0000
    82 N2A      3.9658   3.8634   6.5746   N.2       1 RES1   0.0000
    83 C10A     2.8680   4.6175   1.7126   C.2       1 RES1   0.0000
    84 C9A      4.0925   3.1485   7.7525   C.2       1 RES1   0.0000
    85 C23A     5.9181   0.8040   4.5706   C.3       1 RES1   0.0000
    86 C27A     5.8953   2.7220   2.4185   C.3       1 RES1   0.0000
    87 C31A     6.8801   3.5707   4.8437   C.3       1 RES1   0.0000
    88 C1A      3.4092   5.4144   2.7214   C.2       1 RES1   0.0000
    89 C4A      4.1293   6.1287   4.6475   C.2       1 RES1   0.0000
    90 C6A      4.3840   5.1411   6.8948   C.2       1 RES1   0.0000
    91 C17A     2.5753   5.2691   0.3933   C.ar      1 RES1   0.0000
    92 C8A      4.5980   3.9926   8.7911   C.2       1 RES1   0.0000
    93 C24A     7.3179   0.2906   4.2359   C.3       1 RES1   0.0000
    94 H15A     5.2845   0.2593   4.0590   H         1 RES1   0.0000
    95 H16A     5.7791   0.6466   5.5264   H         1 RES1   0.0000
    96 C28A     5.5689   1.6857   1.5472   C.3       1 RES1   0.0000
    97 H24A     6.8608   2.8629   2.3415   H         1 RES1   0.0000
    98 H25A     5.4228   3.5198   2.1011   H         1 RES1   0.0000
    99 C32A     7.3106   3.3982   6.2043   C.3       1 RES1   0.0000
   100 H33A     6.6095   4.5060   4.7379   H         1 RES1   0.0000
   101 H34A     7.6516   3.3900   4.2696   H         1 RES1   0.0000
   102 C2A      3.7390   6.7985   2.5579   C.2       1 RES1   0.0000
   103 C3A      4.1810   7.2477   3.7426   C.2       1 RES1   0.0000
   104 C5A      4.4562   6.2140   6.0043   C.2       1 RES1   0.0000
   105 C7A      4.7464   5.2052   8.2737   C.2       1 RES1   0.0000
   106 C18A     1.3604   5.8746   0.1856   C.ar      1 RES1   0.0000
   107 C22A     3.4942   5.3134  -0.6260   C.ar      1 RES1   0.0000
   108 H4A      4.7937   3.7281   9.7017   H         1 RES1   0.0000
   109 C25A     7.4075  -1.1749   4.0917   C.3       1 RES1   0.0000
   110 H17A     7.9266   0.5656   4.9514   H         1 RES1   0.0000
   111 H18A     7.6025   0.7010   3.3935   H         1 RES1   0.0000
   112 C29A     5.6805   1.9495  -0.1452   C.3       1 RES1   0.0000
   113 H26A     4.6390   1.4258   1.7415   H         1 RES1   0.0000
   114 H27A     6.1594   0.9314   1.7588   H         1 RES1   0.0000
   115 C33A     8.4329   4.3862   6.6313   C.3       1 RES1   0.0000
   116 H35A     7.6460   2.4840   6.3120   H         1 RES1   0.0000
   117 H36A     6.5386   3.5315   6.7929   H         1 RES1   0.0000
   118 H1A      3.6571   7.3162   1.7424   H         1 RES1   0.0000
   119 H2A      4.4753   8.1477   3.9465   H         1 RES1   0.0000
   120 C11A     4.8878   7.5382   6.5486   C.ar      1 RES1   0.0000
   121 H3A      5.0470   5.9958   8.7469   H         1 RES1   0.0000
   122 C19A     1.0703   6.4984  -1.0212   C.ar      1 RES1   0.0000
   123 H10A     0.6957   5.8680   0.8914   H         1 RES1   0.0000
   124 C21A     3.1958   5.9141  -1.8396   C.ar      1 RES1   0.0000
   125 H14A     4.3695   4.9164  -0.4943   H         1 RES1   0.0000
   126 C26A     8.7901  -1.6952   3.7243   C.3       1 RES1   0.0000
   127 H19A     6.7802  -1.4520   3.3935   H         1 RES1   0.0000
   128 H20A     7.1446  -1.5845   4.9427   H         1 RES1   0.0000
   129 C30A     6.8378   2.4009  -0.3683   C.3       1 RES1   0.0000
   130 H28A     4.9919   2.5934  -0.4125   H         1 RES1   0.0000
   131 H29A     5.5251   1.1002  -0.6097   H         1 RES1   0.0000
   132 C34A     8.7673   4.4359   8.0055   C.3       1 RES1   0.0000
   133 H37A     8.1503   5.2856   6.3640   H         1 RES1   0.0000
   134 H38A     9.2443   4.1421   6.1409   H         1 RES1   0.0000
   135 C12A     6.1927   7.9132   6.5976   C.ar      1 RES1   0.0000
   136 C16A     3.9578   8.4126   7.0265   C.ar      1 RES1   0.0000
   137 C20A     1.9938   6.4906  -2.0425   C.ar      1 RES1   0.0000
   138 H11A     0.2146   6.9402  -1.1453   H         1 RES1   0.0000
   139 H13A     3.8582   5.9213  -2.5483   H         1 RES1   0.0000
   140 H21A     8.7153  -2.6187   3.4109   H         1 RES1   0.0000
   141 H22A     9.3707  -1.6604   4.5129   H         1 RES1   0.0000
   142 H23A     9.1306  -1.1337   3.0137   H         1 RES1   0.0000
   143 H30A     7.4594   1.6422  -0.4404   H         1 RES1   0.0000
   144 H31A     7.1051   2.9987   0.3308   H         1 RES1   0.0000
   145 H32A     6.8125   2.8728  -1.2376   H         1 RES1   0.0000
   146 H39A     9.3435   3.6737   8.2276   H         1 RES1   0.0000
   147 H40A     7.9475   4.3969   8.5401   H         1 RES1   0.0000
   148 H41A     9.2425   5.2728   8.1910   H         1 RES1   0.0000
   149 C13A     6.5741   9.1367   7.1583   C.ar      1 RES1   0.0000
   150 H5A      6.8719   7.3229   6.2370   H         1 RES1   0.0000
   151 C15A     4.3373   9.6105   7.5785   C.ar      1 RES1   0.0000
   152 H9A      3.0162   8.1845   6.9765   H         1 RES1   0.0000
   153 H12A     1.7804   6.8920  -2.8983   H         1 RES1   0.0000
   154 C14A     5.6208   9.9600   7.6545   C.ar      1 RES1   0.0000
   155 H6A      7.5090   9.3923   7.1919   H         1 RES1   0.0000
   156 H8A      3.6583  10.2139   7.9179   H         1 RES1   0.0000
   157 H7A      5.8708  10.8031   8.0631   H         1 RES1   0.0000
@<TRIPOS>BOND
     1     1     2    1
     2     2    27    1
     3     3     1    1
     4     4     1    1
     5     5     3    1
     6     6     5    1
     7     7     6    2
     8     8     3    1
     9     9     8    2
    10    10     4    2
    11    11    10    1
    12    12    11    2
    13    13     4    1
    14    14     5    2
    15    15     9    1
    16    16    15   ar
    17    17    16   ar
    18    18    17   ar
    19    19    18   ar
    20    20    15   ar
    21    21    14    1
    22    22    21   ar
    23    23    22   ar
    24    24    23   ar
    25    25    24   ar
    26    26    21   ar
    27    27    28    1
    28    28    29    1
    29    29    30    1
    30    30    59    1
    31    31     2    1
    32    32    31    1
    33    33    32    1
    34    34    33    1
    35    35     2    1
    36    36    35    1
    37    37    36    1
    38    38    37    1
    39    39     6    1
    40    40     7    1
    41    41    11    1
    42    42    12    1
    43    43    16    1
    44    44    17    1
    45    45    18    1
    46    46    19    1
    47    47    20    1
    48    48    22    1
    49    49    23    1
    50    50    24    1
    51    51    25    1
    52    52    26    1
    53    53    27    1
    54    54    27    1
    55    55    28    1
    56    56    28    1
    57    57    29    1
    58    58    29    1
    59    60    30    1
    60    61    30    1
    61    62    31    1
    62    63    31    1
    63    64    32    1
    64    65    32    1
    65    66    33    1
    66    67    33    1
    67    68    34    1
    68    69    34    1
    69    70    34    1
    70    71    35    1
    71    72    35    1
    72    73    36    1
    73    74    36    1
    74    75    37    1
    75    76    37    1
    76    77    38    1
    77    78    38    1
    78    79    38    1
    79    80     1    1
    80    81     1    1
    81    82     1    1
    82    83    13    2
    83    84    14    1
    84    85    80    1
    85    86    80    1
    86    87    80    1
    87    88    81    1
    88    89    81    1
    89    90    82    1
    90    91    83    1
    91    92    84    1
    92    93    85    1
    93    94    85    1
    94    95    85    1
    95    96    86    1
    96    97    86    1
    97    98    86    1
    98    99    87    1
    99   100    87    1
   100   101    87    1
   101   102    88    2
   102   103    89    2
   103   104    89    1
   104   105    90    1
   105   106    91   ar
   106   107    91   ar
   107   108    92    1
   108   109    93    1
   109   110    93    1
   110   111    93    1
   111   112    96    1
   112   113    96    1
   113   114    96    1
   114   115    99    1
   115   116    99    1
   116   117    99    1
   117   118   102    1
   118   119   103    1
   119   120   104    1
   120   121   105    1
   121   122   106   ar
   122   123   106    1
   123   124   107   ar
   124   125   107    1
   125   126   109    1
   126   127   109    1
   127   128   109    1
   128   129   112    1
   129   130   112    1
   130   131   112    1
   131   132   115    1
   132   133   115    1
   133   134   115    1
   134   135   120   ar
   135   136   120   ar
   136   137   122   ar
   137   138   122    1
   138   139   124    1
   139   140   126    1
   140   141   126    1
   141   142   126    1
   142   143   129    1
   143   144   129    1
   144   145   129    1
   145   146   132    1
   146   147   132    1
   147   148   132    1
   148   149   135   ar
   149   150   135    1
   150   151   136   ar
   151   152   136    1
   152   153   137    1
   153   154   149   ar
   154   155   149    1
   155   156   151    1
   156   157   154    1
   157     7     8    1
   158     9    10    1
   159    12    13    1
   160    19    20   ar
   161    25    26   ar
   162    82    84    2
   163    83    88    1
   164    90   104    2
   165    92   105    2
   166   102   103    1
   167   124   137   ar
   168   151   154   ar
@<TRIPOS>SUBSTRUCTURE
     1 RES1        1 GROUP             0 ****  ****    0  
@<TRIPOS>CRYSIN
   12.4990   12.5280   12.0390  116.3900  109.7900   98.1300     2     1
