@<TRIPOS>MOLECULE
KADGAA
   118   127     3     0     0
SMALL
NO_CHARGES
****
Generated from the CSD

@<TRIPOS>ATOM
     1 C1       8.9609   1.1224   2.1264   C.ar      1 RES1   0.0000
     2 C2       9.5199   0.1320   2.9492   C.ar      1 RES1   0.0000
     3 H1       9.2890  -0.7830   2.8422   H         1 RES1   0.0000
     4 C3      10.4102   0.5323   3.9114   C.ar      1 RES1   0.0000
     5 H2      10.8218  -0.1202   4.4661   H         1 RES1   0.0000
     6 C4      10.7222   1.8703   4.0908   C.ar      1 RES1   0.0000
     7 H3      11.3224   2.1387   4.7757   H         1 RES1   0.0000
     8 C5      10.1404   2.8129   3.2498   C.ar      1 RES1   0.0000
     9 C6      10.2764   4.2696   3.2572   C.ar      1 RES1   0.0000
    10 C7      10.9732   4.9746   4.2468   C.ar      1 RES1   0.0000
    11 H4      11.3899   4.5097   4.9625   H         1 RES1   0.0000
    12 C8      11.0494   6.3534   4.1738   C.ar      1 RES1   0.0000
    13 H5      11.4935   6.8426   4.8565   H         1 RES1   0.0000
    14 C9      10.4791   7.0164   3.1071   C.ar      1 RES1   0.0000
    15 H6      10.5665   7.9600   3.0374   H         1 RES1   0.0000
    16 C10      9.7800   6.3167   2.1353   C.ar      1 RES1   0.0000
    17 H7       9.3973   6.7985   1.4102   H         1 RES1   0.0000
    18 C11      9.6180   4.9252   2.1832   C.ar      1 RES1   0.0000
    19 C12      7.7305   2.0095   0.2967   C.2       1 RES1   0.0000
    20 C13      8.0279   4.9500  -0.0720   C.1       1 RES1   0.0000
    21 C14      6.4151   2.7198   3.4414   C.ar      1 RES1   0.0000
    22 C15      7.2828   2.5768   4.5332   C.ar      1 RES1   0.0000
    23 H8       7.9363   3.2441   4.7034   H         1 RES1   0.0000
    24 C16      7.1979   1.4771   5.3627   C.ar      1 RES1   0.0000
    25 H9       7.7940   1.3897   6.0967   H         1 RES1   0.0000
    26 C17      6.2425   0.4996   5.1246   C.ar      1 RES1   0.0000
    27 H10      6.1852  -0.2583   5.6945   H         1 RES1   0.0000
    28 C18      5.3733   0.6292   4.0560   C.ar      1 RES1   0.0000
    29 H11      4.7164  -0.0380   3.8956   H         1 RES1   0.0000
    30 C19      5.4593   1.7328   3.2173   C.ar      1 RES1   0.0000
    31 H12      4.8614   1.8143   2.4838   H         1 RES1   0.0000
    32 C20      5.1046   4.1722   1.3052   C.ar      1 RES1   0.0000
    33 C21      3.9549   4.5397   2.0225   C.ar      1 RES1   0.0000
    34 H13      4.0054   4.6759   2.9617   H         1 RES1   0.0000
    35 C22      2.7489   4.7039   1.3656   C.ar      1 RES1   0.0000
    36 H14      1.9752   4.9542   1.8561   H         1 RES1   0.0000
    37 C23      2.6618   4.5070  -0.0010   C.ar      1 RES1   0.0000
    38 H15      1.8312   4.6258  -0.4459   H         1 RES1   0.0000
    39 C24      3.7831   4.1382  -0.7192   C.ar      1 RES1   0.0000
    40 H16      3.7239   3.9990  -1.6575   H         1 RES1   0.0000
    41 C25      5.0030   3.9710  -0.0636   C.ar      1 RES1   0.0000
    42 H17      5.7724   3.7167  -0.5604   H         1 RES1   0.0000
    43 C26      6.6070   5.6174   3.1673   C.ar      1 RES1   0.0000
    44 C27      6.4962   5.6991   4.5507   C.ar      1 RES1   0.0000
    45 H18      6.4740   4.9041   5.0702   H         1 RES1   0.0000
    46 C28      6.4169   6.9345   5.1803   C.ar      1 RES1   0.0000
    47 H19      6.3500   6.9787   6.1270   H         1 RES1   0.0000
    48 C29      6.4343   8.0980   4.4371   C.ar      1 RES1   0.0000
    49 H20      6.3999   8.9432   4.8700   H         1 RES1   0.0000
    50 C30      6.5010   8.0263   3.0610   C.ar      1 RES1   0.0000
    51 H21      6.4795   8.8231   2.5427   H         1 RES1   0.0000
    52 C31      6.6004   6.7971   2.4318   C.ar      1 RES1   0.0000
    53 H22      6.6648   6.7585   1.4842   H         1 RES1   0.0000
    54 C32     11.1945   1.7794  -0.0592   C.ar      1 RES1   0.0000
    55 C33     10.5865   0.6102  -0.5430   C.ar      1 RES1   0.0000
    56 H23      9.8148   0.6768  -1.0938   H         1 RES1   0.0000
    57 C34     11.0932  -0.6328  -0.2314   C.ar      1 RES1   0.0000
    58 H24     10.6616  -1.4158  -0.5536   H         1 RES1   0.0000
    59 C35     12.2263  -0.7417   0.5481   C.ar      1 RES1   0.0000
    60 H25     12.5738  -1.5980   0.7657   H         1 RES1   0.0000
    61 C36     12.8509   0.3913   1.0097   C.ar      1 RES1   0.0000
    62 H26     13.6397   0.3144   1.5330   H         1 RES1   0.0000
    63 C37     12.3378   1.6493   0.7179   C.ar      1 RES1   0.0000
    64 H27     12.7715   2.4250   1.0517   H         1 RES1   0.0000
    65 C38     11.5666   4.7097  -0.4606   C.ar      1 RES1   0.0000
    66 C39     12.3759   4.9881   0.6371   C.ar      1 RES1   0.0000
    67 H28     12.3030   4.4576   1.4219   H         1 RES1   0.0000
    68 C40     13.2875   6.0320   0.5947   C.ar      1 RES1   0.0000
    69 H29     13.8522   6.1958   1.3412   H         1 RES1   0.0000
    70 C41     13.3815   6.8352  -0.5254   C.ar      1 RES1   0.0000
    71 H30     14.0157   7.5415  -0.5536   H         1 RES1   0.0000
    72 C42     12.5519   6.6071  -1.6027   C.ar      1 RES1   0.0000
    73 H31     12.5985   7.1710  -2.3660   H         1 RES1   0.0000
    74 C43     11.6479   5.5516  -1.5744   C.ar      1 RES1   0.0000
    75 H32     11.0786   5.4008  -2.3205   H         1 RES1   0.0000
    76 C44     10.0264   3.1101  -2.2012   C.ar      1 RES1   0.0000
    77 C45     11.1325   2.7585  -2.9895   C.ar      1 RES1   0.0000
    78 H33     11.9815   2.6493  -2.5780   H         1 RES1   0.0000
    79 C46     11.0096   2.5698  -4.3473   C.ar      1 RES1   0.0000
    80 H34     11.7708   2.3449  -4.8700   H         1 RES1   0.0000
    81 C47      9.7708   2.7092  -4.9474   C.ar      1 RES1   0.0000
    82 H35      9.6788   2.5752  -5.8830   H         1 RES1   0.0000
    83 C48      8.6645   3.0448  -4.1851   C.ar      1 RES1   0.0000
    84 H36      7.8152   3.1399  -4.5990   H         1 RES1   0.0000
    85 C49      8.7931   3.2439  -2.8155   C.ar      1 RES1   0.0000
    86 H37      8.0304   3.4724  -2.2987   H         1 RES1   0.0000
    87 Fe1      8.5677   3.6994   0.9864   Fe        1 RES1   0.0000
    88 N1       9.2962   2.4132   2.2645   N.ar      1 RES1   0.0000
    89 N2       8.0786   0.9135   1.1179   N.am      1 RES1   0.0000
    90 H38      7.7317   0.1161   0.9794   H         1 RES1   0.0000
    91 O1       7.0003   1.7406  -0.6674   O.2       1 RES1   0.0000
    92 O2       7.6969   5.8589  -0.7229   O.2       1 RES1   0.0000
    93 P1       6.7088   4.0425   2.2123   P.3       1 RES1   0.0000
    94 P2      10.3094   3.3584  -0.4008   P.3       1 RES1   0.0000
    95 C50     10.4641   9.4823   0.1819   C.ar      2 RES2   0.0000
    96 H39     10.7462   8.5768   0.1447   H         2 RES2   0.0000
    97 C51     11.3052  10.4879  -0.2529   C.ar      2 RES2   0.0000
    98 H40     12.1598  10.2729  -0.6058   H         2 RES2   0.0000
    99 C52     10.9050  11.7964  -0.1740   C.ar      2 RES2   0.0000
   100 H41     11.4897  12.4856  -0.4661   H         2 RES2   0.0000
   101 C53      9.6708  12.1194   0.3209   C.ar      2 RES2   0.0000
   102 H42      9.4056  13.0303   0.3786   H         2 RES2   0.0000
   103 C54      8.8111  11.1209   0.7372   C.ar      2 RES2   0.0000
   104 H43      7.9498  11.3422   1.0686   H         2 RES2   0.0000
   105 C55      9.2125   9.7997   0.6694   C.ar      2 RES2   0.0000
   106 H44      8.6268   9.1094   0.9592   H         2 RES2   0.0000
   107 C56      1.1270   2.1157   2.8696   C.ar      3 RES3   0.0000
   108 H45      1.2552   2.1607   1.9301   H         3 RES3   0.0000
   109 C57      1.6939   1.0910   3.5894   C.ar      3 RES3   0.0000
   110 H46      2.2149   0.4285   3.1502   H         3 RES3   0.0000
   111 C58      1.5004   1.0297   4.9531   C.ar      3 RES3   0.0000
   112 H47      1.8849   0.3204   5.4539   H         3 RES3   0.0000
   113 C59      0.7467   2.0009   5.5964   C.ar      3 RES3   0.0000
   114 H48      0.6195   1.9625   6.5376   H         3 RES3   0.0000
   115 C60      0.1833   3.0244   4.8620   C.ar      3 RES3   0.0000
   116 H49     -0.3358   3.6906   5.2974   H         3 RES3   0.0000
   117 C61      0.3712   3.0789   3.5081   C.ar      3 RES3   0.0000
   118 H50     -0.0203   3.7827   3.0054   H         3 RES3   0.0000
@<TRIPOS>BOND
     1     1     2   ar
     2     2     3    1
     3     4     2   ar
     4     5     4    1
     5     6     4   ar
     6     7     6    1
     7     8     6   ar
     8     9     8    1
     9    10     9   ar
    10    11    10    1
    11    12    10   ar
    12    13    12    1
    13    14    12   ar
    14    15    14    1
    15    16    14   ar
    16    17    16    1
    17    18     9   ar
    18    19    87    1
    19    20    87    1
    20    21    22   ar
    21    22    23    1
    22    24    22   ar
    23    25    24    1
    24    26    24   ar
    25    27    26    1
    26    28    26   ar
    27    29    28    1
    28    30    21   ar
    29    31    30    1
    30    32    33   ar
    31    33    34    1
    32    35    33   ar
    33    36    35    1
    34    37    35   ar
    35    38    37    1
    36    39    37   ar
    37    40    39    1
    38    41    32   ar
    39    42    41    1
    40    43    44   ar
    41    44    45    1
    42    46    44   ar
    43    47    46    1
    44    48    46   ar
    45    49    48    1
    46    50    48   ar
    47    51    50    1
    48    52    43   ar
    49    53    52    1
    50    54    55   ar
    51    55    56    1
    52    57    55   ar
    53    58    57    1
    54    59    57   ar
    55    60    59    1
    56    61    59   ar
    57    62    61    1
    58    63    54   ar
    59    64    63    1
    60    65    66   ar
    61    66    67    1
    62    68    66   ar
    63    69    68    1
    64    70    68   ar
    65    71    70    1
    66    72    70   ar
    67    73    72    1
    68    74    65   ar
    69    75    74    1
    70    76    77   ar
    71    77    78    1
    72    79    77   ar
    73    80    79    1
    74    81    79   ar
    75    82    81    1
    76    83    81   ar
    77    84    83    1
    78    85    76   ar
    79    86    85    1
    80    87    18    1
    81    88     1   ar
    82    89     1    1
    83    90    89    1
    84    91    19    2
    85    92    20    3
    86    93    21    1
    87    94    54    1
    88     8    88   ar
    89    16    18   ar
    90    19    89   am
    91    28    30   ar
    92    32    93    1
    93    39    41   ar
    94    43    93    1
    95    50    52   ar
    96    61    63   ar
    97    65    94    1
    98    72    74   ar
    99    76    94    1
   100    83    85   ar
   101    87    88    1
   102    87    93    1
   103    87    94    1
   104    95    96    1
   105    97    95   ar
   106    98    97    1
   107    99    97   ar
   108   100    99    1
   109   101    99   ar
   110   102   101    1
   111   103   101   ar
   112   104   103    1
   113   105    95   ar
   114   106   105    1
   115   103   105   ar
   116   107   108    1
   117   109   107   ar
   118   110   109    1
   119   111   109   ar
   120   112   111    1
   121   113   111   ar
   122   114   113    1
   123   115   113   ar
   124   116   115    1
   125   117   107   ar
   126   118   117    1
   127   115   117   ar
@<TRIPOS>SUBSTRUCTURE
     1 RES1        1 GROUP             0 ****  ****    0  
     2 RES2       95 GROUP             0 ****  ****    0  
     3 RES3      107 GROUP             0 ****  ****    0  
@<TRIPOS>CRYSIN
   14.1826   20.0251   17.0084   90.0000   98.3580   90.0000   231     1
