@<TRIPOS>MOLECULE
KAFJIO
   190   200     5     0     0
SMALL
USER_CHARGES
****
Generated from the CSD

@<TRIPOS>ATOM
     1 Fe1      5.8742  27.4084   5.5866   Fe        1 RES1   1.0000
     2 O1       4.4973  27.5501   4.2761   O.3       1 RES1   0.0000
     3 O2       5.6604  25.5291   5.4605   O.3       1 RES1   0.0000
     4 N1       5.9922  29.2771   5.8447   N.2       1 RES1   0.0000
     5 N2       7.3124  27.3082   6.8428   N.2       1 RES1   0.0000
     6 N3       4.4677  27.3640   7.0137   N.ar      1 RES1   0.0000
     7 N4      -0.6748  27.2540  11.9085   N.ar      1 RES1   0.0000
     8 C1       2.5387  28.4007   3.2546   C.3       1 RES1   0.0000
     9 H1       2.3871  27.4477   3.0843   H         1 RES1   0.0000
    10 H2       2.7363  28.8575   2.4093   H         1 RES1   0.0000
    11 H3       1.7349  28.7919   3.6577   H         1 RES1   0.0000
    12 C2       3.7050  28.5642   4.1999   C.2       1 RES1   0.0000
    13 C3       3.8436  29.7503   4.8874   C.2       1 RES1   0.0000
    14 H4       3.1157  30.3619   4.8655   H         1 RES1   0.0000
    15 C4       4.9824  30.1189   5.6170   C.2       1 RES1   0.0000
    16 C5       5.0355  31.5389   6.1686   C.3       1 RES1   0.0000
    17 H5       5.8549  31.9793   5.8592   H         1 RES1   0.0000
    18 H6       5.0305  31.5094   7.1482   H         1 RES1   0.0000
    19 H7       4.2558  32.0412   5.8529   H         1 RES1   0.0000
    20 C6       7.2636  29.7091   6.4561   C.3       1 RES1   0.0000
    21 H8       7.1020  30.4967   7.0357   H         1 RES1   0.0000
    22 H9       7.8998  29.9758   5.7451   H         1 RES1   0.0000
    23 C7       7.8476  28.6069   7.2607   C.3       1 RES1   0.0000
    24 H10      8.8313  28.6061   7.1545   H         1 RES1   0.0000
    25 H11      7.6420  28.7555   8.2185   H         1 RES1   0.0000
    26 C8       8.9392  26.2930   8.3951   C.3       1 RES1   0.0000
    27 H12      8.7096  26.9268   9.1060   H         1 RES1   0.0000
    28 H13      9.7533  26.5917   7.9388   H         1 RES1   0.0000
    29 H14      9.0913  25.4078   8.7857   H         1 RES1   0.0000
    30 C9       7.7933  26.2169   7.3935   C.2       1 RES1   0.0000
    31 C10      7.2899  24.9237   7.0795   C.2       1 RES1   0.0000
    32 H15      7.6879  24.1875   7.5295   H         1 RES1   0.0000
    33 C11      6.2848  24.6334   6.1904   C.2       1 RES1   0.0000
    34 C12      5.8208  23.2299   5.9639   C.3       1 RES1   0.0000
    35 H16      5.7272  23.0692   5.0030   H         1 RES1   0.0000
    36 H17      4.9557  23.0984   6.4045   H         1 RES1   0.0000
    37 H18      6.4761  22.6066   6.3389   H         1 RES1   0.0000
    38 C13      3.3888  26.5713   6.8357   C.ar      1 RES1   0.0000
    39 H19      3.3588  26.0198   6.0639   H         1 RES1   0.0000
    40 C14      4.4887  28.1253   8.1373   C.ar      1 RES1   0.0000
    41 H20      5.2462  28.6753   8.2982   H         1 RES1   0.0000
    42 C15      3.4692  28.1337   9.0435   C.ar      1 RES1   0.0000
    43 H21      3.5227  28.6972   9.8060   H         1 RES1   0.0000
    44 C16      2.3391  26.5250   7.7091   C.ar      1 RES1   0.0000
    45 H22      1.6032  25.9506   7.5326   H         1 RES1   0.0000
    46 C17      2.3408  27.3173   8.8622   C.ar      1 RES1   0.0000
    47 C18      1.2570  27.3082   9.8450   C.ar      1 RES1   0.0000
    48 C19      0.4015  26.2205  10.0309   C.ar      1 RES1   0.0000
    49 H23      0.4682  25.4661   9.4560   H         1 RES1   0.0000
    50 C20      1.0585  28.3981  10.7028   C.ar      1 RES1   0.0000
    51 H24      1.5711  29.1890  10.5919   H         1 RES1   0.0000
    52 C21      0.1241  28.3242  11.7059   C.ar      1 RES1   0.0000
    53 H25      0.0339  29.0687  12.2903   H         1 RES1   0.0000
    54 C22     -0.5384  26.2256  11.0372   C.ar      1 RES1   0.0000
    55 H26     -1.1153  25.4770  11.1247   H         1 RES1   0.0000
    56 Fe1C    -2.0055  27.2321  13.3988   Fe        1 RES1   1.0000
    57 N4C      7.2050  27.3865   4.0963   N.3       1 RES1   0.0000
    58 N5      -1.5458  18.1053  13.0652   N.ar      2 RES2   0.0000
    59 C23     -2.1006  19.2531  13.4840   C.ar      2 RES2   0.0000
    60 H27     -1.8037  20.0603  13.0793   H         2 RES2   0.0000
    61 C24     -3.0573  19.3442  14.4464   C.ar      2 RES2   0.0000
    62 H28     -3.4004  20.1951  14.6902   H         2 RES2   0.0000
    63 C25     -3.5440  18.1931  15.0824   C.ar      2 RES2   0.0000
    64 C26     -2.9877  16.9994  14.6214   C.ar      2 RES2   0.0000
    65 H29     -3.2815  16.1736  14.9917   H         2 RES2   0.0000
    66 C27     -2.0187  16.9990  13.6387   C.ar      2 RES2   0.0000
    67 H30     -1.6698  16.1627  13.3543   H         2 RES2   0.0000
    68 N5B     -6.5375  18.3217  18.1838   N.ar      2 RES2   0.0000
    69 C23B    -5.9827  17.1739  17.7651   C.ar      2 RES2   0.0000
    70 H27B    -6.2796  16.3667  18.1698   H         2 RES2   0.0000
    71 C24B    -5.0260  17.0828  16.8026   C.ar      2 RES2   0.0000
    72 H28B    -4.6829  16.2319  16.5589   H         2 RES2   0.0000
    73 C25B    -4.5393  18.2339  16.1667   C.ar      2 RES2   0.0000
    74 C26B    -5.0956  19.4276  16.6276   C.ar      2 RES2   0.0000
    75 H29B    -4.8018  20.2534  16.2573   H         2 RES2   0.0000
    76 C27B    -6.0646  19.4280  17.6104   C.ar      2 RES2   0.0000
    77 H30B    -6.4135  20.2643  17.8948   H         2 RES2   0.0000
    78 N6       0.7161  17.7673  11.3153   N.4       3 RES3   1.0000
    79 H31     -0.0464  17.8929  11.9481   H         3 RES3   0.0000
    80 C28      1.7367  16.9393  12.0403   C.3       3 RES3   0.0000
    81 H32      1.3159  16.0898  12.3215   H         3 RES3   0.0000
    82 H33      2.0147  17.4230  12.8590   H         3 RES3   0.0000
    83 C29      2.9593  16.6282  11.2231   C.3       3 RES3   0.0000
    84 H34      3.4561  17.4558  11.0512   H         3 RES3   0.0000
    85 H35      2.6886  16.2246  10.3716   H         3 RES3   0.0000
    86 H36      3.5292  15.9987  11.7153   H         3 RES3   0.0000
    87 C30      1.1896  19.1358  10.9434   C.3       3 RES3   0.0000
    88 H37      0.4781  19.5904  10.4278   H         3 RES3   0.0000
    89 H38      1.9821  19.0550  10.3575   H         3 RES3   0.0000
    90 C31      1.5492  19.9831  12.1309   C.3       3 RES3   0.0000
    91 H39      2.3315  19.6014  12.5809   H         3 RES3   0.0000
    92 H40      0.7938  20.0094  12.7543   H         3 RES3   0.0000
    93 H41      1.7553  20.8945  11.8325   H         3 RES3   0.0000
    94 C32      0.1559  17.0453  10.1106   C.3       3 RES3   0.0000
    95 H42      0.7567  17.1899   9.3372   H         3 RES3   0.0000
    96 H43      0.1320  16.0752  10.2981   H         3 RES3   0.0000
    97 C33     -1.2296  17.5134   9.7544   C.3       3 RES3   0.0000
    98 H44     -1.2388  18.4903   9.6950   H         3 RES3   0.0000
    99 H45     -1.8609  17.2227  10.4466   H         3 RES3   0.0000
   100 H46     -1.4916  17.1316   8.8919   H         3 RES3   0.0000
   101 C34      0.7720  23.2175   6.4514   C.ar      4 RES4   0.0000
   102 C35     -0.3611  24.0447   6.5014   C.ar      4 RES4   0.0000
   103 H47     -1.0551  23.8415   7.1185   H         4 RES4   0.0000
   104 C36     -0.4952  25.1645   5.6608   C.ar      4 RES4   0.0000
   105 H48     -1.2815  25.6956   5.7108   H         4 RES4   0.0000
   106 C37      0.4901  25.5011   4.7733   C.ar      4 RES4   0.0000
   107 H49      0.3950  26.2639   4.2171   H         4 RES4   0.0000
   108 C38      1.6361  24.7110   4.6920   C.ar      4 RES4   0.0000
   109 H50      2.3249  24.9306   4.0764   H         4 RES4   0.0000
   110 C39      1.7609  23.5970   5.5233   C.ar      4 RES4   0.0000
   111 H51      2.5492  23.0692   5.4608   H         4 RES4   0.0000
   112 C40      0.7638  20.5106   6.4514   C.ar      4 RES4   0.0000
   113 C41      0.9375  20.4392   5.0686   C.ar      4 RES4   0.0000
   114 H52      1.1636  21.2297   4.5889   H         4 RES4   0.0000
   115 C42      0.7858  19.2393   4.3686   C.ar      4 RES4   0.0000
   116 H53      0.8874  19.2371   3.4233   H         4 RES4   0.0000
   117 C43      0.4943  18.0594   5.0108   C.ar      4 RES4   0.0000
   118 H54      0.4153  17.2445   4.5280   H         4 RES4   0.0000
   119 C44      0.3215  18.0944   6.3857   C.ar      4 RES4   0.0000
   120 H55      0.1080  17.2992   6.8576   H         4 RES4   0.0000
   121 C45      0.4584  19.2928   7.0748   C.ar      4 RES4   0.0000
   122 H56      0.3385  19.2881   8.0185   H         4 RES4   0.0000
   123 C46     -0.1855  21.9094   8.5451   C.ar      4 RES4   0.0000
   124 C47     -1.5477  21.6395   8.2435   C.ar      4 RES4   0.0000
   125 H57     -1.7623  21.3462   7.3654   H         4 RES4   0.0000
   126 C48     -2.5797  21.7757   9.1528   C.ar      4 RES4   0.0000
   127 H58     -3.4711  21.5794   8.8888   H         4 RES4   0.0000
   128 C49     -2.3188  22.2008  10.4591   C.ar      4 RES4   0.0000
   129 H59     -3.0137  22.3079  11.0981   H         4 RES4   0.0000
   130 C50     -0.9631  22.4645  10.7809   C.ar      4 RES4   0.0000
   131 H60     -0.7458  22.7450  11.6621   H         4 RES4   0.0000
   132 C51      0.0385  22.3257   9.8622   C.ar      4 RES4   0.0000
   133 H61      0.9287  22.5192  10.1309   H         4 RES4   0.0000
   134 C52      2.4596  21.8402   8.0404   C.ar      4 RES4   0.0000
   135 C53      3.2555  20.6858   8.1482   C.ar      4 RES4   0.0000
   136 H62      2.9501  19.8819   7.7435   H         4 RES4   0.0000
   137 C54      4.4741  20.6738   8.8279   C.ar      4 RES4   0.0000
   138 H63      4.9768  19.8709   8.8779   H         4 RES4   0.0000
   139 C55      4.9560  21.8154   9.4294   C.ar      4 RES4   0.0000
   140 H64      5.7704  21.7979   9.9185   H         4 RES4   0.0000
   141 C56      4.2407  22.9792   9.3091   C.ar      4 RES4   0.0000
   142 H65      4.5820  23.7832   9.6794   H         4 RES4   0.0000
   143 C57      3.0083  22.9873   8.6419   C.ar      4 RES4   0.0000
   144 H66      2.5224  23.8014   8.5951   H         4 RES4   0.0000
   145 B1       0.9672  21.8664   7.3685   B         4 RES4  -1.0000
   146 C58     -2.1122  32.0638   8.5779   C.ar      5 RES5   0.0000
   147 C59     -2.4490  31.0278   9.4810   C.ar      5 RES5   0.0000
   148 H67     -1.7786  30.3874   9.6888   H         5 RES5   0.0000
   149 C60     -3.6520  30.8846  10.0638   C.ar      5 RES5   0.0000
   150 H68     -3.7974  30.1652  10.6669   H         5 RES5   0.0000
   151 C61     -4.7057  31.7942   9.7888   C.ar      5 RES5   0.0000
   152 H69     -5.5535  31.7170  10.2122   H         5 RES5   0.0000
   153 C62     -4.4313  32.8094   8.8638   C.ar      5 RES5   0.0000
   154 H70     -5.1152  33.4291   8.6310   H         5 RES5   0.0000
   155 C63     -3.1846  32.9253   8.2841   C.ar      5 RES5   0.0000
   156 H71     -3.0432  33.6221   7.6560   H         5 RES5   0.0000
   157 C64     -0.2146  33.5784   7.2529   C.ar      5 RES5   0.0000
   158 C65     -0.6277  34.8016   7.7857   C.ar      5 RES5   0.0000
   159 H72     -1.2108  34.7987   8.5357   H         5 RES5   0.0000
   160 C66     -0.2177  36.0299   7.2607   C.ar      5 RES5   0.0000
   161 H73     -0.5335  36.8386   7.6435   H         5 RES5   0.0000
   162 C67      0.6383  36.0642   6.1936   C.ar      5 RES5   0.0000
   163 H74      0.9273  36.8969   5.8373   H         5 RES5   0.0000
   164 C68      1.0806  34.8748   5.6389   C.ar      5 RES5   0.0000
   165 H75      1.6772  34.8898   4.8999   H         5 RES5   0.0000
   166 C69      0.6554  33.6702   6.1592   C.ar      5 RES5   0.0000
   167 H76      0.9655  32.8681   5.7576   H         5 RES5   0.0000
   168 C70      0.5314  31.9042   9.1029   C.ar      5 RES5   0.0000
   169 C71      0.3120  32.0219  10.4856   C.ar      5 RES5   0.0000
   170 H77     -0.5742  32.1505  10.7997   H         5 RES5   0.0000
   171 C72      1.3613  31.9570  11.4168   C.ar      5 RES5   0.0000
   172 H78      1.1724  32.0485  12.3418   H         5 RES5   0.0000
   173 C73      2.6471  31.7625  11.0122   C.ar      5 RES5   0.0000
   174 H79      3.3462  31.7170  11.6528   H         5 RES5   0.0000
   175 C74      2.9358  31.6310   9.6513   C.ar      5 RES5   0.0000
   176 H80      3.8278  31.5057   9.3513   H         5 RES5   0.0000
   177 C75      1.8661  31.6893   8.7404   C.ar      5 RES5   0.0000
   178 H81      2.0612  31.5749   7.8185   H         5 RES5   0.0000
   179 C76     -0.5786  30.9451   6.8076   C.ar      5 RES5   0.0000
   180 C77     -0.0595  29.6793   7.0248   C.ar      5 RES5   0.0000
   181 H82      0.3740  29.4986   7.8498   H         5 RES5   0.0000
   182 C78     -0.1501  28.6637   6.0795   C.ar      5 RES5   0.0000
   183 H83      0.2284  27.8120   6.2607   H         5 RES5   0.0000
   184 C79     -0.7872  28.8943   4.8780   C.ar      5 RES5   0.0000
   185 H84     -0.8641  28.1981   4.2374   H         5 RES5   0.0000
   186 C80     -1.3134  30.1426   4.6108   C.ar      5 RES5   0.0000
   187 H85     -1.7303  30.3218   3.7764   H         5 RES5   0.0000
   188 C81     -1.2230  31.1389   5.5842   C.ar      5 RES5   0.0000
   189 H86     -1.6168  31.9865   5.4076   H         5 RES5   0.0000
   190 B2      -0.6057  32.1333   7.9451   B         5 RES5  -1.0000
@<TRIPOS>BOND
     1     1     2    1
     2     2    12    1
     3     3     1    1
     4     4     1    1
     5     5     1    1
     6     6     1    1
     7     7    52   ar
     8     8     9    1
     9    10     8    1
    10    11     8    1
    11    12     8    1
    12    13    12    2
    13    14    13    1
    14    15     4    2
    15    16    15    1
    16    17    16    1
    17    18    16    1
    18    19    16    1
    19    20     4    1
    20    21    20    1
    21    22    20    1
    22    23     5    1
    23    24    23    1
    24    25    23    1
    25    26    27    1
    26    28    26    1
    27    29    26    1
    28    30     5    2
    29    31    30    1
    30    32    31    1
    31    33     3    1
    32    34    33    1
    33    35    34    1
    34    36    34    1
    35    37    34    1
    36    38     6   ar
    37    39    38    1
    38    40     6   ar
    39    41    40    1
    40    42    40   ar
    41    43    42    1
    42    44    38   ar
    43    45    44    1
    44    46    42   ar
    45    47    46    1
    46    48    47   ar
    47    49    48    1
    48    50    47   ar
    49    51    50    1
    50    52    50   ar
    51    53    52    1
    52    54     7   ar
    53    55    54    1
    54    56     7   un
    55    57     1   un
    56    13    15    1
    57    20    23    1
    58    26    30    1
    59    31    33    2
    60    44    46   ar
    61    48    54   ar
    62    58    59   ar
    63    59    60    1
    64    61    59   ar
    65    62    61    1
    66    63    61   ar
    67    64    63   ar
    68    65    64    1
    69    66    58   ar
    70    67    66    1
    71    68    69   ar
    72    69    70    1
    73    71    69   ar
    74    72    71    1
    75    73    63    1
    76    74    73   ar
    77    75    74    1
    78    76    68   ar
    79    77    76    1
    80    64    66   ar
    81    71    73   ar
    82    74    76   ar
    83    78    79    1
    84    80    78    1
    85    81    80    1
    86    82    80    1
    87    83    80    1
    88    84    83    1
    89    85    83    1
    90    86    83    1
    91    87    78    1
    92    88    87    1
    93    89    87    1
    94    90    87    1
    95    91    90    1
    96    92    90    1
    97    93    90    1
    98    94    78    1
    99    95    94    1
   100    96    94    1
   101    97    94    1
   102    98    97    1
   103    99    97    1
   104   100    97    1
   105   101   102   ar
   106   102   103    1
   107   104   102   ar
   108   105   104    1
   109   106   104   ar
   110   107   106    1
   111   108   106   ar
   112   109   108    1
   113   110   101   ar
   114   111   110    1
   115   112   113   ar
   116   113   114    1
   117   115   113   ar
   118   116   115    1
   119   117   115   ar
   120   118   117    1
   121   119   117   ar
   122   120   119    1
   123   121   112   ar
   124   122   121    1
   125   123   124   ar
   126   124   125    1
   127   126   124   ar
   128   127   126    1
   129   128   126   ar
   130   129   128    1
   131   130   128   ar
   132   131   130    1
   133   132   123   ar
   134   133   132    1
   135   134   135   ar
   136   135   136    1
   137   137   135   ar
   138   138   137    1
   139   139   137   ar
   140   140   139    1
   141   141   139   ar
   142   142   141    1
   143   143   134   ar
   144   144   143    1
   145   145   101    1
   146   108   110   ar
   147   112   145    1
   148   119   121   ar
   149   123   145    1
   150   130   132   ar
   151   134   145    1
   152   141   143   ar
   153   146   147   ar
   154   147   148    1
   155   149   147   ar
   156   150   149    1
   157   151   149   ar
   158   152   151    1
   159   153   151   ar
   160   154   153    1
   161   155   146   ar
   162   156   155    1
   163   157   158   ar
   164   158   159    1
   165   160   158   ar
   166   161   160    1
   167   162   160   ar
   168   163   162    1
   169   164   162   ar
   170   165   164    1
   171   166   157   ar
   172   167   166    1
   173   168   169   ar
   174   169   170    1
   175   171   169   ar
   176   172   171    1
   177   173   171   ar
   178   174   173    1
   179   175   173   ar
   180   176   175    1
   181   177   168   ar
   182   178   177    1
   183   179   180   ar
   184   180   181    1
   185   182   180   ar
   186   183   182    1
   187   184   182   ar
   188   185   184    1
   189   186   184   ar
   190   187   186    1
   191   188   179   ar
   192   189   188    1
   193   190   146    1
   194   153   155   ar
   195   157   190    1
   196   164   166   ar
   197   168   190    1
   198   175   177   ar
   199   179   190    1
   200   186   188   ar
@<TRIPOS>SUBSTRUCTURE
     1 RES1        1 GROUP             0 ****  ****    0  
     2 RES2       58 GROUP             0 ****  ****    0  
     3 RES3       78 GROUP             0 ****  ****    0  
     4 RES4      101 GROUP             0 ****  ****    0  
     5 RES5      146 GROUP             0 ****  ****    0  
@<TRIPOS>CRYSIN
   11.7178   36.4270   16.1388   90.0000  104.5030   90.0000   231     1
