@<TRIPOS>MOLECULE
KAFJEK01
   102   109     2     0     0
SMALL
USER_CHARGES
****
Generated from the CSD

@<TRIPOS>ATOM
     1 Fe1      7.4847   2.1473  13.0210   Fe        1 RES1   1.0000
     2 O1       6.3047   3.4238  12.1854   O.3       1 RES1   0.0000
     3 O2       6.4024   0.5856  12.7401   O.3       1 RES1   0.0000
     4 N1       8.8545   3.5980  13.3652   N.2       1 RES1   0.0000
     5 N2       8.8036   1.0429  14.1158   N.2       1 RES1   0.0000
     6 N3       6.3134   2.5836  14.8307   N.ar      1 RES1   0.0000
     7 N4       6.2691   5.2427  20.2905   N.ar      1 RES1   0.0000
     8 C1       5.3508   5.3872  11.2659   C.3       1 RES1   0.0000
     9 H1       4.5229   5.2531  11.7339   H         1 RES1   0.0000
    10 H2       5.2812   5.0200  10.3815   H         1 RES1   0.0000
    11 H3       5.5362   6.3270  11.2084   H         1 RES1   0.0000
    12 C2       6.4715   4.6953  12.0132   C.2       1 RES1   0.0000
    13 C3       7.5702   5.3774  12.3904   C.2       1 RES1   0.0000
    14 H4       7.5484   6.2976  12.2594   H         1 RES1   0.0000
    15 C4       8.7598   4.8528  12.9646   C.2       1 RES1   0.0000
    16 C5       9.9203   5.7991  13.0671   C.3       1 RES1   0.0000
    17 H5      10.6857   5.4151  12.6342   H         1 RES1   0.0000
    18 H6      10.1226   5.9583  13.9921   H         1 RES1   0.0000
    19 H7       9.6951   6.6286  12.6416   H         1 RES1   0.0000
    20 C6      10.1373   3.0738  13.8249   C.3       1 RES1   0.0000
    21 H8      10.5902   3.7437  14.3614   H         1 RES1   0.0000
    22 H9      10.6987   2.8695  13.0605   H         1 RES1   0.0000
    23 C7       9.9267   1.8332  14.6426   C.3       1 RES1   0.0000
    24 H10     10.7337   1.2958  14.6297   H         1 RES1   0.0000
    25 H11      9.7454   2.0792  15.5631   H         1 RES1   0.0000
    26 C8       9.6012  -0.8476  15.4733   C.3       1 RES1   0.0000
    27 H12      9.5915  -0.3938  16.3201   H         1 RES1   0.0000
    28 H13     10.4833  -0.8015  15.0964   H         1 RES1   0.0000
    29 H14      9.3544  -1.7664  15.5999   H         1 RES1   0.0000
    30 C9       8.6163  -0.1853  14.5358   C.2       1 RES1   0.0000
    31 C10      7.4995  -0.9498  14.1547   C.2       1 RES1   0.0000
    32 H15      7.4498  -1.8097  14.5066   H         1 RES1   0.0000
    33 C11      6.4846  -0.5767  13.3308   C.2       1 RES1   0.0000
    34 C12      5.3307  -1.4927  13.0403   C.3       1 RES1   0.0000
    35 H16      5.2789  -1.6505  12.0940   H         1 RES1   0.0000
    36 H17      4.5161  -1.0850  13.3417   H         1 RES1   0.0000
    37 H18      5.4616  -2.3264  13.4978   H         1 RES1   0.0000
    38 C13      5.0934   2.0351  14.9428   C.ar      1 RES1   0.0000
    39 H19      4.8026   1.4536  14.2769   H         1 RES1   0.0000
    40 C14      4.2573   2.2977  16.0012   C.ar      1 RES1   0.0000
    41 H20      3.4274   1.8823  16.0556   H         1 RES1   0.0000
    42 C15      4.6570   3.1762  16.9748   C.ar      1 RES1   0.0000
    43 H21      4.0916   3.3806  17.6854   H         1 RES1   0.0000
    44 C16      5.9208   3.7614  16.8905   C.ar      1 RES1   0.0000
    45 C17      6.3960   4.6811  17.9533   C.ar      1 RES1   0.0000
    46 C18      5.9668   4.4553  19.2503   C.ar      1 RES1   0.0000
    47 H22      5.4346   3.7088  19.4089   H         1 RES1   0.0000
    48 C19      7.0643   6.2890  20.0465   C.ar      1 RES1   0.0000
    49 H23      7.2886   6.8492  20.7539   H         1 RES1   0.0000
    50 C20      7.5650   6.5768  18.8000   C.ar      1 RES1   0.0000
    51 H24      8.1316   7.3044  18.6757   H         1 RES1   0.0000
    52 C21      7.2182   5.7718  17.7315   C.ar      1 RES1   0.0000
    53 H25      7.5323   5.9597  16.8769   H         1 RES1   0.0000
    54 C22      6.7060   3.4309  15.7976   C.ar      1 RES1   0.0000
    55 H26      7.5504   3.8163  15.7285   H         1 RES1   0.0000
    56 Fe1C     5.2974   4.8345  22.2082   Fe        1 RES1   1.0000
    57 N4C      8.4565   1.7392  11.1033   N.3       1 RES1   0.0000
    58 C23     14.1328   1.3973  17.4132   C.ar      2 RES2   0.0000
    59 C24     15.1598   0.6687  18.0181   C.ar      2 RES2   0.0000
    60 H27     15.9883   1.0752  18.1355   H         2 RES2   0.0000
    61 C25     14.9894  -0.6460  18.4518   C.ar      2 RES2   0.0000
    62 H28     15.6995  -1.0962  18.8485   H         2 RES2   0.0000
    63 C26     13.7904  -1.2781  18.3000   C.ar      2 RES2   0.0000
    64 H29     13.6793  -2.1546  18.5912   H         2 RES2   0.0000
    65 C27     12.7505  -0.6048  17.7124   C.ar      2 RES2   0.0000
    66 H30     11.9281  -1.0235  17.6008   H         2 RES2   0.0000
    67 C28     12.9298   0.7098  17.2813   C.ar      2 RES2   0.0000
    68 H31     12.2113   1.1478  16.8861   H         2 RES2   0.0000
    69 C29     14.8230   2.5985  15.2221   C.ar      2 RES2   0.0000
    70 C30     16.1223   2.2286  14.8743   C.ar      2 RES2   0.0000
    71 H32     16.7681   2.2035  15.5429   H         2 RES2   0.0000
    72 C31     16.4977   1.8963  13.5849   C.ar      2 RES2   0.0000
    73 H33     17.3801   1.6617  13.4078   H         2 RES2   0.0000
    74 C32     15.5780   1.9116  12.5663   C.ar      2 RES2   0.0000
    75 H34     15.8303   1.7078  11.6953   H         2 RES2   0.0000
    76 C33     14.2771   2.2350  12.8636   C.ar      2 RES2   0.0000
    77 H35     13.6354   2.2314  12.1914   H         2 RES2   0.0000
    78 C34     13.9143   2.5661  14.1600   C.ar      2 RES2   0.0000
    79 H36     13.0252   2.7760  14.3320   H         2 RES2   0.0000
    80 C35     13.0752   3.8774  16.8558   C.ar      2 RES2   0.0000
    81 C36     12.9645   4.9709  15.9793   C.ar      2 RES2   0.0000
    82 H37     13.6007   5.0646  15.3077   H         2 RES2   0.0000
    83 C37     11.9533   5.9167  16.0684   C.ar      2 RES2   0.0000
    84 H38     11.9267   6.6328  15.4749   H         2 RES2   0.0000
    85 C38     10.9889   5.7866  17.0448   C.ar      2 RES2   0.0000
    86 H39     10.2972   6.4065  17.1066   H         2 RES2   0.0000
    87 C39     11.0572   4.7379  17.9228   C.ar      2 RES2   0.0000
    88 H40     10.4097   4.6471  18.5839   H         2 RES2   0.0000
    89 C40     12.0971   3.7990  17.8324   C.ar      2 RES2   0.0000
    90 H41     12.1304   3.1027  18.4479   H         2 RES2   0.0000
    91 C41     15.5513   3.7134  17.6242   C.ar      2 RES2   0.0000
    92 C42     16.4679   4.5864  17.0325   C.ar      2 RES2   0.0000
    93 H42     16.4779   4.6597  16.1052   H         2 RES2   0.0000
    94 C43     17.3688   5.3524  17.7717   C.ar      2 RES2   0.0000
    95 H43     17.9525   5.9290  17.3344   H         2 RES2   0.0000
    96 C44     17.3987   5.2601  19.1401   C.ar      2 RES2   0.0000
    97 H44     18.0110   5.7544  19.6367   H         2 RES2   0.0000
    98 C45     16.5080   4.4251  19.7598   C.ar      2 RES2   0.0000
    99 H45     16.5119   4.3539  20.6877   H         2 RES2   0.0000
   100 C46     15.5981   3.6829  19.0149   C.ar      2 RES2   0.0000
   101 H46     14.9918   3.1404  19.4677   H         2 RES2   0.0000
   102 B1      14.3950   2.8933  16.7784   B         2 RES2  -1.0000
@<TRIPOS>BOND
     1     1     2    1
     2     2    12    1
     3     3     1    1
     4     4     1    1
     5     5     1    1
     6     6     1    1
     7     7    46   ar
     8     8     9    1
     9    10     8    1
    10    11     8    1
    11    12     8    1
    12    13    12    2
    13    14    13    1
    14    15     4    2
    15    16    15    1
    16    17    16    1
    17    18    16    1
    18    19    16    1
    19    20     4    1
    20    21    20    1
    21    22    20    1
    22    23     5    1
    23    24    23    1
    24    25    23    1
    25    26    27    1
    26    28    26    1
    27    29    26    1
    28    30     5    2
    29    31    30    1
    30    32    31    1
    31    33     3    1
    32    34    33    1
    33    35    34    1
    34    36    34    1
    35    37    34    1
    36    38     6   ar
    37    39    38    1
    38    40    38   ar
    39    41    40    1
    40    42    40   ar
    41    43    42    1
    42    44    42   ar
    43    45    44    1
    44    46    45   ar
    45    47    46    1
    46    48     7   ar
    47    49    48    1
    48    50    48   ar
    49    51    50    1
    50    52    45   ar
    51    53    52    1
    52    54     6   ar
    53    55    54    1
    54    56     7   un
    55    57     1   un
    56    13    15    1
    57    20    23    1
    58    26    30    1
    59    31    33    2
    60    44    54   ar
    61    50    52   ar
    62    58    59   ar
    63    59    60    1
    64    61    59   ar
    65    62    61    1
    66    63    61   ar
    67    64    63    1
    68    65    63   ar
    69    66    65    1
    70    67    58   ar
    71    68    67    1
    72    69    70   ar
    73    70    71    1
    74    72    70   ar
    75    73    72    1
    76    74    72   ar
    77    75    74    1
    78    76    74   ar
    79    77    76    1
    80    78    69   ar
    81    79    78    1
    82    80    81   ar
    83    81    82    1
    84    83    81   ar
    85    84    83    1
    86    85    83   ar
    87    86    85    1
    88    87    85   ar
    89    88    87    1
    90    89    80   ar
    91    90    89    1
    92    91    92   ar
    93    92    93    1
    94    94    92   ar
    95    95    94    1
    96    96    94   ar
    97    97    96    1
    98    98    96   ar
    99    99    98    1
   100   100    91   ar
   101   101   100    1
   102   102    58    1
   103    65    67   ar
   104    69   102    1
   105    76    78   ar
   106    80   102    1
   107    87    89   ar
   108    91   102    1
   109    98   100   ar
@<TRIPOS>SUBSTRUCTURE
     1 RES1        1 GROUP             0 ****  ****    0  
     2 RES2       58 GROUP             0 ****  ****    0  
@<TRIPOS>CRYSIN
   15.4749   13.9637   18.8880   90.0000  103.3920   90.0000    14     1
