@<TRIPOS>MOLECULE
KAFJEK
   102   109     2     0     0
SMALL
USER_CHARGES
****
Generated from the CSD

@<TRIPOS>ATOM
     1 Fe1      1.9406   4.7473   3.7866   Fe        1 RES1   1.0000
     2 O1       0.6698   3.6268   2.8997   O.3       1 RES1   0.0000
     3 O2       0.7631   6.1901   3.4048   O.3       1 RES1   0.0000
     4 N1       3.2035   3.3420   4.0765   N.2       1 RES1   0.0000
     5 N2       3.1383   5.8330   4.8246   N.2       1 RES1   0.0000
     6 N3       2.8925   5.1572   2.0206   N.ar      1 RES1   0.0000
     7 N4       2.9985   2.6384  -3.5282   N.ar      1 RES1   0.0000
     8 C1      -0.3769   1.6897   2.0174   C.3       1 RES1   0.0000
     9 H1      -0.4860   2.0986   1.1330   H         1 RES1   0.0000
    10 H2      -1.1972   1.8123   2.5393   H         1 RES1   0.0000
    11 H3      -0.1966   0.7324   1.9135   H         1 RES1   0.0000
    12 C2       0.7817   2.3472   2.7382   C.2       1 RES1   0.0000
    13 C3       1.8830   1.5988   3.0914   C.2       1 RES1   0.0000
    14 H4       1.8335   0.6629   2.9367   H         1 RES1   0.0000
    15 C4       3.0859   2.0934   3.6645   C.2       1 RES1   0.0000
    16 C5       4.2390   1.1314   3.7677   C.3       1 RES1   0.0000
    17 H5       4.4318   0.9520   4.7117   H         1 RES1   0.0000
    18 H6       5.0299   1.5232   3.3414   H         1 RES1   0.0000
    19 H7       4.0068   0.2932   3.3162   H         1 RES1   0.0000
    20 C6       4.5085   3.8373   4.5380   C.3       1 RES1   0.0000
    21 H8       5.0863   4.0387   3.7604   H         1 RES1   0.0000
    22 H9       4.9563   3.1465   5.0876   H         1 RES1   0.0000
    23 C7       4.2945   5.0935   5.3606   C.3       1 RES1   0.0000
    24 H10      4.1301   4.8517   6.3069   H         1 RES1   0.0000
    25 H11      5.1046   5.6620   5.3213   H         1 RES1   0.0000
    26 C8       3.9053   7.7782   6.1304   C.3       1 RES1   0.0000
    27 H12      4.8007   7.7494   5.7314   H         1 RES1   0.0000
    28 H13      3.9211   7.3283   7.0010   H         1 RES1   0.0000
    29 H14      3.6308   8.7111   6.2493   H         1 RES1   0.0000
    30 C9       2.9235   7.0759   5.2172   C.2       1 RES1   0.0000
    31 C10      1.7789   7.8043   4.8165   C.2       1 RES1   0.0000
    32 H15      1.6839   8.6847   5.1613   H         1 RES1   0.0000
    33 C11      0.7901   7.3501   3.9713   C.2       1 RES1   0.0000
    34 C12     -0.4178   8.2028   3.6733   C.3       1 RES1   0.0000
    35 H16     -1.2000   7.8314   4.1308   H         1 RES1   0.0000
    36 H17     -0.5783   8.2136   2.7065   H         1 RES1   0.0000
    37 H18     -0.2583   9.1170   3.9888   H         1 RES1   0.0000
    38 C13      2.6579   4.3582   0.9679   C.ar      1 RES1   0.0000
    39 H19      2.1679   3.5578   1.1150   H         1 RES1   0.0000
    40 C14      3.6458   6.2528   1.8041   C.ar      1 RES1   0.0000
    41 H20      3.8279   6.8322   2.5357   H         1 RES1   0.0000
    42 C15      4.1646   6.5702   0.5593   C.ar      1 RES1   0.0000
    43 H21      4.7151   7.3366   0.4514   H         1 RES1   0.0000
    44 C16      3.8764   5.7634  -0.5271   C.ar      1 RES1   0.0000
    45 H22      4.2083   5.9774  -1.3919   H         1 RES1   0.0000
    46 C17      3.0903   4.6316  -0.3268   C.ar      1 RES1   0.0000
    47 C18      2.6233   3.7395  -1.4171   C.ar      1 RES1   0.0000
    48 C19      1.3348   3.2080  -1.3639   C.ar      1 RES1   0.0000
    49 H23      0.7645   3.3980  -0.6276   H         1 RES1   0.0000
    50 C20      0.9008   2.4000  -2.4001   C.ar      1 RES1   0.0000
    51 H24      0.0322   2.0152  -2.3756   H         1 RES1   0.0000
    52 C21      1.7409   2.1586  -3.4694   C.ar      1 RES1   0.0000
    53 H25      1.4189   1.6330  -4.1920   H         1 RES1   0.0000
    54 C22      3.4189   3.4173  -2.5143   C.ar      1 RES1   0.0000
    55 H26      4.3021   3.7649  -2.5483   H         1 RES1   0.0000
    56 Fe1C     4.0914   2.2016  -5.2052   Fe        1 RES1   1.0000
    57 N4C      0.8477   4.3105   5.4636   N.3       1 RES1   0.0000
    58 C23      9.8921   3.2461   8.2115   C.ar      2 RES2   0.0000
    59 C24     10.8347   2.4029   7.6098   C.ar      2 RES2   0.0000
    60 H27     10.8621   2.3487   6.6611   H         2 RES2   0.0000
    61 C25     11.7386   1.6356   8.3582   C.ar      2 RES2   0.0000
    62 H28     12.3480   1.0604   7.9110   H         2 RES2   0.0000
    63 C26     11.7536   1.7066   9.7293   C.ar      2 RES2   0.0000
    64 H29     12.3867   1.2105  10.2345   H         2 RES2   0.0000
    65 C27     10.8252   2.5188  10.3571   C.ar      2 RES2   0.0000
    66 H30     10.8093   2.5725  11.3063   H         2 RES2   0.0000
    67 C28      9.9163   3.2546   9.6104   C.ar      2 RES2   0.0000
    68 H31      9.2801   3.7899  10.0708   H         2 RES2   0.0000
    69 C29      7.4178   3.0734   7.4369   C.ar      2 RES2   0.0000
    70 C30      7.3367   1.9706   6.5653   C.ar      2 RES2   0.0000
    71 H32      7.9929   1.8776   5.8842   H         2 RES2   0.0000
    72 C31      6.3279   1.0069   6.6617   C.ar      2 RES2   0.0000
    73 H33      6.3175   0.2696   6.0623   H         2 RES2   0.0000
    74 C32      5.3471   1.1277   7.6268   C.ar      2 RES2   0.0000
    75 H34      4.6518   0.4836   7.6898   H         2 RES2   0.0000
    76 C33      5.3896   2.2041   8.5057   C.ar      2 RES2   0.0000
    77 H35      4.7209   2.2973   9.1734   H         2 RES2   0.0000
    78 C34      6.4134   3.1480   8.4084   C.ar      2 RES2   0.0000
    79 H36      6.4288   3.8691   9.0260   H         2 RES2   0.0000
    80 C35      8.4680   5.5576   8.0255   C.ar      2 RES2   0.0000
    81 C36      7.2626   6.2560   7.8714   C.ar      2 RES2   0.0000
    82 H37      6.5292   5.8107   7.4632   H         2 RES2   0.0000
    83 C37      7.0913   7.5774   8.2908   C.ar      2 RES2   0.0000
    84 H38      6.2542   8.0093   8.1700   H         2 RES2   0.0000
    85 C38      8.1456   8.2592   8.8830   C.ar      2 RES2   0.0000
    86 H39      8.0416   9.1614   9.1608   H         2 RES2   0.0000
    87 C39      9.3487   7.6054   9.0618   C.ar      2 RES2   0.0000
    88 H40     10.0761   8.0579   9.4720   H         2 RES2   0.0000
    89 C40      9.4998   6.2797   8.6406   C.ar      2 RES2   0.0000
    90 H41     10.3359   5.8510   8.7778   H         2 RES2   0.0000
    91 C41      9.1660   4.3768   5.8240   C.ar      2 RES2   0.0000
    92 C42      8.2710   4.3754   4.7434   C.ar      2 RES2   0.0000
    93 H42      7.3676   4.1263   4.9023   H         2 RES2   0.0000
    94 C43      8.6448   4.7226   3.4516   C.ar      2 RES2   0.0000
    95 H43      8.0034   4.6947   2.7515   H         2 RES2   0.0000
    96 C44      9.9422   5.1079   3.1790   C.ar      2 RES2   0.0000
    97 H44     10.2062   5.3326   2.2947   H         2 RES2   0.0000
    98 C45     10.8531   5.1597   4.2285   C.ar      2 RES2   0.0000
    99 H45     11.7455   5.4424   4.0661   H         2 RES2   0.0000
   100 C46     10.4639   4.8014   5.5075   C.ar      2 RES2   0.0000
   101 H46     11.1081   4.8462   6.2043   H         2 RES2   0.0000
   102 B1       8.7291   4.0648   7.3738   B         2 RES2  -1.0000
@<TRIPOS>BOND
     1     1     2    1
     2     2    12    1
     3     3     1    1
     4     4     1    1
     5     5     1    1
     6     6     1    1
     7     7    52   ar
     8     8     9    1
     9    10     8    1
    10    11     8    1
    11    12     8    1
    12    13    12    2
    13    14    13    1
    14    15     4    2
    15    16    15    1
    16    17    16    1
    17    18    16    1
    18    19    16    1
    19    20     4    1
    20    21    20    1
    21    22    20    1
    22    23     5    1
    23    24    23    1
    24    25    23    1
    25    26    27    1
    26    28    26    1
    27    29    26    1
    28    30     5    2
    29    31    30    1
    30    32    31    1
    31    33     3    1
    32    34    33    1
    33    35    34    1
    34    36    34    1
    35    37    34    1
    36    38     6   ar
    37    39    38    1
    38    40     6   ar
    39    41    40    1
    40    42    40   ar
    41    43    42    1
    42    44    42   ar
    43    45    44    1
    44    46    38   ar
    45    47    46    1
    46    48    47   ar
    47    49    48    1
    48    50    48   ar
    49    51    50    1
    50    52    50   ar
    51    53    52    1
    52    54     7   ar
    53    55    54    1
    54    56     7   un
    55    57     1   un
    56    13    15    1
    57    20    23    1
    58    26    30    1
    59    31    33    2
    60    44    46   ar
    61    47    54   ar
    62    58    59   ar
    63    59    60    1
    64    61    59   ar
    65    62    61    1
    66    63    61   ar
    67    64    63    1
    68    65    63   ar
    69    66    65    1
    70    67    58   ar
    71    68    67    1
    72    69    70   ar
    73    70    71    1
    74    72    70   ar
    75    73    72    1
    76    74    72   ar
    77    75    74    1
    78    76    74   ar
    79    77    76    1
    80    78    69   ar
    81    79    78    1
    82    80    81   ar
    83    81    82    1
    84    83    81   ar
    85    84    83    1
    86    85    83   ar
    87    86    85    1
    88    87    85   ar
    89    88    87    1
    90    89    80   ar
    91    90    89    1
    92    91    92   ar
    93    92    93    1
    94    94    92   ar
    95    95    94    1
    96    96    94   ar
    97    97    96    1
    98    98    96   ar
    99    99    98    1
   100   100    91   ar
   101   101   100    1
   102   102    58    1
   103    65    67   ar
   104    69   102    1
   105    76    78   ar
   106    80   102    1
   107    87    89   ar
   108    91   102    1
   109    98   100   ar
@<TRIPOS>SUBSTRUCTURE
     1 RES1        1 GROUP             0 ****  ****    0  
     2 RES2       58 GROUP             0 ****  ****    0  
@<TRIPOS>CRYSIN
   15.3600   13.8978   18.4909   90.0000  103.4520   90.0000    14     1
