@<TRIPOS>MOLECULE
KAKTOF
   165   168     3     0     0
SMALL
NO_CHARGES
****
Generated from the CSD

@<TRIPOS>ATOM
     1 I1       1.8978   2.3918  10.0732   I         1 RES1   0.0000
     2 I2       4.9098   2.7261  14.3912   I         1 RES1   0.0000
     3 Fe1      3.3911   2.5484  12.2416   Fe        1 RES1   0.0000
     4 O1       2.9176  13.0406  10.1386   O.3       1 RES1   0.0000
     5 O2      12.5659   5.1112   7.3181   O.3       1 RES1   0.0000
     6 O3       3.9541  -7.9692  14.1413   O.3       1 RES1   0.0000
     7 O4      -5.8092   0.3373  17.2216   O.3       1 RES1   0.0000
     8 N1       3.2298   5.5663  12.0171   N.1       1 RES1   0.0000
     9 N2       2.6330  11.6575  10.2517   N.2       1 RES1   0.0000
    10 N3       5.8633   3.0376  10.5662   N.1       1 RES1   0.0000
    11 N4      11.6271   4.4886   8.1469   N.2       1 RES1   0.0000
    12 N5       3.5194  -0.4650  12.3900   N.1       1 RES1   0.0000
    13 N6       4.2539  -6.6181  14.0512   N.2       1 RES1   0.0000
    14 N7       0.9372   2.1215  13.9787   N.1       1 RES1   0.0000
    15 N8      -4.8604   0.8083  16.3292   N.2       1 RES1   0.0000
    16 C1       3.2444   4.3987  12.1603   C.1       1 RES1   0.0000
    17 C2       3.2752   6.9454  11.7768   C.ar      1 RES1   0.0000
    18 C3       2.3039   7.4942  10.9427   C.ar      1 RES1   0.0000
    19 C4       2.3954   8.8713  10.7111   C.ar      1 RES1   0.0000
    20 C5       3.3616   9.6477  11.2802   C.ar      1 RES1   0.0000
    21 C6       4.2872   9.0649  12.0878   C.ar      1 RES1   0.0000
    22 C7       4.2850   7.6818  12.3812   C.ar      1 RES1   0.0000
    23 C8       1.2159   6.6420  10.3171   C.3       1 RES1   0.0000
    24 C9       1.1596   6.7817   8.8697   C.3       1 RES1   0.0000
    25 C10     -0.1005   6.9454  10.7977   C.3       1 RES1   0.0000
    26 C11      5.3832   7.0073  13.1976   C.3       1 RES1   0.0000
    27 C12      5.8684   7.9054  14.3287   C.3       1 RES1   0.0000
    28 C13      6.5143   6.5562  12.3317   C.3       1 RES1   0.0000
    29 C14      3.4441  11.0607  11.0169   C.2       1 RES1   0.0000
    30 C15      4.9427   2.7841  11.1954   C.1       1 RES1   0.0000
    31 C16      7.0132   3.4827   9.8770   C.ar      1 RES1   0.0000
    32 C17      6.8561   4.3149   8.8379   C.ar      1 RES1   0.0000
    33 C18      7.9681   4.7680   8.2035   C.ar      1 RES1   0.0000
    34 C19      9.2458   4.3508   8.5940   C.ar      1 RES1   0.0000
    35 C20      9.3409   3.5006   9.6791   C.ar      1 RES1   0.0000
    36 C21      8.2444   3.0456  10.3489   C.ar      1 RES1   0.0000
    37 C22      5.4592   4.7799   8.3766   C.3       1 RES1   0.0000
    38 C23      5.0068   4.1133   7.1679   C.3       1 RES1   0.0000
    39 C24      5.4341   6.3566   8.2388   C.3       1 RES1   0.0000
    40 C25      8.3524   2.1395  11.5806   C.3       1 RES1   0.0000
    41 C26      9.1565   2.7003  12.6109   C.3       1 RES1   0.0000
    42 C27      8.9737   0.8003  11.1636   C.3       1 RES1   0.0000
    43 C28     10.4205   4.9137   7.8907   C.2       1 RES1   0.0000
    44 C29      3.5428   0.6686  12.2981   C.1       1 RES1   0.0000
    45 C30      3.5363  -1.8501  12.5791   C.ar      1 RES1   0.0000
    46 C31      4.6338  -2.4369  13.1764   C.ar      1 RES1   0.0000
    47 C32      4.6144  -3.8060  13.3744   C.ar      1 RES1   0.0000
    48 C33      3.5380  -4.5564  12.9873   C.ar      1 RES1   0.0000
    49 C34      2.4534  -3.9357  12.3670   C.ar      1 RES1   0.0000
    50 C35      2.4137  -2.5886  12.1709   C.ar      1 RES1   0.0000
    51 C36      5.8316  -1.5787  13.6465   C.3       1 RES1   0.0000
    52 C37      7.1439  -2.2213  13.2171   C.3       1 RES1   0.0000
    53 C38      5.7419  -1.2514  15.0797   C.3       1 RES1   0.0000
    54 C39      1.2124  -1.8820  11.5806   C.3       1 RES1   0.0000
    55 C40      0.3770  -2.7562  10.6334   C.3       1 RES1   0.0000
    56 C41      0.2664  -1.3891  12.7134   C.3       1 RES1   0.0000
    57 C42      3.4760  -6.0253  13.2330   C.2       1 RES1   0.0000
    58 C43      1.8884   2.3511  13.3231   C.1       1 RES1   0.0000
    59 C44     -0.1902   1.7763  14.6627   C.ar      1 RES1   0.0000
    60 C45     -0.0802   1.2753  15.9881   C.ar      1 RES1   0.0000
    61 C46     -1.2565   0.9001  16.6013   C.ar      1 RES1   0.0000
    62 C47     -2.4830   1.0139  15.9881   C.ar      1 RES1   0.0000
    63 C48     -2.5752   1.5148  14.6803   C.ar      1 RES1   0.0000
    64 C49     -1.4301   1.8980  14.0141   C.ar      1 RES1   0.0000
    65 C50      1.2809   1.0997  16.6225   C.3       1 RES1   0.0000
    66 C51      1.8778  -0.1736  16.3079   C.3       1 RES1   0.0000
    67 C52      1.2287   1.2953  18.1123   C.3       1 RES1   0.0000
    68 C53     -1.5158   2.4768  12.5950   C.3       1 RES1   0.0000
    69 C54     -1.8839   3.8579  12.6215   C.3       1 RES1   0.0000
    70 C55     -2.4740   1.6984  11.7079   C.3       1 RES1   0.0000
    71 C56     -3.6907   0.6107  16.7356   C.2       1 RES1   0.0000
    72 H1       1.7629   9.2825  10.1333   H         1 RES1   0.0000
    73 H2       4.9655   9.6118  12.4713   H         1 RES1   0.0000
    74 H3       1.3998   5.7339  10.5185   H         1 RES1   0.0000
    75 H4       0.9123   7.6739   8.6453   H         1 RES1   0.0000
    76 H5       2.0143   6.5921   8.4986   H         1 RES1   0.0000
    77 H6       0.5193   6.1770   8.5163   H         1 RES1   0.0000
    78 H7      -0.1196   6.8775  11.7379   H         1 RES1   0.0000
    79 H8      -0.3315   7.8335  10.5344   H         1 RES1   0.0000
    80 H9      -0.7226   6.3367  10.4143   H         1 RES1   0.0000
    81 H10      5.0061   6.2309  13.5953   H         1 RES1   0.0000
    82 H11      6.4892   7.4304  14.8677   H         1 RES1   0.0000
    83 H12      6.2906   8.6757  13.9628   H         1 RES1   0.0000
    84 H13      5.1272   8.1748  14.8588   H         1 RES1   0.0000
    85 H14      6.1760   6.0014  11.6372   H         1 RES1   0.0000
    86 H15      6.9412   7.3146  11.9517   H         1 RES1   0.0000
    87 H16      7.1366   6.0672  12.8548   H         1 RES1   0.0000
    88 H17      4.1335  11.5637  11.4322   H         1 RES1   0.0000
    89 H18      7.8771   5.3767   7.4789   H         1 RES1   0.0000
    90 H19     10.1993   3.2232   9.9707   H         1 RES1   0.0000
    91 H20      4.8484   4.5584   9.0729   H         1 RES1   0.0000
    92 H21      4.1452   4.4387   6.9381   H         1 RES1   0.0000
    93 H22      5.6161   4.2950   6.4663   H         1 RES1   0.0000
    94 H23      4.9657   3.1793   7.3269   H         1 RES1   0.0000
    95 H24      5.7320   6.7538   9.0482   H         1 RES1   0.0000
    96 H25      6.0134   6.6181   7.5284   H         1 RES1   0.0000
    97 H26      4.5529   6.6440   8.0462   H         1 RES1   0.0000
    98 H27      7.4813   1.9878  11.9270   H         1 RES1   0.0000
    99 H28      9.1877   2.1056  13.3514   H         1 RES1   0.0000
   100 H29     10.0397   2.8420  12.2857   H         1 RES1   0.0000
   101 H30      8.7885   3.5306  12.8919   H         1 RES1   0.0000
   102 H31      8.4453   0.4131  10.4761   H         1 RES1   0.0000
   103 H32      9.8536   0.9460  10.8455   H         1 RES1   0.0000
   104 H33      8.9967   0.2175  11.9129   H         1 RES1   0.0000
   105 H34     10.2887   5.6002   7.2439   H         1 RES1   0.0000
   106 H35      5.3594  -4.2311  13.7826   H         1 RES1   0.0000
   107 H36      1.7244  -4.4666  12.0737   H         1 RES1   0.0000
   108 H37      5.7675  -0.7544  13.1835   H         1 RES1   0.0000
   109 H38      7.2128  -3.0835  13.5935   H         1 RES1   0.0000
   110 H39      7.1632  -2.2812  12.2681   H         1 RES1   0.0000
   111 H40      7.8681  -1.6805  13.5122   H         1 RES1   0.0000
   112 H41      5.7292  -2.0517  15.5905   H         1 RES1   0.0000
   113 H42      6.4913  -0.7265  15.3342   H         1 RES1   0.0000
   114 H43      4.9449  -0.7604  15.2441   H         1 RES1   0.0000
   115 H44      1.5180  -1.1236  11.0964   H         1 RES1   0.0000
   116 H45     -0.3408  -2.2413  10.2782   H         1 RES1   0.0000
   117 H46      0.9223  -3.0675   9.9230   H         1 RES1   0.0000
   118 H47      0.0258  -3.4966  11.1123   H         1 RES1   0.0000
   119 H48      0.7533  -0.8462  13.3231   H         1 RES1   0.0000
   120 H49     -0.4434  -0.8801  12.3370   H         1 RES1   0.0000
   121 H50     -0.0934  -2.1375  13.1764   H         1 RES1   0.0000
   122 H51      2.8297  -6.5402  12.7647   H         1 RES1   0.0000
   123 H52     -1.2198   0.5508  17.4832   H         1 RES1   0.0000
   124 H53     -3.4211   1.5887  14.2562   H         1 RES1   0.0000
   125 H54      1.8468   1.7743  16.2673   H         1 RES1   0.0000
   126 H55      1.3675  -0.8682  16.6985   H         1 RES1   0.0000
   127 H56      1.9130  -0.2854  15.3678   H         1 RES1   0.0000
   128 H57      2.7652  -0.1976  16.6614   H         1 RES1   0.0000
   129 H58      0.7095   0.6007  18.5046   H         1 RES1   0.0000
   130 H59      2.1121   1.2653  18.4657   H         1 RES1   0.0000
   131 H60      0.8356   2.1335  18.3102   H         1 RES1   0.0000
   132 H61     -0.6507   2.4149  12.2062   H         1 RES1   0.0000
   133 H62     -1.2767   4.3369  13.1764   H         1 RES1   0.0000
   134 H63     -1.8531   4.2131  11.7414   H         1 RES1   0.0000
   135 H64     -2.7639   3.9477  12.9697   H         1 RES1   0.0000
   136 H65     -3.3562   1.7842  12.0436   H         1 RES1   0.0000
   137 H66     -2.4355   2.0417  10.8242   H         1 RES1   0.0000
   138 H67     -2.2244   0.7804  11.7026   H         1 RES1   0.0000
   139 H68     -3.5749   0.1756  17.5733   H         1 RES1   0.0000
   140 O5       6.7110  24.4525  25.5912   O.3       2 RES2   0.0000
   141 C57      7.5587  24.5503  24.5644   C.3       2 RES2   0.0000
   142 C58      8.8640  23.9656  25.1299   C.3       2 RES2   0.0000
   143 C59      8.8116  24.4685  26.4377   C.3       2 RES2   0.0000
   144 C60      7.4897  24.3248  26.7558   C.3       2 RES2   0.0000
   145 H69      7.2567  24.0454  23.8187   H         2 RES2   0.0000
   146 H70      7.6813  25.4584  24.3011   H         2 RES2   0.0000
   147 H71      8.8670  23.0156  25.1193   H         2 RES2   0.0000
   148 H72      9.6360  24.2869  24.6705   H         2 RES2   0.0000
   149 H73      9.3513  23.9616  27.0332   H         2 RES2   0.0000
   150 H74      9.0672  25.3806  26.4748   H         2 RES2   0.0000
   151 H75      7.2346  25.0014  27.3796   H         2 RES2   0.0000
   152 H76      7.3410  23.4726  27.1463   H         2 RES2   0.0000
   153 O6      11.9259  20.1396  16.0764   O.3       3 RES3   0.0000
   154 C61     11.6337  19.8103  14.7881   C.3       3 RES3   0.0000
   155 C62     10.3190  19.2854  14.7687   C.3       3 RES3   0.0000
   156 C63      9.7493  19.4591  16.0994   C.3       3 RES3   0.0000
   157 C64     10.9354  19.7784  16.9000   C.3       3 RES3   0.0000
   158 H77     11.6829  20.5827  14.2385   H         3 RES3   0.0000
   159 H78     12.2527  19.1577  14.4736   H         3 RES3   0.0000
   160 H79      9.7994  19.7425  14.1219   H         3 RES3   0.0000
   161 H80     10.3483  18.3574  14.5496   H         3 RES3   0.0000
   162 H81      9.1232  20.1795  16.1065   H         3 RES3   0.0000
   163 H82      9.3250  18.6707  16.4016   H         3 RES3   0.0000
   164 H83     11.1961  19.0180  17.4019   H         3 RES3   0.0000
   165 H84     10.7396  20.4989  17.4920   H         3 RES3   0.0000
@<TRIPOS>BOND
     1     1     3    1
     2     2     3    1
     3     3    16    1
     4     4     9    1
     5     5    11    1
     6     6    13    1
     7     7    15    1
     8     8    16    3
     9     9    29    2
    10    10    30    3
    11    11    43    2
    12    12    44    3
    13    13    57    2
    14    14    58    3
    15    15    71    2
    16    17     8    1
    17    18    17   ar
    18    19    18   ar
    19    20    19   ar
    20    21    20   ar
    21    22    17   ar
    22    23    18    1
    23    24    23    1
    24    25    23    1
    25    26    22    1
    26    27    26    1
    27    28    26    1
    28    29    20    1
    29    30     3    1
    30    31    10    1
    31    32    31   ar
    32    33    32   ar
    33    34    33   ar
    34    35    34   ar
    35    36    31   ar
    36    37    32    1
    37    38    37    1
    38    39    37    1
    39    40    36    1
    40    41    40    1
    41    42    40    1
    42    43    34    1
    43    44     3    1
    44    45    12    1
    45    46    45   ar
    46    47    46   ar
    47    48    47   ar
    48    49    48   ar
    49    50    45   ar
    50    51    46    1
    51    52    51    1
    52    53    51    1
    53    54    50    1
    54    55    54    1
    55    56    54    1
    56    57    48    1
    57    58     3    1
    58    59    14    1
    59    60    59   ar
    60    61    60   ar
    61    62    61   ar
    62    63    62   ar
    63    64    59   ar
    64    65    60    1
    65    66    65    1
    66    67    65    1
    67    68    64    1
    68    69    68    1
    69    70    68    1
    70    71    62    1
    71    72    19    1
    72    73    21    1
    73    74    23    1
    74    75    24    1
    75    76    24    1
    76    77    24    1
    77    78    25    1
    78    79    25    1
    79    80    25    1
    80    81    26    1
    81    82    27    1
    82    83    27    1
    83    84    27    1
    84    85    28    1
    85    86    28    1
    86    87    28    1
    87    88    29    1
    88    89    33    1
    89    90    35    1
    90    91    37    1
    91    92    38    1
    92    93    38    1
    93    94    38    1
    94    95    39    1
    95    96    39    1
    96    97    39    1
    97    98    40    1
    98    99    41    1
    99   100    41    1
   100   101    41    1
   101   102    42    1
   102   103    42    1
   103   104    42    1
   104   105    43    1
   105   106    47    1
   106   107    49    1
   107   108    51    1
   108   109    52    1
   109   110    52    1
   110   111    52    1
   111   112    53    1
   112   113    53    1
   113   114    53    1
   114   115    54    1
   115   116    55    1
   116   117    55    1
   117   118    55    1
   118   119    56    1
   119   120    56    1
   120   121    56    1
   121   122    57    1
   122   123    61    1
   123   124    63    1
   124   125    65    1
   125   126    66    1
   126   127    66    1
   127   128    66    1
   128   129    67    1
   129   130    67    1
   130   131    67    1
   131   132    68    1
   132   133    69    1
   133   134    69    1
   134   135    69    1
   135   136    70    1
   136   137    70    1
   137   138    70    1
   138   139    71    1
   139    21    22   ar
   140    35    36   ar
   141    49    50   ar
   142    63    64   ar
   143   140   141    1
   144   141   142    1
   145   142   143    1
   146   143   144    1
   147   144   140    1
   148   145   141    1
   149   146   141    1
   150   147   142    1
   151   148   142    1
   152   149   143    1
   153   150   143    1
   154   151   144    1
   155   152   144    1
   156   153   154    1
   157   154   155    1
   158   155   156    1
   159   156   157    1
   160   157   153    1
   161   158   154    1
   162   159   154    1
   163   160   155    1
   164   161   155    1
   165   162   156    1
   166   163   156    1
   167   164   157    1
   168   165   157    1
@<TRIPOS>SUBSTRUCTURE
     1 RES1        1 GROUP             0 ****  ****    0  
     2 RES2      140 GROUP             0 ****  ****    0  
     3 RES3      153 GROUP             0 ****  ****    0  
@<TRIPOS>CRYSIN
   20.0900   19.9580   19.5520   90.0000  115.3300   90.0000     9     1
