@<TRIPOS>MOLECULE
KAPJAM
   157   169     2     0     0
SMALL
USER_CHARGES
****
Generated from the CSD

@<TRIPOS>ATOM
     1 Fe1     15.9302   4.6738   2.9120   Fe        1 RES1   1.0000
     2 P1      14.2055   3.6368   3.9706   P.3       1 RES1   0.0000
     3 P2      17.0799   4.1087   4.7561   P.3       1 RES1   0.0000
     4 P3      14.9052   4.9372   0.9471   P.3       1 RES1   0.0000
     5 P4      17.6757   5.6596   1.8798   P.3       1 RES1   0.0000
     6 N1      15.4003   6.3558   3.7024   N.1       1 RES1   0.0000
     7 C1      14.6957   3.3588   5.7448   C.3       1 RES1   0.0000
     8 H1      13.9405   3.5545   6.3224   H         1 RES1   0.0000
     9 H2      14.9367   2.4277   5.8716   H         1 RES1   0.0000
    10 C2      15.8667   4.2378   6.1298   C.3       1 RES1   0.0000
    11 H3      16.2619   3.9317   6.9617   H         1 RES1   0.0000
    12 H4      15.5781   5.1568   6.2432   H         1 RES1   0.0000
    13 C3      17.3004   5.8943   0.0798   C.3       1 RES1   0.0000
    14 H5      16.9850   6.7978  -0.0775   H         1 RES1   0.0000
    15 H6      18.1030   5.7532  -0.4473   H         1 RES1   0.0000
    16 C4      16.2313   4.8945  -0.3249   C.3       1 RES1   0.0000
    17 H7      16.6103   4.0042  -0.3804   H         1 RES1   0.0000
    18 H8      15.8673   5.1278  -1.1940   H         1 RES1   0.0000
    19 C5      13.5624   1.9521   3.6284   C.ar      1 RES1   0.0000
    20 C6      12.4513   1.4855   4.3348   C.ar      1 RES1   0.0000
    21 H9      11.9758   2.0666   4.8818   H         1 RES1   0.0000
    22 C7      12.0553   0.1665   4.2272   C.ar      1 RES1   0.0000
    23 H10     11.3118  -0.1322   4.6987   H         1 RES1   0.0000
    24 C8      12.7508  -0.7044   3.4298   C.ar      1 RES1   0.0000
    25 H11     12.4873  -1.5943   3.3690   H         1 RES1   0.0000
    26 C9      13.8384  -0.2586   2.7199   C.ar      1 RES1   0.0000
    27 H12     14.3082  -0.8463   2.1732   H         1 RES1   0.0000
    28 C10     14.2371   1.0655   2.8180   C.ar      1 RES1   0.0000
    29 H13     14.9704   1.3605   2.3300   H         1 RES1   0.0000
    30 C11     12.6588   4.6068   4.1680   C.ar      1 RES1   0.0000
    31 C12     11.5530   4.3759   3.3593   C.ar      1 RES1   0.0000
    32 H14     11.5734   3.6883   2.7333   H         1 RES1   0.0000
    33 C13     10.4159   5.1681   3.4800   C.ar      1 RES1   0.0000
    34 H15      9.6709   4.9988   2.9481   H         1 RES1   0.0000
    35 C14     11.4726   6.4464   5.1971   C.ar      1 RES1   0.0000
    36 H16     11.4453   7.1492   5.8064   H         1 RES1   0.0000
    37 C15     10.3943   6.1965   4.3852   C.ar      1 RES1   0.0000
    38 H17      9.6390   6.7333   4.4504   H         1 RES1   0.0000
    39 C16     12.5978   5.6467   5.1060   C.ar      1 RES1   0.0000
    40 H18     13.3194   5.8000   5.6708   H         1 RES1   0.0000
    41 C17     17.6393   2.3801   5.0211   C.ar      1 RES1   0.0000
    42 C18     17.4613   1.4058   4.0587   C.ar      1 RES1   0.0000
    43 H19     17.1173   1.6394   3.2264   H         1 RES1   0.0000
    44 C19     17.7894   0.0816   4.3195   C.ar      1 RES1   0.0000
    45 H20     17.6662  -0.5626   3.6596   H         1 RES1   0.0000
    46 C20     18.2900  -0.2823   5.5366   C.ar      1 RES1   0.0000
    47 H21     18.4994  -1.1719   5.7096   H         1 RES1   0.0000
    48 C21     18.4808   0.6770   6.5072   C.ar      1 RES1   0.0000
    49 H22     18.8210   0.4336   7.3386   H         1 RES1   0.0000
    50 C22     18.1690   1.9952   6.2515   C.ar      1 RES1   0.0000
    51 H23     18.3133   2.6372   6.9089   H         1 RES1   0.0000
    52 C23     18.4934   5.0480   5.4299   C.ar      1 RES1   0.0000
    53 C24     19.8079   4.6253   5.2422   C.ar      1 RES1   0.0000
    54 H24     19.9796   3.8575   4.7445   H         1 RES1   0.0000
    55 C25     20.8601   5.3381   5.7897   C.ar      1 RES1   0.0000
    56 H25     21.7332   5.0504   5.6497   H         1 RES1   0.0000
    57 C26     20.6269   6.4648   6.5357   C.ar      1 RES1   0.0000
    58 H26     21.3383   6.9300   6.9142   H         1 RES1   0.0000
    59 C27     19.3385   6.9002   6.7196   C.ar      1 RES1   0.0000
    60 H27     19.1769   7.6618   7.2259   H         1 RES1   0.0000
    61 C28     18.2799   6.2112   6.1549   C.ar      1 RES1   0.0000
    62 H28     17.4130   6.5318   6.2626   H         1 RES1   0.0000
    63 C29     19.3152   4.8462   1.7344   C.ar      1 RES1   0.0000
    64 C30     19.4584   3.4961   1.9816   C.ar      1 RES1   0.0000
    65 H29     18.7271   3.0032   2.2736   H         1 RES1   0.0000
    66 C31     20.6803   2.8661   1.8000   C.ar      1 RES1   0.0000
    67 H30     20.7615   1.9570   1.9742   H         1 RES1   0.0000
    68 C32     21.7707   3.5722   1.3652   C.ar      1 RES1   0.0000
    69 H31     22.5932   3.1498   1.2627   H         1 RES1   0.0000
    70 C33     21.6416   4.9150   1.0804   C.ar      1 RES1   0.0000
    71 H32     22.3732   5.3954   0.7678   H         1 RES1   0.0000
    72 C34     20.4267   5.5491   1.2590   C.ar      1 RES1   0.0000
    73 H33     20.3465   6.4544   1.0602   H         1 RES1   0.0000
    74 C35     18.0777   7.3586   2.4259   C.ar      1 RES1   0.0000
    75 C36     19.1308   7.6301   3.2901   C.ar      1 RES1   0.0000
    76 H34     19.7081   6.9461   3.5416   H         1 RES1   0.0000
    77 C37     19.3285   8.9094   3.7795   C.ar      1 RES1   0.0000
    78 H35     20.0461   9.0804   4.3447   H         1 RES1   0.0000
    79 C38     18.4783   9.9217   3.4391   C.ar      1 RES1   0.0000
    80 H36     18.6026  10.7730   3.7917   H         1 RES1   0.0000
    81 C39     17.4351   9.6796   2.5716   C.ar      1 RES1   0.0000
    82 H37     16.8687  10.3732   2.3229   H         1 RES1   0.0000
    83 C40     17.2293   8.4064   2.0709   C.ar      1 RES1   0.0000
    84 H38     16.5183   8.2486   1.4917   H         1 RES1   0.0000
    85 C41     13.7289   3.7123   0.2603   C.ar      1 RES1   0.0000
    86 C42     12.3929   3.9915   0.0722   C.ar      1 RES1   0.0000
    87 H39     12.0643   4.8376   0.2747   H         1 RES1   0.0000
    88 C43     11.5320   3.0177  -0.4174   C.ar      1 RES1   0.0000
    89 H40     10.6318   3.2192  -0.5371   H         1 RES1   0.0000
    90 C44     13.3143   1.4840  -0.5651   C.ar      1 RES1   0.0000
    91 H41     13.6361   0.6400  -0.7855   H         1 RES1   0.0000
    92 C45     11.9864   1.7764  -0.7226   C.ar      1 RES1   0.0000
    93 H42     11.3999   1.1268  -1.0373   H         1 RES1   0.0000
    94 C46     14.1765   2.4523  -0.0756   C.ar      1 RES1   0.0000
    95 H43     15.0792   2.2471   0.0282   H         1 RES1   0.0000
    96 C47     14.0694   6.5384   0.5993   C.ar      1 RES1   0.0000
    97 C48     14.3067   7.2872  -0.5514   C.ar      1 RES1   0.0000
    98 H44     14.8794   6.9574  -1.2046   H         1 RES1   0.0000
    99 C49     13.7000   8.5146  -0.7344   C.ar      1 RES1   0.0000
   100 H45     13.8818   9.0095  -1.4987   H         1 RES1   0.0000
   101 C50     12.8390   9.0046   0.1955   C.ar      1 RES1   0.0000
   102 H46     12.4346   9.8316   0.0634   H         1 RES1   0.0000
   103 C51     12.5666   8.2797   1.3309   C.ar      1 RES1   0.0000
   104 H47     11.9663   8.6081   1.9619   H         1 RES1   0.0000
   105 C52     13.1874   7.0573   1.5339   C.ar      1 RES1   0.0000
   106 H48     13.0095   6.5770   2.3106   H         1 RES1   0.0000
   107 C53     15.0618   7.3801   4.0752   C.1       1 RES1   0.0000
   108 C54     14.5568   8.6782   4.4944   C.3       1 RES1   0.0000
   109 H49     13.8858   8.9756   3.8762   H         1 RES1   0.0000
   110 H50     15.2792   9.3109   4.5120   H         1 RES1   0.0000
   111 H51     14.1743   8.6049   5.3714   H         1 RES1   0.0000
   112 H52     16.3126   3.4126   2.1908   H         1 RES1   0.0000
   113 B1       1.9063   4.9632   9.3947   B         2 RES2  -1.0000
   114 C55      3.0109   5.2814  10.5685   C.ar      2 RES2   0.0000
   115 C56      4.2493   5.8733  10.3353   C.ar      2 RES2   0.0000
   116 H53      4.5089   6.0208   9.4537   H         2 RES2   0.0000
   117 C57      5.1167   6.2555  11.3501   C.ar      2 RES2   0.0000
   118 H54      5.9310   6.6495  11.1391   H         2 RES2   0.0000
   119 C58      4.7769   6.0535  12.6604   C.ar      2 RES2   0.0000
   120 H55      5.3564   6.3029  13.3440   H         2 RES2   0.0000
   121 C59      3.5689   5.4760  12.9443   C.ar      2 RES2   0.0000
   122 H56      3.3258   5.3293  13.8283   H         2 RES2   0.0000
   123 C60      2.7090   5.1117  11.9228   C.ar      2 RES2   0.0000
   124 H57      1.8901   4.7344  12.1482   H         2 RES2   0.0000
   125 C61      0.9272   6.2923   9.3972   C.ar      2 RES2   0.0000
   126 C62     -0.3736   6.3142   9.8869   C.ar      2 RES2   0.0000
   127 H58     -0.7375   5.5292  10.2268   H         2 RES2   0.0000
   128 C63     -1.1539   7.4700   9.8864   C.ar      2 RES2   0.0000
   129 H59     -2.0182   7.4410  10.2268   H         2 RES2   0.0000
   130 C64     -0.6617   8.6426   9.3908   C.ar      2 RES2   0.0000
   131 H60     -1.1895   9.4076   9.3709   H         2 RES2   0.0000
   132 C65      0.6309   8.6743   8.9203   C.ar      2 RES2   0.0000
   133 H61      0.9899   9.4689   8.5960   H         2 RES2   0.0000
   134 C66      1.3982   7.5227   8.9289   C.ar      2 RES2   0.0000
   135 H62      2.2696   7.5700   8.6084   H         2 RES2   0.0000
   136 C67      1.0548   3.5804   9.6379   C.ar      2 RES2   0.0000
   137 C68      1.4487   2.5268  10.4487   C.ar      2 RES2   0.0000
   138 H63      2.2347   2.6131  10.9366   H         2 RES2   0.0000
   139 C69      0.7240   1.3492  10.5650   C.ar      2 RES2   0.0000
   140 H64      1.0335   0.6738  11.1233   H         2 RES2   0.0000
   141 C70     -0.4408   1.1735   9.8693   C.ar      2 RES2   0.0000
   142 H65     -0.9404   0.3966   9.9680   H         2 RES2   0.0000
   143 C71     -0.8518   2.1649   9.0282   C.ar      2 RES2   0.0000
   144 H66     -1.6259   2.0537   8.5256   H         2 RES2   0.0000
   145 C72     -0.1236   3.3368   8.9171   C.ar      2 RES2   0.0000
   146 H67     -0.4299   3.9945   8.3354   H         2 RES2   0.0000
   147 C73      2.5979   4.7756   7.9171   C.ar      2 RES2   0.0000
   148 C74      3.7605   4.0169   7.7303   C.ar      2 RES2   0.0000
   149 H68      4.1880   3.6592   8.4745   H         2 RES2   0.0000
   150 C75      4.2979   3.7793   6.4704   C.ar      2 RES2   0.0000
   151 H69      5.0833   3.2853   6.3894   H         2 RES2   0.0000
   152 C76      3.6850   4.2642   5.3459   C.ar      2 RES2   0.0000
   153 H70      4.0449   4.1042   4.5032   H         2 RES2   0.0000
   154 C77      2.5328   4.9882   5.4847   C.ar      2 RES2   0.0000
   155 H71      2.0965   5.3148   4.7304   H         2 RES2   0.0000
   156 C78      2.0146   5.2359   6.7439   C.ar      2 RES2   0.0000
   157 H72      1.2336   5.7371   6.8085   H         2 RES2   0.0000
@<TRIPOS>BOND
     1     1     2    1
     2     2     7    1
     3     3     1    1
     4     4     1    1
     5     5     1    1
     6     6     1    1
     7     7     8    1
     8     9     7    1
     9    10     3    1
    10    11    10    1
    11    12    10    1
    12    13     5    1
    13    14    13    1
    14    15    13    1
    15    16     4    1
    16    17    16    1
    17    18    16    1
    18    19     2    1
    19    20    19   ar
    20    21    20    1
    21    22    20   ar
    22    23    22    1
    23    24    22   ar
    24    25    24    1
    25    26    24   ar
    26    27    26    1
    27    28    19   ar
    28    29    28    1
    29    30     2    1
    30    31    30   ar
    31    32    31    1
    32    33    31   ar
    33    34    33    1
    34    35    36    1
    35    37    33   ar
    36    38    37    1
    37    39    30   ar
    38    40    39    1
    39    41     3    1
    40    42    41   ar
    41    43    42    1
    42    44    42   ar
    43    45    44    1
    44    46    44   ar
    45    47    46    1
    46    48    46   ar
    47    49    48    1
    48    50    41   ar
    49    51    50    1
    50    52     3    1
    51    53    52   ar
    52    54    53    1
    53    55    53   ar
    54    56    55    1
    55    57    55   ar
    56    58    57    1
    57    59    57   ar
    58    60    59    1
    59    61    52   ar
    60    62    61    1
    61    63     5    1
    62    64    63   ar
    63    65    64    1
    64    66    64   ar
    65    67    66    1
    66    68    66   ar
    67    69    68    1
    68    70    68   ar
    69    71    70    1
    70    72    63   ar
    71    73    72    1
    72    74     5    1
    73    75    74   ar
    74    76    75    1
    75    77    75   ar
    76    78    77    1
    77    79    77   ar
    78    80    79    1
    79    81    79   ar
    80    82    81    1
    81    83    74   ar
    82    84    83    1
    83    85     4    1
    84    86    85   ar
    85    87    86    1
    86    88    86   ar
    87    89    88    1
    88    90    91    1
    89    92    88   ar
    90    93    92    1
    91    94    85   ar
    92    95    94    1
    93    96     4    1
    94    97    96   ar
    95    98    97    1
    96    99    97   ar
    97   100    99    1
    98   101    99   ar
    99   102   101    1
   100   103   101   ar
   101   104   103    1
   102   105    96   ar
   103   106   105    1
   104   107     6    3
   105   108   107    1
   106   109   108    1
   107   110   108    1
   108   111   108    1
   109   112     1    1
   110     7    10    1
   111    13    16    1
   112    26    28   ar
   113    35    37   ar
   114    35    39   ar
   115    48    50   ar
   116    59    61   ar
   117    70    72   ar
   118    81    83   ar
   119    90    92   ar
   120    90    94   ar
   121   103   105   ar
   122   113   114    1
   123   114   115   ar
   124   115   116    1
   125   117   115   ar
   126   118   117    1
   127   119   117   ar
   128   120   119    1
   129   121   119   ar
   130   122   121    1
   131   123   114   ar
   132   124   123    1
   133   125   113    1
   134   126   125   ar
   135   127   126    1
   136   128   126   ar
   137   129   128    1
   138   130   128   ar
   139   131   130    1
   140   132   130   ar
   141   133   132    1
   142   134   125   ar
   143   135   134    1
   144   136   113    1
   145   137   136   ar
   146   138   137    1
   147   139   137   ar
   148   140   139    1
   149   141   139   ar
   150   142   141    1
   151   143   141   ar
   152   144   143    1
   153   145   136   ar
   154   146   145    1
   155   147   113    1
   156   148   147   ar
   157   149   148    1
   158   150   148   ar
   159   151   150    1
   160   152   150   ar
   161   153   152    1
   162   154   152   ar
   163   155   154    1
   164   156   147   ar
   165   157   156    1
   166   121   123   ar
   167   132   134   ar
   168   143   145   ar
   169   154   156   ar
@<TRIPOS>SUBSTRUCTURE
     1 RES1        1 GROUP             0 ****  ****    0  
     2 RES2      113 GROUP             0 ****  ****    0  
@<TRIPOS>CRYSIN
   22.5080   16.1200   19.2570   90.0000  113.8600   90.0000    14     1
