@<TRIPOS>MOLECULE
KAQRAW
   174   186     2     0     0
SMALL
NO_CHARGES
****
Generated from the CSD

@<TRIPOS>ATOM
     1 Fe1      9.9966   9.7510  -3.4080   Fe        1 RES1   0.0000
     2 Fe2     10.7418  11.7628  -1.8056   Fe        1 RES1   0.0000
     3 Fe3     10.1912  14.5675   4.7422   Fe        1 RES1   0.0000
     4 Fe4     12.5984  13.4166   5.3339   Fe        1 RES1   0.0000
     5 Fe5      4.5372  13.6512   0.4863   Fe        1 RES1   0.0000
     6 Fe6      2.8018  13.3382   2.5033   Fe        1 RES1   0.0000
     7 S1       8.8982  10.5068  -1.6007   S.3       1 RES1   0.0000
     8 S2      11.1220  12.7612   3.7927   S.3       1 RES1   0.0000
     9 S3       5.0225  13.0859   2.5981   S.3       1 RES1   0.0000
    10 O1       8.1124   7.7360  -4.3790   O.2       1 RES1   0.0000
    11 O2      12.1133   9.8291  -5.4173   O.2       1 RES1   0.0000
    12 O3      11.4604   7.6810  -1.9840   O.2       1 RES1   0.0000
    13 O4      13.0838  12.9630  -3.0551   O.2       1 RES1   0.0000
    14 O5      12.5377  10.1047  -0.2181   O.2       1 RES1   0.0000
    15 O6      10.3118  13.7736   0.2586   O.2       1 RES1   0.0000
    16 O7       7.9690  14.9160   2.8987   O.2       1 RES1   0.0000
    17 O8       8.7037  13.1712   6.8396   O.2       1 RES1   0.0000
    18 O9       9.7764  17.0271   6.2220   O.2       1 RES1   0.0000
    19 O10     14.6043  11.4549   4.6067   O.2       1 RES1   0.0000
    20 O11     14.1341  14.9447   7.2893   O.2       1 RES1   0.0000
    21 O12     11.4116  11.8680   7.4919   O.2       1 RES1   0.0000
    22 O13      7.2496  13.8750  -0.5346   O.2       1 RES1   0.0000
    23 O14      4.1523  10.9214  -0.4053   O.2       1 RES1   0.0000
    24 O15      2.9659  14.4967  -1.8180   O.2       1 RES1   0.0000
    25 O16      2.1706  10.5007   2.0689   O.2       1 RES1   0.0000
    26 O17      0.3139  13.9442   1.1194   O.2       1 RES1   0.0000
    27 O18      2.0768  13.2802   5.3227   O.2       1 RES1   0.0000
    28 C1       8.8503   8.5242  -4.0123   C.1       1 RES1   0.0000
    29 C2      11.2833   9.7807  -4.6665   C.1       1 RES1   0.0000
    30 C3      10.9276   8.5448  -2.4915   C.1       1 RES1   0.0000
    31 C4      12.1774  12.4898  -2.5649   C.1       1 RES1   0.0000
    32 C5      11.8071  10.7020  -0.8511   C.1       1 RES1   0.0000
    33 C6      10.4557  12.9641  -0.5365   C.1       1 RES1   0.0000
    34 C7       8.8084  14.7714   3.6224   C.1       1 RES1   0.0000
    35 C8       9.3378  13.6809   6.0329   C.1       1 RES1   0.0000
    36 C9       9.9757  16.0554   5.6431   C.1       1 RES1   0.0000
    37 C10     13.8352  12.2144   4.9194   C.1       1 RES1   0.0000
    38 C11     13.5257  14.3457   6.5347   C.1       1 RES1   0.0000
    39 C12     11.8244  12.5081   6.6640   C.1       1 RES1   0.0000
    40 C13      6.1815  13.7878  -0.1563   C.1       1 RES1   0.0000
    41 C14      4.2797  11.9994  -0.0174   C.1       1 RES1   0.0000
    42 C15      3.5761  14.1994  -0.9167   C.1       1 RES1   0.0000
    43 C16      2.4593  11.5931   2.1905   C.1       1 RES1   0.0000
    44 C17      1.2723  13.7390   1.7080   C.1       1 RES1   0.0000
    45 C18      2.3582  13.2828   4.2072   C.1       1 RES1   0.0000
    46 C37      8.8304  11.1232  -4.5276   C.3       1 RES1   0.0000
    47 H1       8.7535  10.8358  -5.4424   H         1 RES1   0.0000
    48 H2       7.9908  11.0982  -4.2072   H         1 RES1   0.0000
    49 C38      9.7039  12.0948  -4.1030   C.2       1 RES1   0.0000
    50 H3      10.4929  12.1791  -4.5874   H         1 RES1   0.0000
    51 C39      9.5458  12.9711  -3.0280   C.3       1 RES1   0.0000
    52 H4       8.6288  13.0412  -2.7212   H         1 RES1   0.0000
    53 H5       9.9231  13.8493  -3.1882   H         1 RES1   0.0000
    54 C40     13.4510  14.5902   3.8058   C.3       1 RES1   0.0000
    55 H6      14.3476  14.9073   3.9969   H         1 RES1   0.0000
    56 H7      13.3898  14.2016   2.9200   H         1 RES1   0.0000
    57 C41     12.4297  15.5166   4.1069   C.2       1 RES1   0.0000
    58 H8      12.5246  16.0586   4.8576   H         1 RES1   0.0000
    59 C42     11.2522  15.6512   3.3021   C.3       1 RES1   0.0000
    60 H9      11.3170  15.2119   2.4394   H         1 RES1   0.0000
    61 H10     10.9476  16.5664   3.2056   H         1 RES1   0.0000
    62 C43      3.1817  15.3618   2.9142   C.3       1 RES1   0.0000
    63 H11      2.3911  15.8547   3.1844   H         1 RES1   0.0000
    64 H12      3.9039  15.4964   3.5472   H         1 RES1   0.0000
    65 C44      3.5577  15.5996   1.5806   C.2       1 RES1   0.0000
    66 H13      2.8666  15.7348   0.9727   H         1 RES1   0.0000
    67 C45      4.8418  15.6574   1.0730   C.3       1 RES1   0.0000
    68 H14      5.5318  15.7764   1.7446   H         1 RES1   0.0000
    69 H15      4.9535  16.2765   0.3358   H         1 RES1   0.0000
    70 C46      8.9424   9.3421  -0.2046   C.3       1 RES1   0.0000
    71 H16      8.3263   8.6118  -0.3705   H         1 RES1   0.0000
    72 H17      9.8342   8.9701  -0.1197   H         1 RES1   0.0000
    73 C47     10.2770  11.2119   4.2381   C.3       1 RES1   0.0000
    74 H18     10.9119  10.4783   4.2439   H         1 RES1   0.0000
    75 H19      9.8887  11.2873   5.1239   H         1 RES1   0.0000
    76 C48      5.4686  11.3390   2.8235   C.3       1 RES1   0.0000
    77 H20      5.2891  11.0839   3.7421   H         1 RES1   0.0000
    78 H21      4.9081  10.7938   2.2503   H         1 RES1   0.0000
    79 C49      7.2672  10.4172   1.3278   C.ar      1 RES1   0.0000
    80 H22      6.6107  10.2474   0.6909   H         1 RES1   0.0000
    81 C50      8.5648  10.0369   1.0711   C.ar      1 RES1   0.0000
    82 C51      9.5255  10.3164   2.0361   C.ar      1 RES1   0.0000
    83 H23     10.4108  10.0750   1.8778   H         1 RES1   0.0000
    84 C52      9.2009  10.9461   3.2307   C.ar      1 RES1   0.0000
    85 C53      7.9071  11.3113   3.4352   C.ar      1 RES1   0.0000
    86 H24      7.6847  11.7531   4.2227   H         1 RES1   0.0000
    87 C54      6.9112  11.0481   2.5127   C.ar      1 RES1   0.0000
    88 Fe7      2.7794   1.8741   9.5083   Fe        2 RES2   0.0000
    89 Fe8      4.9189   1.2198  10.9729   Fe        2 RES2   0.0000
    90 Fe9     -1.0957   4.9699  14.7538   Fe        2 RES2   0.0000
    91 Fe10    -3.4853   4.5083  15.9521   Fe        2 RES2   0.0000
    92 Fe11    -3.9306   2.1247   9.0050   Fe        2 RES2   0.0000
    93 Fe12    -4.2556  -0.0250   7.4284   Fe        2 RES2   0.0000
    94 S4       2.8344   1.5978  11.7246   S.3       2 RES2   0.0000
    95 S5      -2.6072   3.4286  14.1993   S.3       2 RES2   0.0000
    96 S6      -2.5421   0.3606   8.8324   S.3       2 RES2   0.0000
    97 O19      0.1039   2.9645   9.2250   O.2       2 RES2   0.0000
    98 O20      2.0796  -0.8719   8.8390   O.2       2 RES2   0.0000
    99 O21      3.6566   2.1831   6.7547   O.2       2 RES2   0.0000
   100 O22      4.5150  -1.6589  10.6975   O.2       2 RES2   0.0000
   101 O23      7.0461   1.0747   9.0069   O.2       2 RES2   0.0000
   102 O24      6.4318   1.0671  13.4534   O.2       2 RES2   0.0000
   103 O25      0.7329   4.6854  12.4981   O.2       2 RES2   0.0000
   104 O26      0.4974   3.3253  16.5587   O.2       2 RES2   0.0000
   105 O27      0.1536   7.3022  15.9642   O.2       2 RES2   0.0000
   106 O28     -2.2038   2.8470  17.9907   O.2       2 RES2   0.0000
   107 O29     -4.0396   6.4618  18.0157   O.2       2 RES2   0.0000
   108 O30     -5.9861   3.0316  15.9758   O.2       2 RES2   0.0000
   109 O31     -2.3817   3.9219  10.6898   O.2       2 RES2   0.0000
   110 O32     -5.5450   0.9987  11.1549   O.2       2 RES2   0.0000
   111 O33     -6.1243   3.9359   8.4279   O.2       2 RES2   0.0000
   112 O34     -5.7908  -1.6844   9.2771   O.2       2 RES2   0.0000
   113 O35     -6.7205   0.7067   6.0464   O.2       2 RES2   0.0000
   114 O36     -3.4036  -2.3815   5.9519   O.2       2 RES2   0.0000
   115 C19      1.1386   2.5187   9.3311   C.1       2 RES2   0.0000
   116 C20      2.4076   0.1671   9.1208   C.1       2 RES2   0.0000
   117 C21      3.3331   2.0810   7.8547   C.1       2 RES2   0.0000
   118 C22      4.6328  -0.5271  10.7747   C.1       2 RES2   0.0000
   119 C23      6.2242   1.1443   9.7692   C.1       2 RES2   0.0000
   120 C24      5.8281   1.0961  12.4885   C.1       2 RES2   0.0000
   121 C25      0.0250   4.7929  13.3762   C.1       2 RES2   0.0000
   122 C26     -0.1803   3.9509  15.8871   C.1       2 RES2   0.0000
   123 C27     -0.3656   6.3932  15.4856   C.1       2 RES2   0.0000
   124 C28     -2.6498   3.5084  17.1820   C.1       2 RES2   0.0000
   125 C29     -3.8245   5.6964  17.2264   C.1       2 RES2   0.0000
   126 C30     -5.0199   3.6263  15.9932   C.1       2 RES2   0.0000
   127 C31     -2.9934   3.2107  10.0471   C.1       2 RES2   0.0000
   128 C32     -4.9019   1.3851  10.2671   C.1       2 RES2   0.0000
   129 C33     -5.2663   3.2313   8.6248   C.1       2 RES2   0.0000
   130 C34     -5.2025  -0.9702   8.6093   C.1       2 RES2   0.0000
   131 C35     -5.7552   0.4129   6.5810   C.1       2 RES2   0.0000
   132 C36     -3.7389  -1.4507   6.5308   C.1       2 RES2   0.0000
   133 C55      3.2731   3.8898   9.9062   C.3       2 RES2   0.0000
   134 H25      3.1175   4.4880   9.1594   H         2 RES2   0.0000
   135 H26      2.8764   4.2389  10.7207   H         2 RES2   0.0000
   136 C56      4.6018   3.4950  10.0491   C.2       2 RES2   0.0000
   137 H27      5.0828   3.3607   9.2655   H         2 RES2   0.0000
   138 C57      5.2789   3.2826  11.2437   C.3       2 RES2   0.0000
   139 H28      4.8397   3.6610  12.0214   H         2 RES2   0.0000
   140 H29      6.2173   3.5264  11.2167   H         2 RES2   0.0000
   141 C58     -2.2177   6.2356  13.5171   C.3       2 RES2   0.0000
   142 H30     -1.7561   7.0600  13.2971   H         2 RES2   0.0000
   143 H31     -2.5302   5.7983  12.7085   H         2 RES2   0.0000
   144 C59     -3.2365   6.4112  14.4821   C.2       2 RES2   0.0000
   145 H32     -3.0725   7.0296  15.1575   H         2 RES2   0.0000
   146 C60     -4.4521   5.7517  14.5207   C.3       2 RES2   0.0000
   147 H33     -4.6962   5.3030  13.6966   H         2 RES2   0.0000
   148 H34     -5.1868   6.2777  14.8738   H         2 RES2   0.0000
   149 C61     -2.7730   3.0115   7.4610   C.3       2 RES2   0.0000
   150 H35     -2.9149   3.9657   7.3549   H         2 RES2   0.0000
   151 H36     -1.8276   2.7985   7.5016   H         2 RES2   0.0000
   152 C62     -3.5028   2.2181   6.5598   C.2       2 RES2   0.0000
   153 H37     -4.3397   2.5391   6.3166   H         2 RES2   0.0000
   154 C63     -3.1197   1.0065   5.9885   C.3       2 RES2   0.0000
   155 H38     -2.1670   0.8326   6.0464   H         2 RES2   0.0000
   156 H39     -3.4401   0.8858   5.0795   H         2 RES2   0.0000
   157 C64      1.9964   0.0670  12.2936   C.3       2 RES2   0.0000
   158 H40      2.2088  -0.6593  11.6876   H         2 RES2   0.0000
   159 H41      2.3246  -0.1713  13.1755   H         2 RES2   0.0000
   160 C65     -2.1344   1.7358  14.6326   C.3       2 RES2   0.0000
   161 H42     -1.5359   1.7550  15.3949   H         2 RES2   0.0000
   162 H43     -2.9258   1.2347  14.8835   H         2 RES2   0.0000
   163 C66     -2.5433  -0.7194  10.3000   C.3       2 RES2   0.0000
   164 H44     -3.4519  -0.8252  10.6222   H         2 RES2   0.0000
   165 H45     -2.2083  -1.5972  10.0549   H         2 RES2   0.0000
   166 C67     -0.3036  -0.2575  11.3653   C.ar      2 RES2   0.0000
   167 H46      0.0868  -0.6959  10.6435   H         2 RES2   0.0000
   168 C68      0.5155   0.2510  12.3495   C.ar      2 RES2   0.0000
   169 C69     -0.0938   0.9186  13.4110   C.ar      2 RES2   0.0000
   170 H47      0.4353   1.2847  14.0826   H         2 RES2   0.0000
   171 C70     -1.4554   1.0478  13.4882   C.ar      2 RES2   0.0000
   172 C71     -2.2476   0.5069  12.4846   C.ar      2 RES2   0.0000
   173 H48     -3.1732   0.5876  12.5387   H         2 RES2   0.0000
   174 C72     -1.6843  -0.1473  11.4039   C.ar      2 RES2   0.0000
@<TRIPOS>BOND
     1     1     2    1
     2     2     7    1
     3     3     4    1
     4     4     8    1
     5     5     6    1
     6     6     9    1
     7     7     1    1
     8     8     3    1
     9     9     5    1
    10    10    28    3
    11    11    29    3
    12    12    30    3
    13    13    31    3
    14    14    32    3
    15    15    33    3
    16    16    34    3
    17    17    35    3
    18    18    36    3
    19    19    37    3
    20    20    38    3
    21    21    39    3
    22    22    40    3
    23    23    41    3
    24    24    42    3
    25    25    43    3
    26    26    44    3
    27    27    45    3
    28    28     1    1
    29    29     1    1
    30    30     1    1
    31    31     2    1
    32    32     2    1
    33    33     2    1
    34    34     3    1
    35    35     3    1
    36    36     3    1
    37    37     4    1
    38    38     4    1
    39    39     4    1
    40    40     5    1
    41    41     5    1
    42    42     5    1
    43    43     6    1
    44    44     6    1
    45    45     6    1
    46    46     1    1
    47    47    46    1
    48    48    46    1
    49    49    46   un
    50    50    49    1
    51    51     2    1
    52    52    51    1
    53    53    51    1
    54    54     4    1
    55    55    54    1
    56    56    54    1
    57    57    54   un
    58    58    57    1
    59    59     3    1
    60    60    59    1
    61    61    59    1
    62    62     6    1
    63    63    62    1
    64    64    62    1
    65    65    62   un
    66    66    65    1
    67    67     5    1
    68    68    67    1
    69    69    67    1
    70    70     7    1
    71    71    70    1
    72    72    70    1
    73    73     8    1
    74    74    73    1
    75    75    73    1
    76    76     9    1
    77    77    76    1
    78    78    76    1
    79    79    80    1
    80    81    70    1
    81    82    81   ar
    82    83    82    1
    83    84    73    1
    84    85    84   ar
    85    86    85    1
    86    87    76    1
    87    49    51   un
    88    57    59   un
    89    65    67   un
    90    79    81   ar
    91    79    87   ar
    92    82    84   ar
    93    85    87   ar
    94    88    89    1
    95    89    94    1
    96    90    91    1
    97    91    95    1
    98    92    93    1
    99    93    96    1
   100    94    88    1
   101    95    90    1
   102    96    92    1
   103    97   115    3
   104    98   116    3
   105    99   117    3
   106   100   118    3
   107   101   119    3
   108   102   120    3
   109   103   121    3
   110   104   122    3
   111   105   123    3
   112   106   124    3
   113   107   125    3
   114   108   126    3
   115   109   127    3
   116   110   128    3
   117   111   129    3
   118   112   130    3
   119   113   131    3
   120   114   132    3
   121   115    88    1
   122   116    88    1
   123   117    88    1
   124   118    89    1
   125   119    89    1
   126   120    89    1
   127   121    90    1
   128   122    90    1
   129   123    90    1
   130   124    91    1
   131   125    91    1
   132   126    91    1
   133   127    92    1
   134   128    92    1
   135   129    92    1
   136   130    93    1
   137   131    93    1
   138   132    93    1
   139   133    88    1
   140   134   133    1
   141   135   133    1
   142   136   133   un
   143   137   136    1
   144   138    89    1
   145   139   138    1
   146   140   138    1
   147   141    90    1
   148   142   141    1
   149   143   141    1
   150   144   141   un
   151   145   144    1
   152   146    91    1
   153   147   146    1
   154   148   146    1
   155   149    92    1
   156   150   149    1
   157   151   149    1
   158   152   149   un
   159   153   152    1
   160   154    93    1
   161   155   154    1
   162   156   154    1
   163   157    94    1
   164   158   157    1
   165   159   157    1
   166   160    95    1
   167   161   160    1
   168   162   160    1
   169   163    96    1
   170   164   163    1
   171   165   163    1
   172   166   167    1
   173   168   157    1
   174   169   168   ar
   175   170   169    1
   176   171   160    1
   177   172   171   ar
   178   173   172    1
   179   174   163    1
   180   136   138   un
   181   144   146   un
   182   152   154   un
   183   166   168   ar
   184   166   174   ar
   185   169   171   ar
   186   172   174   ar
@<TRIPOS>SUBSTRUCTURE
     1 RES1        1 GROUP             0 ****  ****    0  
     2 RES2       88 GROUP             0 ****  ****    0  
@<TRIPOS>CRYSIN
   14.9871   16.8280   20.6820   99.3620  104.0270  110.7080     2     1
