@<TRIPOS>MOLECULE
KAXZUF
   214   222     1     0     0
SMALL
NO_CHARGES
****
Generated from the CSD

@<TRIPOS>ATOM
     1 Fe1      4.6769  18.9017  -3.1788   Fe        1 RES1   0.0000
     2 O1       5.0867  20.5633  -2.3023   O.3       1 RES1   0.0000
     3 C1       5.3375  20.4523  -1.0366   C.ar      1 RES1   0.0000
     4 C2       5.5627  21.5720  -0.1784   C.ar      1 RES1   0.0000
     5 C3       5.7060  21.2972   1.1673   C.ar      1 RES1   0.0000
     6 H1       5.8266  22.0291   1.7608   H         1 RES1   0.0000
     7 C4       5.6845  19.9840   1.7224   C.ar      1 RES1   0.0000
     8 C5       5.5579  18.9056   0.8821   C.ar      1 RES1   0.0000
     9 H2       5.5862  18.0229   1.2336   H         1 RES1   0.0000
    10 C6       5.3848  19.1099  -0.5130   C.ar      1 RES1   0.0000
    11 N1       5.2914  18.1747  -1.4853   N.2       1 RES1   0.0000
    12 C7       5.3025  16.7906  -1.1596   C.ar      1 RES1   0.0000
    13 C8       4.3972  16.2411  -0.2650   C.ar      1 RES1   0.0000
    14 H3       3.7281  16.7910   0.1260   H         1 RES1   0.0000
    15 C9       4.4605  14.8800   0.0686   C.ar      1 RES1   0.0000
    16 C10      5.4258  14.0988  -0.5611   C.ar      1 RES1   0.0000
    17 H4       5.4654  13.1715  -0.3548   H         1 RES1   0.0000
    18 C11      6.3433  14.6254  -1.4886   C.ar      1 RES1   0.0000
    19 C12      6.2697  15.9854  -1.7771   C.ar      1 RES1   0.0000
    20 H5       6.8788  16.3706  -2.3975   H         1 RES1   0.0000
    21 C13      5.6331  22.9873  -0.7600   C.3       1 RES1   0.0000
    22 C14      5.8895  24.0368   0.3366   C.3       1 RES1   0.0000
    23 H6       6.7321  23.8323   0.7925   H         1 RES1   0.0000
    24 H7       5.1534  24.0198   0.9849   H         1 RES1   0.0000
    25 H8       5.9451  24.9265  -0.0696   H         1 RES1   0.0000
    26 C15      6.7972  23.0571  -1.7622   C.3       1 RES1   0.0000
    27 H9       7.6347  22.8289  -1.3065   H         1 RES1   0.0000
    28 H10      6.8605  23.9641  -2.1256   H         1 RES1   0.0000
    29 H11      6.6392  22.4217  -2.4904   H         1 RES1   0.0000
    30 C16      4.3118  23.3448  -1.4567   C.3       1 RES1   0.0000
    31 H12      4.3695  24.2527  -1.8205   H         1 RES1   0.0000
    32 H13      3.5784  23.2976  -0.8091   H         1 RES1   0.0000
    33 H14      4.1449  22.7117  -2.1853   H         1 RES1   0.0000
    34 C17      5.7076  19.7877   3.2431   C.3       1 RES1   0.0000
    35 C18      4.2547  19.5341   3.6918   C.3       1 RES1   0.0000
    36 H15      4.2313  19.4027   4.6624   H         1 RES1   0.0000
    37 H16      3.9102  18.7319   3.2464   H         1 RES1   0.0000
    38 H17      3.6989  20.3051   3.4520   H         1 RES1   0.0000
    39 C19      6.2329  21.0197   3.9882   C.3       1 RES1   0.0000
    40 H18      6.2280  20.8456   4.9509   H         1 RES1   0.0000
    41 H19      5.6588  21.7889   3.7936   H         1 RES1   0.0000
    42 H20      7.1485  21.2132   3.6974   H         1 RES1   0.0000
    43 C20      6.5720  18.5940   3.6417   C.3       1 RES1   0.0000
    44 H21      6.5658  18.4975   4.6159   H         1 RES1   0.0000
    45 H22      7.4918  18.7392   3.3326   H         1 RES1   0.0000
    46 H23      6.2142  17.7797   3.2298   H         1 RES1   0.0000
    47 C21      3.5051  14.3271   1.1331   C.3       1 RES1   0.0000
    48 C22      3.6708  12.8138   1.3463   C.3       1 RES1   0.0000
    49 H24      3.0418  12.5094   2.0327   H         1 RES1   0.0000
    50 H25      4.5869  12.6236   1.6348   H         1 RES1   0.0000
    51 H26      3.4892  12.3439   0.5074   H         1 RES1   0.0000
    52 C23      3.7919  15.0306   2.4598   C.3       1 RES1   0.0000
    53 H27      3.1897  14.6832   3.1502   H         1 RES1   0.0000
    54 H28      3.6496  15.9942   2.3577   H         1 RES1   0.0000
    55 H29      4.7204  14.8648   2.7225   H         1 RES1   0.0000
    56 C24      2.0431  14.5944   0.7096   C.3       1 RES1   0.0000
    57 H30      1.4355  14.2364   1.3894   H         1 RES1   0.0000
    58 H31      1.8663  14.1573  -0.1492   H         1 RES1   0.0000
    59 H32      1.9007  15.5591   0.6201   H         1 RES1   0.0000
    60 C25      7.3877  13.7083  -2.1392   C.3       1 RES1   0.0000
    61 C26      8.1274  12.9020  -1.0601   C.3       1 RES1   0.0000
    62 H33      8.7970  12.3248  -1.4856   H         1 RES1   0.0000
    63 H34      7.4848  12.3497  -0.5670   H         1 RES1   0.0000
    64 H35      8.5729  13.5172  -0.4410   H         1 RES1   0.0000
    65 C27      6.6660  12.7400  -3.0962   C.3       1 RES1   0.0000
    66 H36      7.3230  12.1491  -3.5216   H         1 RES1   0.0000
    67 H37      6.1945  13.2535  -3.7869   H         1 RES1   0.0000
    68 H38      6.0207  12.2018  -2.5898   H         1 RES1   0.0000
    69 C28      8.4234  14.5011  -2.9447   C.3       1 RES1   0.0000
    70 H39      9.0734  13.8834  -3.3393   H         1 RES1   0.0000
    71 H40      8.8882  15.1285  -2.3511   H         1 RES1   0.0000
    72 H41      7.9717  14.9981  -3.6576   H         1 RES1   0.0000
    73 O2       6.3736  18.9283  -4.0041   O.3       1 RES1   0.0000
    74 C29      6.6179  17.8987  -4.7652   C.ar      1 RES1   0.0000
    75 C30      7.8511  17.7077  -5.4562   C.ar      1 RES1   0.0000
    76 C31      7.9175  16.6136  -6.2965   C.ar      1 RES1   0.0000
    77 H42      8.7319  16.4614  -6.7614   H         1 RES1   0.0000
    78 C32      6.8434  15.6949  -6.5124   C.ar      1 RES1   0.0000
    79 C33      5.6772  15.8592  -5.8024   C.ar      1 RES1   0.0000
    80 H43      4.9577  15.2515  -5.9192   H         1 RES1   0.0000
    81 C34      5.5580  16.9450  -4.8955   C.ar      1 RES1   0.0000
    82 N2       4.4789  17.2641  -4.1384   N.2       1 RES1   0.0000
    83 C35      3.2622  16.5284  -4.3238   C.ar      1 RES1   0.0000
    84 C36      3.1212  15.2240  -3.8460   C.ar      1 RES1   0.0000
    85 H44      3.8164  14.8252  -3.3359   H         1 RES1   0.0000
    86 C37      1.9502  14.5071  -4.1242   C.ar      1 RES1   0.0000
    87 C38      0.9403  15.1438  -4.8434   C.ar      1 RES1   0.0000
    88 H45      0.1365  14.6670  -5.0172   H         1 RES1   0.0000
    89 C39      1.0570  16.4503  -5.3203   C.ar      1 RES1   0.0000
    90 C40      2.2379  17.1365  -5.0464   C.ar      1 RES1   0.0000
    91 H46      2.3469  18.0288  -5.3554   H         1 RES1   0.0000
    92 C41      9.0063  18.6913  -5.2360   C.3       1 RES1   0.0000
    93 C42      9.3957  18.7037  -3.7435   C.3       1 RES1   0.0000
    94 H47      8.6162  18.9560  -3.2033   H         1 RES1   0.0000
    95 H48     10.1160  19.3529  -3.5979   H         1 RES1   0.0000
    96 H49      9.7026  17.8120  -3.4785   H         1 RES1   0.0000
    97 C43     10.2410  18.2990  -6.0558   C.3       1 RES1   0.0000
    98 H50     10.9617  18.9413  -5.8893   H         1 RES1   0.0000
    99 H51     10.0147  18.3041  -7.0101   H         1 RES1   0.0000
   100 H52     10.5346  17.4018  -5.7931   H         1 RES1   0.0000
   101 C44      8.5768  20.1079  -5.6738   C.3       1 RES1   0.0000
   102 H53      7.7941  20.3871  -5.1531   H         1 RES1   0.0000
   103 H54      8.3501  20.1000  -6.6288   H         1 RES1   0.0000
   104 H55      9.3133  20.7357  -5.5179   H         1 RES1   0.0000
   105 C45      7.0376  14.5560  -7.5225   C.3       1 RES1   0.0000
   106 C46      5.7396  13.7824  -7.7662   C.3       1 RES1   0.0000
   107 H56      5.9026  13.0660  -8.4128   H         1 RES1   0.0000
   108 H57      5.0569  14.3917  -8.1177   H         1 RES1   0.0000
   109 H58      5.4278  13.3941  -6.9206   H         1 RES1   0.0000
   110 C47      7.4978  15.1257  -8.8748   C.3       1 RES1   0.0000
   111 H59      7.6276  14.3917  -9.5104   H         1 RES1   0.0000
   112 H60      8.3433  15.6074  -8.7544   H         1 RES1   0.0000
   113 H61      6.8173  15.7407  -9.2186   H         1 RES1   0.0000
   114 C48      8.1067  13.5892  -6.9906   C.3       1 RES1   0.0000
   115 H62      8.2409  12.8639  -7.6336   H         1 RES1   0.0000
   116 H63      7.8119  13.2154  -6.1347   H         1 RES1   0.0000
   117 H64      8.9499  14.0723  -6.8642   H         1 RES1   0.0000
   118 C49      1.7648  13.0300  -3.7481   C.3       1 RES1   0.0000
   119 C50      0.4632  12.8406  -2.9573   C.3       1 RES1   0.0000
   120 H65     -0.2893  13.1905  -3.4785   H         1 RES1   0.0000
   121 H66      0.5237  13.3238  -2.1057   H         1 RES1   0.0000
   122 H67      0.3241  11.8869  -2.7822   H         1 RES1   0.0000
   123 C51      1.6869  12.2085  -5.0590   C.3       1 RES1   0.0000
   124 H68      0.9473  12.5402  -5.6108   H         1 RES1   0.0000
   125 H69      1.5368  11.2643  -4.8448   H         1 RES1   0.0000
   126 H70      2.5290  12.3014  -5.5544   H         1 RES1   0.0000
   127 C52      2.9267  12.4893  -2.9244   C.3       1 RES1   0.0000
   128 H71      2.7648  11.5470  -2.7092   H         1 RES1   0.0000
   129 H72      3.0058  13.0045  -2.0957   H         1 RES1   0.0000
   130 H73      3.7563  12.5694  -3.4387   H         1 RES1   0.0000
   131 C53     -0.0811  17.0715  -6.1423   C.3       1 RES1   0.0000
   132 C54     -1.3234  17.2173  -5.2609   C.3       1 RES1   0.0000
   133 H74     -2.0486  17.6201  -5.7832   H         1 RES1   0.0000
   134 H75     -1.1146  17.7929  -4.4966   H         1 RES1   0.0000
   135 H76     -1.6022  16.3354  -4.9409   H         1 RES1   0.0000
   136 C55      0.2932  18.4288  -6.7153   C.3       1 RES1   0.0000
   137 H77     -0.4626  18.7875  -7.2257   H         1 RES1   0.0000
   138 H78      1.0683  18.3320  -7.3053   H         1 RES1   0.0000
   139 H79      0.5153  19.0424  -5.9822   H         1 RES1   0.0000
   140 C56     -0.4205  16.1502  -7.3238   C.3       1 RES1   0.0000
   141 H80     -1.1470  16.5464  -7.8491   H         1 RES1   0.0000
   142 H81     -0.7019  15.2749  -6.9836   H         1 RES1   0.0000
   143 H82      0.3709  16.0410  -7.8922   H         1 RES1   0.0000
   144 O3       2.9468  18.8734  -2.3909   O.3       1 RES1   0.0000
   145 C57      2.1231  19.7329  -2.9135   C.ar      1 RES1   0.0000
   146 C58      0.8207  19.9933  -2.3915   C.ar      1 RES1   0.0000
   147 C59      0.0595  20.9115  -3.0826   C.ar      1 RES1   0.0000
   148 H83     -0.8049  21.1136  -2.7457   H         1 RES1   0.0000
   149 C60      0.4865  21.5810  -4.2770   C.ar      1 RES1   0.0000
   150 C61      1.7443  21.3432  -4.7615   C.ar      1 RES1   0.0000
   151 H84      2.0509  21.7904  -5.5411   H         1 RES1   0.0000
   152 C62      2.5883  20.4200  -4.0854   C.ar      1 RES1   0.0000
   153 N3       3.8087  20.0108  -4.4753   N.2       1 RES1   0.0000
   154 C63      4.4454  20.5954  -5.6071   C.ar      1 RES1   0.0000
   155 C64      4.6312  19.8242  -6.7518   C.ar      1 RES1   0.0000
   156 H85      4.3339  18.9223  -6.7681   H         1 RES1   0.0000
   157 C65      5.2504  20.3694  -7.8736   C.ar      1 RES1   0.0000
   158 C66      5.6832  21.6975  -7.8043   C.ar      1 RES1   0.0000
   159 H86      6.1054  22.0804  -8.5654   H         1 RES1   0.0000
   160 C67      5.5196  22.4832  -6.6603   C.ar      1 RES1   0.0000
   161 C68      4.8878  21.9114  -5.5527   C.ar      1 RES1   0.0000
   162 H87      4.7607  22.4232  -4.7619   H         1 RES1   0.0000
   163 C69      0.3495  19.2709  -1.1222   C.3       1 RES1   0.0000
   164 C70      0.3460  17.7493  -1.3596   C.3       1 RES1   0.0000
   165 H88      0.0470  17.2920  -0.5471   H         1 RES1   0.0000
   166 H89      1.2517  17.4516  -1.5884   H         1 RES1   0.0000
   167 H90     -0.2638  17.5351  -2.0957   H         1 RES1   0.0000
   168 C71     -1.0736  19.6916  -0.7249   C.3       1 RES1   0.0000
   169 H91     -1.3407  19.2152   0.0895   H         1 RES1   0.0000
   170 H92     -1.6943  19.4701  -1.4491   H         1 RES1   0.0000
   171 H93     -1.0939  20.6581  -0.5604   H         1 RES1   0.0000
   172 C72      1.2885  19.6118   0.0494   C.3       1 RES1   0.0000
   173 H94      0.9840  19.1493   0.8589   H         1 RES1   0.0000
   174 H95      1.2798  20.5790   0.2023   H         1 RES1   0.0000
   175 H96      2.2003  19.3236  -0.1691   H         1 RES1   0.0000
   176 C73     -0.4830  22.5510  -4.9608   C.3       1 RES1   0.0000
   177 C74      0.0785  23.0643  -6.2919   C.3       1 RES1   0.0000
   178 H97      0.2248  22.3074  -6.8974   H         1 RES1   0.0000
   179 H98      0.9292  23.5247  -6.1314   H         1 RES1   0.0000
   180 H99     -0.5603  23.6887  -6.6984   H         1 RES1   0.0000
   181 C75     -1.8216  21.8437  -5.2450   C.3       1 RES1   0.0000
   182 H100    -1.6679  21.0814  -5.8429   H         1 RES1   0.0000
   183 H101    -2.4391  22.4730  -5.6738   H         1 RES1   0.0000
   184 H102    -2.2092  21.5267  -4.4037   H         1 RES1   0.0000
   185 C76     -0.7077  23.7487  -4.0237   C.3       1 RES1   0.0000
   186 H103    -1.3263  24.3816  -4.4435   H         1 RES1   0.0000
   187 H104     0.1485  24.1941  -3.8533   H         1 RES1   0.0000
   188 H105    -1.0876  23.4339  -3.1768   H         1 RES1   0.0000
   189 C77      5.4881  19.5466  -9.1513   C.3       1 RES1   0.0000
   190 C78      4.9405  20.2739 -10.3693   C.3       1 RES1   0.0000
   191 H106     5.0994  19.7338 -11.1718   H         1 RES1   0.0000
   192 H107     5.3914  21.1385 -10.4621   H         1 RES1   0.0000
   193 H108     3.9779  20.4178 -10.2599   H         1 RES1   0.0000
   194 C79      6.9949  19.3015  -9.3058   C.3       1 RES1   0.0000
   195 H109     7.3328  18.8373  -8.5123   H         1 RES1   0.0000
   196 H110     7.4574  20.1600  -9.4043   H         1 RES1   0.0000
   197 H111     7.1571  18.7509 -10.1007   H         1 RES1   0.0000
   198 C80      4.8168  18.1729  -9.0737   C.3       1 RES1   0.0000
   199 H112     5.1577  17.6860  -8.2934   H         1 RES1   0.0000
   200 H113     5.0145  17.6655  -9.8885   H         1 RES1   0.0000
   201 H114     3.8481  18.2880  -8.9898   H         1 RES1   0.0000
   202 C81      6.0625  23.9165  -6.5731   C.3       1 RES1   0.0000
   203 C82      7.2804  23.9069  -5.6781   C.3       1 RES1   0.0000
   204 H115     7.0435  23.5247  -4.8083   H         1 RES1   0.0000
   205 H116     7.6024  24.8240  -5.5544   H         1 RES1   0.0000
   206 H117     7.9846  23.3665  -6.0916   H         1 RES1   0.0000
   207 C83      4.9911  24.8417  -5.9264   C.3       1 RES1   0.0000
   208 H118     4.1961  24.8708  -6.4995   H         1 RES1   0.0000
   209 H119     5.3559  25.7453  -5.8296   H         1 RES1   0.0000
   210 H120     4.7453  24.4915  -5.0437   H         1 RES1   0.0000
   211 C84      6.3805  24.5043  -7.9204   C.3       1 RES1   0.0000
   212 H121     5.5763  24.4915  -8.4791   H         1 RES1   0.0000
   213 H122     7.0854  23.9758  -8.3498   H         1 RES1   0.0000
   214 H123     6.6879  25.4289  -7.8093   H         1 RES1   0.0000
@<TRIPOS>BOND
     1     1     2    1
     2     2     3    1
     3     3     4   ar
     4     4     5   ar
     5     5     6    1
     6     7     5   ar
     7     8     7   ar
     8     9     8    1
     9    10     3   ar
    10    11     1    1
    11    12    11    1
    12    13    12   ar
    13    14    13    1
    14    15    13   ar
    15    16    15   ar
    16    17    16    1
    17    18    16   ar
    18    19    12   ar
    19    20    19    1
    20    21     4    1
    21    22    21    1
    22    23    22    1
    23    24    22    1
    24    25    22    1
    25    26    21    1
    26    27    26    1
    27    28    26    1
    28    29    26    1
    29    30    21    1
    30    31    30    1
    31    32    30    1
    32    33    30    1
    33    34     7    1
    34    35    34    1
    35    36    35    1
    36    37    35    1
    37    38    35    1
    38    39    34    1
    39    40    39    1
    40    41    39    1
    41    42    39    1
    42    43    34    1
    43    44    43    1
    44    45    43    1
    45    46    43    1
    46    47    15    1
    47    48    47    1
    48    49    48    1
    49    50    48    1
    50    51    48    1
    51    52    47    1
    52    53    52    1
    53    54    52    1
    54    55    52    1
    55    56    47    1
    56    57    56    1
    57    58    56    1
    58    59    56    1
    59    60    18    1
    60    61    60    1
    61    62    61    1
    62    63    61    1
    63    64    61    1
    64    65    60    1
    65    66    65    1
    66    67    65    1
    67    68    65    1
    68    69    60    1
    69    70    69    1
    70    71    69    1
    71    72    69    1
    72    73     1    1
    73    74    73    1
    74    75    74   ar
    75    76    75   ar
    76    77    76    1
    77    78    76   ar
    78    79    78   ar
    79    80    79    1
    80    81    74   ar
    81    82     1    1
    82    83    82    1
    83    84    83   ar
    84    85    84    1
    85    86    84   ar
    86    87    86   ar
    87    88    87    1
    88    89    87   ar
    89    90    83   ar
    90    91    90    1
    91    92    75    1
    92    93    92    1
    93    94    93    1
    94    95    93    1
    95    96    93    1
    96    97    92    1
    97    98    97    1
    98    99    97    1
    99   100    97    1
   100   101    92    1
   101   102   101    1
   102   103   101    1
   103   104   101    1
   104   105    78    1
   105   106   105    1
   106   107   106    1
   107   108   106    1
   108   109   106    1
   109   110   105    1
   110   111   110    1
   111   112   110    1
   112   113   110    1
   113   114   105    1
   114   115   114    1
   115   116   114    1
   116   117   114    1
   117   118    86    1
   118   119   118    1
   119   120   119    1
   120   121   119    1
   121   122   119    1
   122   123   118    1
   123   124   123    1
   124   125   123    1
   125   126   123    1
   126   127   118    1
   127   128   127    1
   128   129   127    1
   129   130   127    1
   130   131    89    1
   131   132   131    1
   132   133   132    1
   133   134   132    1
   134   135   132    1
   135   136   131    1
   136   137   136    1
   137   138   136    1
   138   139   136    1
   139   140   131    1
   140   141   140    1
   141   142   140    1
   142   143   140    1
   143   144     1    1
   144   145   144    1
   145   146   145   ar
   146   147   146   ar
   147   148   147    1
   148   149   147   ar
   149   150   149   ar
   150   151   150    1
   151   152   145   ar
   152   153     1    1
   153   154   153    1
   154   155   154   ar
   155   156   155    1
   156   157   155   ar
   157   158   157   ar
   158   159   158    1
   159   160   158   ar
   160   161   154   ar
   161   162   161    1
   162   163   146    1
   163   164   163    1
   164   165   164    1
   165   166   164    1
   166   167   164    1
   167   168   163    1
   168   169   168    1
   169   170   168    1
   170   171   168    1
   171   172   163    1
   172   173   172    1
   173   174   172    1
   174   175   172    1
   175   176   149    1
   176   177   176    1
   177   178   177    1
   178   179   177    1
   179   180   177    1
   180   181   176    1
   181   182   181    1
   182   183   181    1
   183   184   181    1
   184   185   176    1
   185   186   185    1
   186   187   185    1
   187   188   185    1
   188   189   157    1
   189   190   189    1
   190   191   190    1
   191   192   190    1
   192   193   190    1
   193   194   189    1
   194   195   194    1
   195   196   194    1
   196   197   194    1
   197   198   189    1
   198   199   198    1
   199   200   198    1
   200   201   198    1
   201   202   160    1
   202   203   202    1
   203   204   203    1
   204   205   203    1
   205   206   203    1
   206   207   202    1
   207   208   207    1
   208   209   207    1
   209   210   207    1
   210   211   202    1
   211   212   211    1
   212   213   211    1
   213   214   211    1
   214     8    10   ar
   215    10    11    1
   216    18    19   ar
   217    79    81   ar
   218    81    82    1
   219    89    90   ar
   220   150   152   ar
   221   152   153    1
   222   160   161   ar
@<TRIPOS>SUBSTRUCTURE
     1 RES1        1 GROUP             0 ****  ****    0  
@<TRIPOS>CRYSIN
   16.6560   14.6480   33.4330   90.0000   97.3200   90.0000    14     1
