@<TRIPOS>MOLECULE
KEBMEK
   195   213     3     0     0
SMALL
USER_CHARGES
****
Generated from the CSD

@<TRIPOS>ATOM
     1 Fe1      1.8430   4.8385  10.4558   Fe        1 RES1   2.0000
     2 O1      -2.5933  11.3229  10.6985   O.3       1 RES1   0.0000
     3 O2       8.3528   1.4922   6.6899   O.3       1 RES1   0.0000
     4 O3       6.8014  -0.2354  13.7837   O.3       1 RES1   0.0000
     5 O4      -4.7889   4.6557   6.2506   O.3       1 RES1   0.0000
     6 O5      -4.8756   3.5031  14.0251   O.3       1 RES1   0.0000
     7 O6       8.6324   8.7204  11.7896   O.3       1 RES1   0.0000
     8 N1       0.5879   4.7720  11.9719   N.ar      1 RES1   0.0000
     9 N2       2.3515   3.0598  11.1399   N.ar      1 RES1   0.0000
    10 N3       3.1608   5.8082  11.5340   N.ar      1 RES1   0.0000
    11 N4       1.3160   6.6548   9.9492   N.ar      1 RES1   0.0000
    12 N5       0.6038   3.9446   9.2169   N.ar      1 RES1   0.0000
    13 N6       3.0481   4.7479   8.9012   N.ar      1 RES1   0.0000
    14 C1      -3.7749  11.6102   9.9461   C.3       1 RES1   0.0000
    15 H1      -3.9563  10.8717   9.3271   H         1 RES1   0.0000
    16 H2      -3.6460  12.4376   9.4384   H         1 RES1   0.0000
    17 H3      -4.5335  11.7183  10.5572   H         1 RES1   0.0000
    18 C2      -3.4682   8.1994  12.4270   C.ar      1 RES1   0.0000
    19 H4      -4.2206   7.6436  12.5952   H         1 RES1   0.0000
    20 C3      -3.6291   9.3354  11.6489   C.ar      1 RES1   0.0000
    21 H5      -4.4791   9.5467  11.2812   H         1 RES1   0.0000
    22 C4      -2.5503  10.1603  11.4093   C.ar      1 RES1   0.0000
    23 C5      -1.3051   9.8296  11.9509   C.ar      1 RES1   0.0000
    24 H6      -0.5570  10.3933  11.7919   H         1 RES1   0.0000
    25 C6      -1.1563   8.6980  12.7106   C.ar      1 RES1   0.0000
    26 H7      -0.3012   8.4867  13.0677   H         1 RES1   0.0000
    27 C7      -2.2297   7.8501  12.9703   C.ar      1 RES1   0.0000
    28 C8      -2.0907   6.6232  13.7891   C.ar      1 RES1   0.0000
    29 C9      -2.9051   6.4033  14.8752   C.ar      1 RES1   0.0000
    30 H8      -3.5452   7.0654  15.1118   H         1 RES1   0.0000
    31 C10     -2.8196   5.2280  15.6466   C.ar      1 RES1   0.0000
    32 H9      -3.3980   5.1141  16.3922   H         1 RES1   0.0000
    33 C11     -1.9198   4.2509  15.3418   C.ar      1 RES1   0.0000
    34 H10     -1.8669   3.4656  15.8724   H         1 RES1   0.0000
    35 C12     -1.0623   4.4210  14.2214   C.ar      1 RES1   0.0000
    36 C13     -1.1370   5.6052  13.4535   C.ar      1 RES1   0.0000
    37 C14     -0.2776   5.7077  12.3348   C.ar      1 RES1   0.0000
    38 H11     -0.3240   6.4976  11.8102   H         1 RES1   0.0000
    39 C15      0.6443   3.6091  12.7199   C.ar      1 RES1   0.0000
    40 C16     -0.1555   3.4202  13.8175   C.ar      1 RES1   0.0000
    41 H12     -0.0974   2.6087  14.3085   H         1 RES1   0.0000
    42 C17      1.6049   2.6228  12.2275   C.ar      1 RES1   0.0000
    43 C18      1.7623   1.3749  12.7546   C.ar      1 RES1   0.0000
    44 H13      1.2054   1.0944  13.4716   H         1 RES1   0.0000
    45 C19      2.7377   0.4956  12.2504   C.ar      1 RES1   0.0000
    46 C20      3.5520   0.9629  11.1785   C.ar      1 RES1   0.0000
    47 C21      3.2822   2.2366  10.6615   C.ar      1 RES1   0.0000
    48 H14      3.7981   2.5329   9.9200   H         1 RES1   0.0000
    49 C22      2.9325  -0.7995  12.7717   C.ar      1 RES1   0.0000
    50 H15      2.3725  -1.1219  13.4686   H         1 RES1   0.0000
    51 C23      3.9269  -1.5865  12.2719   C.ar      1 RES1   0.0000
    52 H16      4.0630  -2.4572  12.6272   H         1 RES1   0.0000
    53 C24      4.7522  -1.1202  11.2347   C.ar      1 RES1   0.0000
    54 H17      5.4456  -1.6829  10.9139   H         1 RES1   0.0000
    55 C25      4.5928   0.1177  10.6688   C.ar      1 RES1   0.0000
    56 C26      5.4997   0.5503   9.5705   C.ar      1 RES1   0.0000
    57 C27      5.5152  -0.1346   8.3648   C.ar      1 RES1   0.0000
    58 H18      4.8840  -0.8294   8.2205   H         1 RES1   0.0000
    59 C28      6.4297   0.1686   7.3611   C.ar      1 RES1   0.0000
    60 H19      6.4102  -0.3029   6.5377   H         1 RES1   0.0000
    61 C29      7.3661   1.1605   7.5710   C.ar      1 RES1   0.0000
    62 C30      7.3437   1.8780   8.7553   C.ar      1 RES1   0.0000
    63 H20      7.9690   2.5777   8.8927   H         1 RES1   0.0000
    64 C31      6.4211   1.5838   9.7376   C.ar      1 RES1   0.0000
    65 H21      6.4123   2.0924  10.5404   H         1 RES1   0.0000
    66 C32      8.3952   0.7716   5.4536   C.3       1 RES1   0.0000
    67 H22      8.4786  -0.1858   5.6368   H         1 RES1   0.0000
    68 H23      9.1652   1.0703   4.9265   H         1 RES1   0.0000
    69 H24      7.5712   0.9361   4.9509   H         1 RES1   0.0000
    70 C33      7.9647  -0.8342  13.2165   C.3       1 RES1   0.0000
    71 H25      7.9939  -0.6470  12.2553   H         1 RES1   0.0000
    72 H26      7.9358  -1.8033  13.3588   H         1 RES1   0.0000
    73 H27      8.7651  -0.4646  13.6454   H         1 RES1   0.0000
    74 C34      7.4219   3.3300  13.1229   C.ar      1 RES1   0.0000
    75 H28      8.0735   3.8992  12.7263   H         1 RES1   0.0000
    76 C35      7.6198   1.9527  13.1032   C.ar      1 RES1   0.0000
    77 H29      8.3860   1.5831  12.6805   H         1 RES1   0.0000
    78 C36      6.6851   1.1281  13.7093   C.ar      1 RES1   0.0000
    79 C37      5.5501   1.6702  14.2882   C.ar      1 RES1   0.0000
    80 H30      4.9027   1.1013  14.6880   H         1 RES1   0.0000
    81 C38      5.3610   3.0354  14.2850   C.ar      1 RES1   0.0000
    82 H31      4.5796   3.4002  14.6834   H         1 RES1   0.0000
    83 C39      6.3005   3.8916  13.7048   C.ar      1 RES1   0.0000
    84 C40      6.1435   5.3746  13.7027   C.ar      1 RES1   0.0000
    85 C41      7.0484   6.1796  14.3542   C.ar      1 RES1   0.0000
    86 H32      7.7703   5.7783  14.8252   H         1 RES1   0.0000
    87 C42      6.9322   7.5833  14.3391   C.ar      1 RES1   0.0000
    88 H33      7.5605   8.1082  14.8191   H         1 RES1   0.0000
    89 C43      5.9314   8.2021  13.6454   C.ar      1 RES1   0.0000
    90 H34      5.8611   9.1509  13.6500   H         1 RES1   0.0000
    91 C44      4.9991   7.4237  12.9201   C.ar      1 RES1   0.0000
    92 C45      5.0839   6.0058  12.9831   C.ar      1 RES1   0.0000
    93 C46      4.1160   5.2693  12.2774   C.ar      1 RES1   0.0000
    94 H35      4.1495   4.3225  12.3376   H         1 RES1   0.0000
    95 C47      3.1218   7.1907  11.4175   C.ar      1 RES1   0.0000
    96 C48      3.9993   7.9846  12.1008   C.ar      1 RES1   0.0000
    97 H36      3.9343   8.9307  12.0220   H         1 RES1   0.0000
    98 C49      2.0827   7.6714  10.4977   C.ar      1 RES1   0.0000
    99 C50      1.8483   8.9889  10.1917   C.ar      1 RES1   0.0000
   100 H37      2.4130   9.6603  10.5526   H         1 RES1   0.0000
   101 C51      0.7776   9.3561   9.3466   C.ar      1 RES1   0.0000
   102 C52     -0.0407   8.3160   8.8373   C.ar      1 RES1   0.0000
   103 C53      0.2996   6.9883   9.1631   C.ar      1 RES1   0.0000
   104 H38     -0.2297   6.2911   8.7982   H         1 RES1   0.0000
   105 C54      0.4628  10.7003   9.0407   C.ar      1 RES1   0.0000
   106 H39      1.0186  11.4051   9.3530   H         1 RES1   0.0000
   107 C55     -0.6452  10.9815   8.2941   C.ar      1 RES1   0.0000
   108 H40     -0.8613  11.8869   8.0970   H         1 RES1   0.0000
   109 C56     -1.4723   9.9477   7.8126   C.ar      1 RES1   0.0000
   110 H41     -2.2431  10.1731   7.3044   H         1 RES1   0.0000
   111 C57     -1.2000   8.6241   8.0534   C.ar      1 RES1   0.0000
   112 C58     -2.1003   7.5400   7.5719   C.ar      1 RES1   0.0000
   113 C59     -3.3766   7.3892   8.1260   C.ar      1 RES1   0.0000
   114 H42     -3.6569   7.9705   8.8226   H         1 RES1   0.0000
   115 C60     -4.2306   6.4098   7.6758   C.ar      1 RES1   0.0000
   116 H43     -5.0907   6.3186   8.0696   H         1 RES1   0.0000
   117 C61     -3.8469   5.5560   6.6526   C.ar      1 RES1   0.0000
   118 C62     -2.5810   5.6644   6.1130   C.ar      1 RES1   0.0000
   119 H44     -2.3015   5.0693   5.4280   H         1 RES1   0.0000
   120 C63     -1.7195   6.6490   6.5788   C.ar      1 RES1   0.0000
   121 H45     -0.8473   6.7144   6.2084   H         1 RES1   0.0000
   122 C64     -4.5694   3.9336   5.0271   C.3       1 RES1   0.0000
   123 H46     -4.3349   4.5634   4.3137   H         1 RES1   0.0000
   124 H47     -5.3855   3.4518   4.7817   H         1 RES1   0.0000
   125 H48     -3.8376   3.2935   5.1521   H         1 RES1   0.0000
   126 C65     -4.9357   2.4648  15.0099   C.3       1 RES1   0.0000
   127 H49     -5.4907   1.7276  14.6758   H         1 RES1   0.0000
   128 H50     -5.3271   2.8186  15.8358   H         1 RES1   0.0000
   129 H51     -4.0308   2.1372  15.1925   H         1 RES1   0.0000
   130 C66     -3.7310   4.0014  10.6374   C.ar      1 RES1   0.0000
   131 H52     -3.6469   4.7286  10.0344   H         1 RES1   0.0000
   132 C67     -4.2310   4.2231  11.9065   C.ar      1 RES1   0.0000
   133 H53     -4.4902   5.1003  12.1653   H         1 RES1   0.0000
   134 C68     -4.3578   3.1738  12.8041   C.ar      1 RES1   0.0000
   135 C69     -3.9601   1.9100  12.4328   C.ar      1 RES1   0.0000
   136 H54     -4.0210   1.1873  13.0479   H         1 RES1   0.0000
   137 C70     -3.4680   1.6967  11.1492   C.ar      1 RES1   0.0000
   138 H55     -3.2049   0.8191  10.8941   H         1 RES1   0.0000
   139 C71     -3.3508   2.7288  10.2318   C.ar      1 RES1   0.0000
   140 C72     -2.7861   2.4620   8.8799   C.ar      1 RES1   0.0000
   141 C73     -3.4940   1.7700   7.9305   C.ar      1 RES1   0.0000
   142 H56     -4.3809   1.4902   8.1275   H         1 RES1   0.0000
   143 C74     -2.9434   1.4640   6.6758   C.ar      1 RES1   0.0000
   144 H57     -3.4616   0.9774   6.0453   H         1 RES1   0.0000
   145 C75     -1.6756   1.8536   6.3425   C.ar      1 RES1   0.0000
   146 H58     -1.3141   1.6347   5.4920   H         1 RES1   0.0000
   147 C76     -0.9120   2.5846   7.2743   C.ar      1 RES1   0.0000
   148 C77     -1.4597   2.8816   8.5503   C.ar      1 RES1   0.0000
   149 C78     -0.6392   3.5571   9.4718   C.ar      1 RES1   0.0000
   150 H59     -0.9981   3.7478  10.3301   H         1 RES1   0.0000
   151 C79      1.1298   3.6669   7.9700   C.ar      1 RES1   0.0000
   152 C80      0.3993   3.0172   7.0154   C.ar      1 RES1   0.0000
   153 H60      0.7850   2.8564   6.1627   H         1 RES1   0.0000
   154 C81      2.5240   4.0906   7.8016   C.ar      1 RES1   0.0000
   155 C82      3.2879   3.8259   6.6916   C.ar      1 RES1   0.0000
   156 H61      2.8989   3.3761   5.9508   H         1 RES1   0.0000
   157 C83      4.6446   4.2165   6.6383   C.ar      1 RES1   0.0000
   158 C84      5.1461   4.9788   7.7193   C.ar      1 RES1   0.0000
   159 C85      4.2973   5.1977   8.8209   C.ar      1 RES1   0.0000
   160 H62      4.6385   5.6991   9.5527   H         1 RES1   0.0000
   161 C86      5.5076   3.8627   5.5801   C.ar      1 RES1   0.0000
   162 H63      5.1804   3.3555   4.8472   H         1 RES1   0.0000
   163 C87      6.8125   4.2523   5.6147   C.ar      1 RES1   0.0000
   164 H64      7.4005   3.9818   4.9189   H         1 RES1   0.0000
   165 C88      7.2992   5.0473   6.6617   C.ar      1 RES1   0.0000
   166 H65      8.2083   5.3206   6.6489   H         1 RES1   0.0000
   167 C89      6.5007   5.4438   7.7071   C.ar      1 RES1   0.0000
   168 C90      7.0223   6.3076   8.7970   C.ar      1 RES1   0.0000
   169 C91      6.5719   7.6102   8.9565   C.ar      1 RES1   0.0000
   170 H66      5.8939   7.9361   8.3759   H         1 RES1   0.0000
   171 C92      7.0772   8.4537   9.9374   C.ar      1 RES1   0.0000
   172 H67      6.7547   9.3437  10.0176   H         1 RES1   0.0000
   173 C93      8.0506   7.9853  10.7932   C.ar      1 RES1   0.0000
   174 C94      8.4890   6.6858  10.6660   C.ar      1 RES1   0.0000
   175 H68      9.1479   6.3565  11.2645   H         1 RES1   0.0000
   176 C95      7.9902   5.8585   9.6871   C.ar      1 RES1   0.0000
   177 H69      8.3125   4.9661   9.6182   H         1 RES1   0.0000
   178 C96      8.2759  10.0980  11.8925   C.3       1 RES1   0.0000
   179 H70      8.5710  10.5723  11.0876   H         1 RES1   0.0000
   180 H71      8.7082  10.4897  12.6805   H         1 RES1   0.0000
   181 H72      7.3042  10.1765  11.9794   H         1 RES1   0.0000
   182 P1      -1.5708  -1.4250  13.5660   P.3       2 RES2  -1.0000
   183 F1      -1.1553  -0.1593  12.6883   F         2 RES2   0.0000
   184 F2      -1.9610  -2.6775  14.4706   F         2 RES2   0.0000
   185 F3      -0.2316  -1.2579  14.4066   F         2 RES2   0.0000
   186 F4      -2.8748  -1.5655  12.6949   F         2 RES2   0.0000
   187 F5      -2.3282  -0.4722  14.5816   F         2 RES2   0.0000
   188 F6      -0.7980  -2.3798  12.5616   F         2 RES2   0.0000
   189 P2       0.8092   4.9785   3.1972   P.3       3 RES3  -1.0000
   190 F7       0.8980   6.4098   2.5099   F         3 RES3   0.0000
   191 F8       0.7094   3.5599   3.8947   F         3 RES3   0.0000
   192 F9       0.5492   4.3070   1.7961   F         3 RES3   0.0000
   193 F10      1.0633   5.6657   4.6099   F         3 RES3   0.0000
   194 F11      2.3728   4.7827   3.0275   F         3 RES3   0.0000
   195 F12     -0.7471   5.1863   3.3926   F         3 RES3   0.0000
@<TRIPOS>BOND
     1     1     8    1
     2     2    14    1
     3     3    61    1
     4     4    70    1
     5     5   117    1
     6     6   126    1
     7     7   173    1
     8     8    37   ar
     9     9     1    1
    10    10     1    1
    11    11     1    1
    12    12     1    1
    13    13     1    1
    14    14    15    1
    15    16    14    1
    16    17    14    1
    17    18    19    1
    18    20    18   ar
    19    21    20    1
    20    22     2    1
    21    23    22   ar
    22    24    23    1
    23    25    23   ar
    24    26    25    1
    25    27    18   ar
    26    28    27    1
    27    29    28   ar
    28    30    29    1
    29    31    29   ar
    30    32    31    1
    31    33    31   ar
    32    34    33    1
    33    35    33   ar
    34    36    28   ar
    35    37    36   ar
    36    38    37    1
    37    39     8   ar
    38    40    35   ar
    39    41    40    1
    40    42     9   ar
    41    43    42   ar
    42    44    43    1
    43    45    43   ar
    44    46    45   ar
    45    47     9   ar
    46    48    47    1
    47    49    45   ar
    48    50    49    1
    49    51    49   ar
    50    52    51    1
    51    53    51   ar
    52    54    53    1
    53    55    46   ar
    54    56    55    1
    55    57    56   ar
    56    58    57    1
    57    59    57   ar
    58    60    59    1
    59    61    59   ar
    60    62    61   ar
    61    63    62    1
    62    64    56   ar
    63    65    64    1
    64    66     3    1
    65    67    66    1
    66    68    66    1
    67    69    66    1
    68    70    71    1
    69    72    70    1
    70    73    70    1
    71    74    75    1
    72    76    74   ar
    73    77    76    1
    74    78     4    1
    75    79    78   ar
    76    80    79    1
    77    81    79   ar
    78    82    81    1
    79    83    74   ar
    80    84    83    1
    81    85    84   ar
    82    86    85    1
    83    87    85   ar
    84    88    87    1
    85    89    87   ar
    86    90    89    1
    87    91    89   ar
    88    92    84   ar
    89    93    10   ar
    90    94    93    1
    91    95    10   ar
    92    96    91   ar
    93    97    96    1
    94    98    11   ar
    95    99    98   ar
    96   100    99    1
    97   101    99   ar
    98   102   101   ar
    99   103    11   ar
   100   104   103    1
   101   105   101   ar
   102   106   105    1
   103   107   105   ar
   104   108   107    1
   105   109   107   ar
   106   110   109    1
   107   111   102   ar
   108   112   111    1
   109   113   112   ar
   110   114   113    1
   111   115   113   ar
   112   116   115    1
   113   117   115   ar
   114   118   117   ar
   115   119   118    1
   116   120   112   ar
   117   121   120    1
   118   122     5    1
   119   123   122    1
   120   124   122    1
   121   125   122    1
   122   126   127    1
   123   128   126    1
   124   129   126    1
   125   130   131    1
   126   132   130   ar
   127   133   132    1
   128   134     6    1
   129   135   134   ar
   130   136   135    1
   131   137   135   ar
   132   138   137    1
   133   139   130   ar
   134   140   139    1
   135   141   140   ar
   136   142   141    1
   137   143   141   ar
   138   144   143    1
   139   145   143   ar
   140   146   145    1
   141   147   145   ar
   142   148   140   ar
   143   149    12   ar
   144   150   149    1
   145   151    12   ar
   146   152   147   ar
   147   153   152    1
   148   154    13   ar
   149   155   154   ar
   150   156   155    1
   151   157   155   ar
   152   158   157   ar
   153   159    13   ar
   154   160   159    1
   155   161   157   ar
   156   162   161    1
   157   163   161   ar
   158   164   163    1
   159   165   163   ar
   160   166   165    1
   161   167   158   ar
   162   168   167    1
   163   169   168   ar
   164   170   169    1
   165   171   169   ar
   166   172   171    1
   167   173   171   ar
   168   174   173   ar
   169   175   174    1
   170   176   168   ar
   171   177   176    1
   172   178     7    1
   173   179   178    1
   174   180   178    1
   175   181   178    1
   176    20    22   ar
   177    25    27   ar
   178    35    36   ar
   179    39    40   ar
   180    39    42    1
   181    46    47   ar
   182    53    55   ar
   183    62    64   ar
   184    76    78   ar
   185    81    83   ar
   186    91    92   ar
   187    92    93   ar
   188    95    96   ar
   189    95    98    1
   190   102   103   ar
   191   109   111   ar
   192   118   120   ar
   193   132   134   ar
   194   137   139   ar
   195   147   148   ar
   196   148   149   ar
   197   151   152   ar
   198   151   154    1
   199   158   159   ar
   200   165   167   ar
   201   174   176   ar
   202   182   183    1
   203   184   182    1
   204   185   182    1
   205   186   182    1
   206   187   182    1
   207   188   182    1
   208   189   190    1
   209   191   189    1
   210   192   189    1
   211   193   189    1
   212   194   189    1
   213   195   189    1
@<TRIPOS>SUBSTRUCTURE
     1 RES1        1 GROUP             0 ****  ****    0  
     2 RES2      182 GROUP             0 ****  ****    0  
     3 RES3      189 GROUP             0 ****  ****    0  
@<TRIPOS>CRYSIN
   15.4180   34.4150   17.0120   90.0000  116.3621   90.0000   231     1
