@<TRIPOS>MOLECULE
KEDXUQ
   115   123     1     0     0
SMALL
NO_CHARGES
****
Generated from the CSD

@<TRIPOS>ATOM
     1 Fe1     -0.6212   5.9392   6.4382   Fe        1 RES1   0.0000
     2 S1      -4.5707   5.4642   4.3041   S.3       1 RES1   0.0000
     3 S2      -4.9990   5.7752   7.5709   S.3       1 RES1   0.0000
     4 S3       1.7726   2.2844   5.2695   S.3       1 RES1   0.0000
     5 S4       1.1373   2.2119   8.4010   S.3       1 RES1   0.0000
     6 S5       1.5232   9.6016   4.8372   S.3       1 RES1   0.0000
     7 S6       1.8523   9.3624   8.1050   S.3       1 RES1   0.0000
     8 O1      -1.6405   5.3074   3.7871   O.3       1 RES1   0.0000
     9 O2      -2.2496   6.5937   8.7898   O.3       1 RES1   0.0000
    10 O3       0.7804   4.8658   4.1275   O.3       1 RES1   0.0000
    11 O4      -0.7063   4.6964   9.1068   O.3       1 RES1   0.0000
    12 O5      -0.0512   7.1988   3.8373   O.3       1 RES1   0.0000
    13 O6       0.2095   6.9896   9.0368   O.3       1 RES1   0.0000
    14 O7      -2.6533   2.3957   4.2021   O.2       1 RES1   0.0000
    15 O8      -3.5876   3.1100   2.2428   O.3       1 RES1   0.0000
    16 O9      -4.6843   8.8736   7.6502   O.2       1 RES1   0.0000
    17 O10     -4.7897   8.9466   9.9691   O.3       1 RES1   0.0000
    18 O11      2.3353   0.1540   3.4767   O.2       1 RES1   0.0000
    19 O12      0.5281   0.3010   2.1129   O.3       1 RES1   0.0000
    20 O13      1.8559   0.3837  10.4094   O.2       1 RES1   0.0000
    21 O14      0.8260   1.3326  12.2055   O.3       1 RES1   0.0000
    22 O15     -0.7706   9.6253   1.5744   O.2       1 RES1   0.0000
    23 O16      1.4842   9.4234   1.8547   O.3       1 RES1   0.0000
    24 O17      4.8831   8.4538  10.4157   O.2       1 RES1   0.0000
    25 O18      3.2628  10.0518  10.5472   O.3       1 RES1   0.0000
    26 O19      1.7792   3.0873  -1.8848   O.2       1 RES1   0.0000
    27 O20      2.5003   2.6222   0.1964   O.3       1 RES1   0.0000
    28 H1       3.0093   2.1063  -0.2281   H         1 RES1   0.0000
    29 O21     -3.4203   7.9833  14.9726   O.2       1 RES1   0.0000
    30 O22     -4.1996   8.4409  12.8913   O.3       1 RES1   0.0000
    31 H2      -4.6690   8.9932  13.3158   H         1 RES1   0.0000
    32 N1      -1.9393   5.5161   5.1255   N.2       1 RES1   0.0000
    33 N2      -2.2496   6.3398   7.4221   N.2       1 RES1   0.0000
    34 N3       0.5292   4.7408   5.4782   N.2       1 RES1   0.0000
    35 N4      -0.3321   4.5488   7.7659   N.2       1 RES1   0.0000
    36 N5       0.0084   7.3227   5.2332   N.2       1 RES1   0.0000
    37 N6       0.3228   7.0971   7.6564   N.2       1 RES1   0.0000
    38 C1      -3.2300   5.6323   5.4470   C.2       1 RES1   0.0000
    39 C2      -3.4012   5.9975   6.8630   C.2       1 RES1   0.0000
    40 C3       0.8758   3.5941   6.0457   C.2       1 RES1   0.0000
    41 C4       0.4633   3.5329   7.4665   C.2       1 RES1   0.0000
    42 C5       0.7700   8.2888   5.7195   C.2       1 RES1   0.0000
    43 C6       0.9491   8.1672   7.1814   C.2       1 RES1   0.0000
    44 C7      -4.7131   3.6446   4.2401   C.3       1 RES1   0.0000
    45 H3      -4.8092   3.2983   5.1619   H         1 RES1   0.0000
    46 H4      -5.5335   3.4046   3.7412   H         1 RES1   0.0000
    47 C8      -3.5330   2.9790   3.5891   C.2       1 RES1   0.0000
    48 C9      -2.4509   2.5585   1.5142   C.3       1 RES1   0.0000
    49 H5      -2.6493   2.5568   0.5544   H         1 RES1   0.0000
    50 H6      -2.2848   1.6409   1.8136   H         1 RES1   0.0000
    51 H7      -1.6572   3.1073   1.6837   H         1 RES1   0.0000
    52 C10     -5.1662   6.8816   8.9490   C.3       1 RES1   0.0000
    53 H8      -6.1048   6.8311   9.2595   H         1 RES1   0.0000
    54 H9      -4.5988   6.5336   9.6808   H         1 RES1   0.0000
    55 C11     -4.8340   8.3153   8.7716   C.2       1 RES1   0.0000
    56 C12     -4.7378  10.4072   9.9595   C.3       1 RES1   0.0000
    57 H10     -5.4298  10.7536   9.3577   H         1 RES1   0.0000
    58 H11     -3.8562  10.7000   9.6475   H         1 RES1   0.0000
    59 H12     -4.8926  10.7455  10.8655   H         1 RES1   0.0000
    60 C13      0.5570   1.7386   4.0009   C.3       1 RES1   0.0000
    61 H13     -0.2571   1.3772   4.4333   H         1 RES1   0.0000
    62 H14      0.2983   2.4966   3.4196   H         1 RES1   0.0000
    63 C14      1.2630   0.6457   3.1805   C.2       1 RES1   0.0000
    64 C15      1.1823  -0.7358   1.2640   C.3       1 RES1   0.0000
    65 H15      0.5992  -0.9531   0.5068   H         1 RES1   0.0000
    66 H16      1.3396  -1.5428   1.7977   H         1 RES1   0.0000
    67 H17      2.0366  -0.3928   0.9297   H         1 RES1   0.0000
    68 C16      0.4970   2.3629  10.1021   C.3       1 RES1   0.0000
    69 H18      0.7358   3.2431  10.4870   H         1 RES1   0.0000
    70 H19     -0.4882   2.2682  10.1116   H         1 RES1   0.0000
    71 C17      1.1417   1.2492  10.8893   C.2       1 RES1   0.0000
    72 C18      1.4344   0.3017  13.0624   C.3       1 RES1   0.0000
    73 H20      1.0534  -0.5739  12.8407   H         1 RES1   0.0000
    74 H21      1.2539   0.5097  14.0017   H         1 RES1   0.0000
    75 H22      2.4032   0.2828  12.9119   H         1 RES1   0.0000
    76 C19      0.1553  10.1221   3.7380   C.3       1 RES1   0.0000
    77 H23     -0.6918   9.7797   4.1181   H         1 RES1   0.0000
    78 H24      0.1069  11.1111   3.7554   H         1 RES1   0.0000
    79 C20      0.2346   9.6783   2.2840   C.2       1 RES1   0.0000
    80 C21      1.6569   9.0354   0.4577   C.3       1 RES1   0.0000
    81 H25      1.0853   9.5955  -0.1093   H         1 RES1   0.0000
    82 H26      1.4051   8.0951   0.3453   H         1 RES1   0.0000
    83 H27      2.5938   9.1564   0.1980   H         1 RES1   0.0000
    84 C22      2.8923   8.2207   9.1011   C.3       1 RES1   0.0000
    85 H28      2.3006   7.6095   9.6048   H         1 RES1   0.0000
    86 H29      3.4389   7.6710   8.4849   H         1 RES1   0.0000
    87 C23      3.8034   8.9130  10.0641   C.2       1 RES1   0.0000
    88 C24      4.0876  10.7368  11.5355   C.3       1 RES1   0.0000
    89 H30      4.7929  11.2421  11.0778   H         1 RES1   0.0000
    90 H31      4.4959  10.0757  12.1342   H         1 RES1   0.0000
    91 H32      3.5318  11.3514  12.0566   H         1 RES1   0.0000
    92 C25     -0.0314   5.5894   1.8500   C.ar      1 RES1   0.0000
    93 C26      0.8293   4.6064   1.3067   C.ar      1 RES1   0.0000
    94 H33      1.3543   4.0757   1.8943   H         1 RES1   0.0000
    95 C27      0.9274   4.3960  -0.0744   C.ar      1 RES1   0.0000
    96 C28      0.2037   5.2270  -0.9662   C.ar      1 RES1   0.0000
    97 H34      0.2769   5.1000  -1.9038   H         1 RES1   0.0000
    98 C29     -0.6178   6.2338  -0.4562   C.ar      1 RES1   0.0000
    99 H35     -1.0902   6.8095  -1.0470   H         1 RES1   0.0000
   100 C30     -0.7463   6.3936   0.9377   C.ar      1 RES1   0.0000
   101 H36     -1.3302   7.0625   1.2735   H         1 RES1   0.0000
   102 C31      1.7888   3.3049  -0.6351   C.2       1 RES1   0.0000
   103 C32     -1.1162   6.2797  11.0493   C.ar      1 RES1   0.0000
   104 C33     -2.1844   6.9593  11.6702   C.ar      1 RES1   0.0000
   105 H37     -2.8732   7.3370  11.1348   H         1 RES1   0.0000
   106 C34     -2.2477   7.0872  13.0767   C.ar      1 RES1   0.0000
   107 C35     -1.2558   6.5177  13.8813   C.ar      1 RES1   0.0000
   108 H38     -1.3157   6.5831  14.8269   H         1 RES1   0.0000
   109 C36     -0.1773   5.8543  13.2937   C.ar      1 RES1   0.0000
   110 H39      0.5079   5.4788  13.8338   H         1 RES1   0.0000
   111 C37     -0.1128   5.7481  11.8935   C.ar      1 RES1   0.0000
   112 H40      0.6296   5.3041  11.5007   H         1 RES1   0.0000
   113 C38     -3.3514   7.8744  13.7055   C.2       1 RES1   0.0000
   114 B1      -0.2264   5.7574   3.4371   B         1 RES1   0.0000
   115 B2      -0.9750   6.1460   9.4464   B         1 RES1   0.0000
@<TRIPOS>BOND
     1     1    32    1
     2     2    38    1
     3     3    39    1
     4     4    40    1
     5     5    41    1
     6     6    42    1
     7     7    43    1
     8     8    32    1
     9     9    33    1
    10    10    34    1
    11    11    35    1
    12    12    36    1
    13    13    37    1
    14    14    47    2
    15    15    47    1
    16    16    55    2
    17    17    55    1
    18    18    63    2
    19    19    63    1
    20    20    71    2
    21    21    71    1
    22    22    79    2
    23    23    79    1
    24    24    87    2
    25    25    87    1
    26    26   102    2
    27    27    28    1
    28    29   113    2
    29    30    31    1
    30    32    38    2
    31    33     1    1
    32    34     1    1
    33    35     1    1
    34    36     1    1
    35    37     1    1
    36    38    39    1
    37    39    33    2
    38    40    34    2
    39    41    35    2
    40    42    36    2
    41    43    37    2
    42    44     2    1
    43    45    44    1
    44    46    44    1
    45    47    44    1
    46    48    15    1
    47    49    48    1
    48    50    48    1
    49    51    48    1
    50    52     3    1
    51    53    52    1
    52    54    52    1
    53    55    52    1
    54    56    17    1
    55    57    56    1
    56    58    56    1
    57    59    56    1
    58    60     4    1
    59    61    60    1
    60    62    60    1
    61    63    60    1
    62    64    19    1
    63    65    64    1
    64    66    64    1
    65    67    64    1
    66    68     5    1
    67    69    68    1
    68    70    68    1
    69    71    68    1
    70    72    21    1
    71    73    72    1
    72    74    72    1
    73    75    72    1
    74    76     6    1
    75    77    76    1
    76    78    76    1
    77    79    76    1
    78    80    23    1
    79    81    80    1
    80    82    80    1
    81    83    80    1
    82    84     7    1
    83    85    84    1
    84    86    84    1
    85    87    84    1
    86    88    25    1
    87    89    88    1
    88    90    88    1
    89    91    88    1
    90    92    93   ar
    91    93    94    1
    92    95    93   ar
    93    96    95   ar
    94    97    96    1
    95    98    96   ar
    96    99    98    1
    97   100    92   ar
    98   101   100    1
    99   102    27    1
   100   103   104   ar
   101   104   105    1
   102   106   104   ar
   103   107   106   ar
   104   108   107    1
   105   109   107   ar
   106   110   109    1
   107   111   103   ar
   108   112   111    1
   109   113    30    1
   110   114     8    1
   111   115     9    1
   112    10   114    1
   113    11   115    1
   114    12   114    1
   115    13   115    1
   116    40    41    1
   117    42    43    1
   118    92   114    1
   119    95   102    1
   120    98   100   ar
   121   103   115    1
   122   106   113    1
   123   109   111   ar
@<TRIPOS>SUBSTRUCTURE
     1 RES1        1 GROUP             0 ****  ****    0  
@<TRIPOS>CRYSIN
   12.6950   13.3980   16.9710  103.7500   99.6500  110.7300     2     1
