@<TRIPOS>MOLECULE
KETGIB
   103   109     1     0     0
SMALL
NO_CHARGES
****
Generated from the CSD

@<TRIPOS>ATOM
     1 Fe1      1.7792   4.8520   8.0667   Fe        1 RES1   0.0000
     2 P1       0.3986   8.1443   7.3813   P.3       1 RES1   0.0000
     3 O1       1.1001   6.9791   7.9328   O.2       1 RES1   0.0000
     4 O2       4.6423   0.6317   0.6744   O.co2     1 RES1   0.0000
     5 O3       1.3700   4.2115   5.8725   O.co2     1 RES1   0.0000
     6 O4      -0.2571   2.7812   5.4079   O.co2     1 RES1   0.0000
     7 O5       3.3315   1.8127  -0.6002   O.co2     1 RES1   0.0000
     8 C1      -0.2217   7.8331   5.7193   C.ar      1 RES1   0.0000
     9 C2      -0.1419   8.7093   4.6722   C.ar      1 RES1   0.0000
    10 H1       0.2792   9.5293   4.7916   H         1 RES1   0.0000
    11 C3      -0.6697   8.3978   3.4525   C.ar      1 RES1   0.0000
    12 H2      -0.5738   8.9927   2.7443   H         1 RES1   0.0000
    13 C4      -1.3268   7.2392   3.2670   C.ar      1 RES1   0.0000
    14 H3      -1.6878   7.0344   2.4345   H         1 RES1   0.0000
    15 C5      -1.4605   6.3551   4.3237   C.ar      1 RES1   0.0000
    16 H4      -1.9489   5.5720   4.2140   H         1 RES1   0.0000
    17 C6      -0.8801   6.6307   5.5160   C.ar      1 RES1   0.0000
    18 H5      -0.9242   6.0068   6.2049   H         1 RES1   0.0000
    19 C7      -1.0471   8.5715   8.3329   C.ar      1 RES1   0.0000
    20 C8      -1.2878   7.9427   9.5639   C.ar      1 RES1   0.0000
    21 H6      -0.6895   7.3314   9.9301   H         1 RES1   0.0000
    22 C9      -2.4752   8.2843  10.2092   C.ar      1 RES1   0.0000
    23 H7      -2.6876   7.9010  11.0304   H         1 RES1   0.0000
    24 C10     -3.3443   9.2004   9.6252   C.ar      1 RES1   0.0000
    25 H8      -4.1384   9.3935  10.0705   H         1 RES1   0.0000
    26 C11     -3.1234   9.7855   8.5281   C.ar      1 RES1   0.0000
    27 H9      -3.7277  10.4066   8.1893   H         1 RES1   0.0000
    28 C12     -1.9886   9.4866   7.8618   C.ar      1 RES1   0.0000
    29 H10     -1.8275   9.9107   7.0503   H         1 RES1   0.0000
    30 C13      1.4626   9.6060   7.3810   C.3       1 RES1   0.0000
    31 H11      2.1586   9.5002   6.7147   H         1 RES1   0.0000
    32 H12      0.9405  10.3891   7.1487   H         1 RES1   0.0000
    33 C14      0.8699   3.3566   5.1595   C.2       1 RES1   0.0000
    34 C15      1.5691   2.8472   3.9575   C.ar      1 RES1   0.0000
    35 C16      0.8997   2.0980   2.9847   C.ar      1 RES1   0.0000
    36 H13     -0.0080   1.9330   3.0960   H         1 RES1   0.0000
    37 C17      1.5327   1.5924   1.8634   C.ar      1 RES1   0.0000
    38 C18      2.9122   1.8263   1.7198   C.ar      1 RES1   0.0000
    39 C19      3.5888   2.5754   2.6830   C.ar      1 RES1   0.0000
    40 H14      4.5028   2.7171   2.5878   H         1 RES1   0.0000
    41 C20      2.9174   3.1218   3.7994   C.ar      1 RES1   0.0000
    42 H15      3.3691   3.6536   4.4141   H         1 RES1   0.0000
    43 C21      0.7681   0.7996   0.8760   C.ar      1 RES1   0.0000
    44 C22     -0.4944   1.2014   0.4614   C.ar      1 RES1   0.0000
    45 H16     -0.8367   2.0107   0.7663   H         1 RES1   0.0000
    46 C23      1.2528  -0.4279   0.3888   C.ar      1 RES1   0.0000
    47 H17      2.0977  -0.7220   0.6453   H         1 RES1   0.0000
    48 C24      3.7077   1.4051   0.5066   C.2       1 RES1   0.0000
    49 Fe1     -1.7792  -4.8520  -8.0667   Fe        1 RES1   0.0000
    50 Fe1      1.7792  14.5560   8.0667   Fe        1 RES1   0.0000
    51 Fe1A    -6.6690   0.0000   0.0000   Fe        1 RES1   0.0000
    52 Fe1A     6.6690   0.0000   0.0000   Fe        1 RES1   0.0000
    53 P1B      3.1599  11.2637   8.7520   P.3       1 RES1   0.0000
    54 O1B      2.4583  12.4289   8.2006   O.2       1 RES1   0.0000
    55 O1B      2.4583   2.7249   8.2006   O.2       1 RES1   0.0000
    56 O2B     -4.6423  -0.6317  -0.6744   O.co2     1 RES1   0.0000
    57 O2A      3.8059   5.4837   7.3923   O.2       1 RES1   0.0000
    58 O2C     -0.2475   4.2203   8.7411   O.2       1 RES1   0.0000
    59 O3B     -1.3700  -4.2115  -5.8725   O.co2     1 RES1   0.0000
    60 O3B      2.1885   5.4925  10.2608   O.2       1 RES1   0.0000
    61 O4B      0.2571  -2.7812  -5.4079   O.co2     1 RES1   0.0000
    62 O5B     -3.3315  -1.8127   0.6002   O.co2     1 RES1   0.0000
    63 C1B      3.7801  11.5749  10.4141   C.ar      1 RES1   0.0000
    64 C2B      3.7003  10.6987  11.4612   C.ar      1 RES1   0.0000
    65 H1B      3.2792   9.8787  11.3418   H         1 RES1   0.0000
    66 C3B      4.2281  11.0102  12.6808   C.ar      1 RES1   0.0000
    67 H2B      4.1322  10.4153  13.3891   H         1 RES1   0.0000
    68 C4B      4.8852  12.1688  12.8664   C.ar      1 RES1   0.0000
    69 H3B      5.2462  12.3736  13.6989   H         1 RES1   0.0000
    70 C5B      5.0189  13.0529  11.8096   C.ar      1 RES1   0.0000
    71 H4B      5.5073  13.8360  11.9193   H         1 RES1   0.0000
    72 C6B      4.4385  12.7773  10.6174   C.ar      1 RES1   0.0000
    73 H5B      4.4827  13.4012   9.9285   H         1 RES1   0.0000
    74 C7B      4.6055  10.8365   7.8005   C.ar      1 RES1   0.0000
    75 C8B      4.8462  11.4653   6.5695   C.ar      1 RES1   0.0000
    76 H6B      4.2479  12.0766   6.2033   H         1 RES1   0.0000
    77 C9B      6.0336  11.1237   5.9242   C.ar      1 RES1   0.0000
    78 H7B      6.2460  11.5070   5.1030   H         1 RES1   0.0000
    79 C10B     6.9027  10.2076   6.5082   C.ar      1 RES1   0.0000
    80 H8B      7.6968  10.0145   6.0629   H         1 RES1   0.0000
    81 C11B     6.6819   9.6225   7.6053   C.ar      1 RES1   0.0000
    82 H9B      7.2861   9.0014   7.9441   H         1 RES1   0.0000
    83 C12B     5.5470   9.9214   8.2716   C.ar      1 RES1   0.0000
    84 H10B     5.3859   9.4973   9.0831   H         1 RES1   0.0000
    85 C13B     2.0958   9.8020   8.7524   C.3       1 RES1   0.0000
    86 H11B     1.3998   9.9078   9.4187   H         1 RES1   0.0000
    87 H12B     2.6179   9.0189   8.9847   H         1 RES1   0.0000
    88 C14B    -0.8699  -3.3566  -5.1595   C.2       1 RES1   0.0000
    89 C15B    -1.5691  -2.8472  -3.9575   C.ar      1 RES1   0.0000
    90 C16B    -0.8997  -2.0980  -2.9847   C.ar      1 RES1   0.0000
    91 H13B     0.0080  -1.9330  -3.0960   H         1 RES1   0.0000
    92 C17B    -1.5327  -1.5924  -1.8634   C.ar      1 RES1   0.0000
    93 C18B    -2.9122  -1.8263  -1.7198   C.ar      1 RES1   0.0000
    94 C19B    -3.5888  -2.5754  -2.6830   C.ar      1 RES1   0.0000
    95 H14B    -4.5028  -2.7171  -2.5878   H         1 RES1   0.0000
    96 C20B    -2.9174  -3.1218  -3.7994   C.ar      1 RES1   0.0000
    97 H15B    -3.3691  -3.6536  -4.4141   H         1 RES1   0.0000
    98 C21B    -0.7681  -0.7996  -0.8760   C.ar      1 RES1   0.0000
    99 C22B     0.4944  -1.2014  -0.4614   C.ar      1 RES1   0.0000
   100 H16B     0.8367  -2.0107  -0.7663   H         1 RES1   0.0000
   101 C23B    -1.2528   0.4279  -0.3888   C.ar      1 RES1   0.0000
   102 H17B    -2.0977   0.7220  -0.6453   H         1 RES1   0.0000
   103 C24B    -3.7077  -1.4051  -0.5066   C.2       1 RES1   0.0000
@<TRIPOS>BOND
     1     1     3    1
     2     2     3    2
     3     4    48    1
     4     5     1    1
     5     6    33    2
     6     7    48    2
     7     8     2    1
     8     9     8   ar
     9    10     9    1
    10    11     9   ar
    11    12    11    1
    12    13    11   ar
    13    14    13    1
    14    15    13   ar
    15    16    15    1
    16    17     8   ar
    17    18    17    1
    18    19     2    1
    19    20    19   ar
    20    21    20    1
    21    22    20   ar
    22    23    22    1
    23    24    22   ar
    24    25    24    1
    25    26    24   ar
    26    27    26    1
    27    28    19   ar
    28    29    28    1
    29    30     2    1
    30    31    30    1
    31    32    30    1
    32    33     5    1
    33    34    33    1
    34    35    34   ar
    35    36    35    1
    36    37    35   ar
    37    38    37   ar
    38    39    38   ar
    39    40    39    1
    40    41    34   ar
    41    42    41    1
    42    43    37    1
    43    44    43   ar
    44    45    44    1
    45    46    43   ar
    46    47    46    1
    47    48    38    1
    48    49    59   un
    49    50    54   un
    50    51    56   un
    51    52     4   un
    52    53    54    2
    53    55     1   un
    54    56   103    1
    55    57     1   un
    56    58     1   un
    57    59    88    1
    58    60     1   un
    59    61    88    2
    60    62   103    2
    61    63    53    1
    62    64    63   ar
    63    65    64    1
    64    66    64   ar
    65    67    66    1
    66    68    66   ar
    67    69    68    1
    68    70    68   ar
    69    71    70    1
    70    72    63   ar
    71    73    72    1
    72    74    53    1
    73    75    74   ar
    74    76    75    1
    75    77    75   ar
    76    78    77    1
    77    79    77   ar
    78    80    79    1
    79    81    79   ar
    80    82    81    1
    81    83    74   ar
    82    84    83    1
    83    85    30    1
    84    86    85    1
    85    87    85    1
    86    88    89    1
    87    89    90   ar
    88    90    91    1
    89    92    90   ar
    90    93    92   ar
    91    94    93   ar
    92    95    94    1
    93    96    89   ar
    94    97    96    1
    95    98    92    1
    96    99    46   ar
    97   100    99    1
    98   101    44   ar
    99   102   101    1
   100   103    93    1
   101    15    17   ar
   102    26    28   ar
   103    39    41   ar
   104    53    85    1
   105    70    72   ar
   106    81    83   ar
   107    94    96   ar
   108    98    99   ar
   109    98   101   ar
@<TRIPOS>SUBSTRUCTURE
     1 RES1        1 GROUP             0 ****  ****    0  
@<TRIPOS>CRYSIN
   13.3380    9.7040   18.8660   90.0000  121.2230   90.0000    14     1
