@<TRIPOS>MOLECULE
KEZTUE
    62    68     1     0     0
SMALL
NO_CHARGES
****
Generated from the CSD

@<TRIPOS>ATOM
     1 Fe1     16.7075   1.9024   5.6541   Fe        1 RES1   0.0000
     2 O1      18.5603   1.2766   4.5363   O.co2     1 RES1   0.0000
     3 O2      16.7894   0.0286   4.6331   O.co2     1 RES1   0.0000
     4 N1      17.5940   0.7899   7.4312   N.1       1 RES1   0.0000
     5 N2      17.2007   3.7185   6.6218   N.ar      1 RES1   0.0000
     6 N3      14.7981   1.8608   6.5706   N.ar      1 RES1   0.0000
     7 N4      15.7509   3.1139   4.0915   N.ar      1 RES1   0.0000
     8 N5      16.1649   4.6240   6.7573   N.ar      1 RES1   0.0000
     9 N6      14.1477   3.0556   6.6950   N.ar      1 RES1   0.0000
    10 N7      14.9741   4.1393   4.5647   N.ar      1 RES1   0.0000
    11 B1      14.7800   4.3425   6.1111   B         1 RES1   0.0000
    12 C1      17.9337   0.1984   4.2624   C.2       1 RES1   0.0000
    13 C2      18.6512  -0.8496   3.4337   C.ar      1 RES1   0.0000
    14 C3      19.9368  -0.7369   3.0759   C.ar      1 RES1   0.0000
    15 C4      20.6420  -1.7434   2.3136   C.ar      1 RES1   0.0000
    16 C5      19.8841  -2.7668   2.0420   C.ar      1 RES1   0.0000
    17 C6      18.4659  -3.0141   2.3295   C.ar      1 RES1   0.0000
    18 C7      17.8876  -1.9525   3.0818   C.ar      1 RES1   0.0000
    19 C8      17.9934   0.3596   8.3901   C.1       1 RES1   0.0000
    20 C9      18.5709  -0.1829   9.6827   C.3       1 RES1   0.0000
    21 C10     19.5687   3.5104   7.3552   C.3       1 RES1   0.0000
    22 C11     18.2338   4.2328   7.3168   C.ar      1 RES1   0.0000
    23 C12     17.8617   5.4411   7.8805   C.ar      1 RES1   0.0000
    24 C13     16.5567   5.6560   7.5204   C.ar      1 RES1   0.0000
    25 C14     15.6321   6.8209   7.8776   C.3       1 RES1   0.0000
    26 C15     14.3786  -0.5365   7.0548   C.3       1 RES1   0.0000
    27 C16     13.9893   0.9428   7.0844   C.ar      1 RES1   0.0000
    28 C17     12.8331   1.5309   7.5796   C.ar      1 RES1   0.0000
    29 C18     12.9594   2.8691   7.3191   C.ar      1 RES1   0.0000
    30 C19     11.9996   3.9841   7.5911   C.3       1 RES1   0.0000
    31 C20     16.3336   2.1508   1.8708   C.3       1 RES1   0.0000
    32 C21     15.6436   3.1368   2.7472   C.ar      1 RES1   0.0000
    33 C22     14.8001   4.1916   2.3687   C.ar      1 RES1   0.0000
    34 C23     14.3764   4.8217   3.5431   C.ar      1 RES1   0.0000
    35 C24     13.4837   5.9947   3.7123   C.3       1 RES1   0.0000
    36 C25     20.6387   4.1762   6.4650   C.3       1 RES1   0.0000
    37 C26     20.1004   3.4985   8.8153   C.3       1 RES1   0.0000
    38 C27     16.3981   8.1116   8.1482   C.3       1 RES1   0.0000
    39 C28     14.8761   6.4497   9.2624   C.3       1 RES1   0.0000
    40 C29     13.5856  -1.2875   5.9843   C.3       1 RES1   0.0000
    41 C30     14.1718  -1.2265   8.4297   C.3       1 RES1   0.0000
    42 C31     11.0173   4.1410   6.4442   C.3       1 RES1   0.0000
    43 C32     11.4035   3.8959   8.9422   C.3       1 RES1   0.0000
    44 C33     15.4735   0.8595   1.7357   C.3       1 RES1   0.0000
    45 C34     16.6421   2.8190   0.4543   C.3       1 RES1   0.0000
    46 C35     12.2139   5.7327   2.8628   C.3       1 RES1   0.0000
    47 C36     13.9056   7.1544   3.1849   C.2       1 RES1   0.0000
    48 H1      14.1571   5.1532   6.2816   H         1 RES1   0.0000
    49 H2      20.4635   0.0512   3.3669   H         1 RES1   0.0000
    50 H3      21.5432  -1.7367   1.9789   H         1 RES1   0.0000
    51 H4      20.2794  -3.5955   1.5765   H         1 RES1   0.0000
    52 H5      17.8927  -3.8392   2.0426   H         1 RES1   0.0000
    53 H6      16.8935  -1.9835   3.3676   H         1 RES1   0.0000
    54 H7      19.4298   2.5361   7.0454   H         1 RES1   0.0000
    55 H8      18.4487   6.0535   8.4516   H         1 RES1   0.0000
    56 H9      14.9419   6.9392   7.1226   H         1 RES1   0.0000
    57 H10     15.3786  -0.5992   6.8128   H         1 RES1   0.0000
    58 H11     12.0500   1.0652   8.0415   H         1 RES1   0.0000
    59 H12     12.5655   4.8358   7.6583   H         1 RES1   0.0000
    60 H13     17.2290   1.9106   2.2964   H         1 RES1   0.0000
    61 H14     14.5463   4.4475   1.4148   H         1 RES1   0.0000
    62 H15     13.4228   6.2837   4.6894   H         1 RES1   0.0000
@<TRIPOS>BOND
     1     1     2    1
     2     2    12   un
     3     3     1    1
     4     4     1    1
     5     5     1    1
     6     6     1    1
     7     7     1    1
     8     8     5   ar
     9     9     6   ar
    10    10     7   ar
    11    11     8    1
    12    12     3   un
    13    13    12    1
    14    14    13   ar
    15    15    14   ar
    16    16    15   ar
    17    17    16   ar
    18    18    13   ar
    19    19     4    3
    20    20    19    1
    21    21    22    1
    22    22     5   ar
    23    23    22   ar
    24    24     8   ar
    25    25    24    1
    26    26    27    1
    27    27     6   ar
    28    28    27   ar
    29    29     9   ar
    30    30    29    1
    31    31    32    1
    32    32     7   ar
    33    33    32   ar
    34    34    10   ar
    35    35    34    1
    36    36    21    1
    37    37    21    1
    38    38    25    1
    39    39    25    1
    40    40    26    1
    41    41    26    1
    42    42    30    1
    43    43    30    1
    44    44    31    1
    45    45    31    1
    46    46    35    1
    47    47    35    1
    48    48    11    1
    49    49    14    1
    50    50    15    1
    51    51    16    1
    52    52    17    1
    53    53    18    1
    54    54    21    1
    55    55    23    1
    56    56    25    1
    57    57    26    1
    58    58    28    1
    59    59    30    1
    60    60    31    1
    61    61    33    1
    62    62    35    1
    63     9    11    1
    64    10    11    1
    65    17    18   ar
    66    23    24   ar
    67    28    29   ar
    68    33    34   ar
@<TRIPOS>SUBSTRUCTURE
     1 RES1        1 GROUP             0 ****  ****    0  
@<TRIPOS>CRYSIN
   26.0070   15.3200    9.9360   90.0000   93.9300   90.0000   231     1
