@<TRIPOS>MOLECULE
KIRMAC
   122   129     3     0     0
SMALL
NO_CHARGES
****
Generated from the CSD

@<TRIPOS>ATOM
     1 Fe1      0.9506   2.9043   3.3665   Fe        1 RES1   0.0000
     2 P1      -0.4325   3.8297   4.8701   P.3       1 RES1   0.0000
     3 P2       2.1110   4.7930   3.6274   P.3       1 RES1   0.0000
     4 P3       2.3486   1.9399   1.8899   P.3       1 RES1   0.0000
     5 P4      -0.6411   3.4038   1.8604   P.3       1 RES1   0.0000
     6 P5       1.4608   1.5225   5.0682   P.3       1 RES1   0.0000
     7 O1      -1.7159   4.5943   4.5950   O.2       1 RES1   0.0000
     8 C1       1.3827   7.3541   0.4706   C.ar      1 RES1   0.0000
     9 H1       1.5321   7.3511  -0.4465   H         1 RES1   0.0000
    10 C2       0.7544   8.4341   1.0621   C.ar      1 RES1   0.0000
    11 H2       0.4827   9.1606   0.5486   H         1 RES1   0.0000
    12 C3       0.5315   8.4234   2.4237   C.ar      1 RES1   0.0000
    13 H3       0.0848   9.1340   2.8233   H         1 RES1   0.0000
    14 C4       0.9727   7.3565   3.2044   C.ar      1 RES1   0.0000
    15 H4       0.8401   7.3753   4.1246   H         1 RES1   0.0000
    16 C5       1.7907   6.2766   1.2409   C.ar      1 RES1   0.0000
    17 H5       2.1930   5.5475   0.8275   H         1 RES1   0.0000
    18 C6       1.6107   6.2629   2.6257   C.ar      1 RES1   0.0000
    19 C7       6.0403   5.7962   2.6813   C.ar      1 RES1   0.0000
    20 H6       6.4892   6.3614   2.0942   H         1 RES1   0.0000
    21 C8       6.7562   5.0028   3.5252   C.ar      1 RES1   0.0000
    22 H7       7.6865   5.0201   3.5140   H         1 RES1   0.0000
    23 C9       4.6385   5.7799   2.6802   C.ar      1 RES1   0.0000
    24 H8       4.1710   6.3374   2.1015   H         1 RES1   0.0000
    25 C10      6.0887   4.1831   4.3847   C.ar      1 RES1   0.0000
    26 H9       6.5654   3.6376   4.9685   H         1 RES1   0.0000
    27 C11      4.6918   4.1571   4.3957   C.ar      1 RES1   0.0000
    28 H10      4.2517   3.6006   4.9958   H         1 RES1   0.0000
    29 C12      3.9492   4.9461   3.5261   C.ar      1 RES1   0.0000
    30 C13      4.9796   2.5666   7.9288   C.ar      1 RES1   0.0000
    31 H11      5.6880   2.8262   8.4716   H         1 RES1   0.0000
    32 C14      5.1936   1.7091   6.8684   C.ar      1 RES1   0.0000
    33 H12      6.0458   1.3700   6.7128   H         1 RES1   0.0000
    34 C15      3.6962   3.0372   8.1791   C.ar      1 RES1   0.0000
    35 H13      3.5425   3.6088   8.8963   H         1 RES1   0.0000
    36 C16      4.1445   1.3479   6.0311   C.ar      1 RES1   0.0000
    37 H14      4.3083   0.7852   5.3093   H         1 RES1   0.0000
    38 C17      2.6440   2.6570   7.3593   C.ar      1 RES1   0.0000
    39 H15      1.7868   2.9660   7.5457   H         1 RES1   0.0000
    40 C18      2.8428   1.8179   6.2578   C.ar      1 RES1   0.0000
    41 C19      2.2710  -2.5402   5.4945   C.ar      1 RES1   0.0000
    42 H16      2.7854  -3.0827   6.0493   H         1 RES1   0.0000
    43 C20      2.3439  -1.1568   5.6252   C.ar      1 RES1   0.0000
    44 H17      2.9013  -0.7854   6.2699   H         1 RES1   0.0000
    45 C21      1.4502  -3.1134   4.5575   C.ar      1 RES1   0.0000
    46 H18      1.4103  -4.0387   4.4691   H         1 RES1   0.0000
    47 C22      0.6838  -2.2987   3.7466   C.ar      1 RES1   0.0000
    48 H19      0.1185  -2.6785   3.1131   H         1 RES1   0.0000
    49 C23      0.7500  -0.9040   3.8722   C.ar      1 RES1   0.0000
    50 H20      0.2219  -0.3672   3.3263   H         1 RES1   0.0000
    51 C24      1.5897  -0.3182   4.7990   C.ar      1 RES1   0.0000
    52 C25     -1.4638   0.4526   7.8208   C.ar      1 RES1   0.0000
    53 H21     -1.6543  -0.2303   8.4224   H         1 RES1   0.0000
    54 C26     -2.3842   1.4711   7.6184   C.ar      1 RES1   0.0000
    55 H22     -3.2014   1.4524   8.0652   H         1 RES1   0.0000
    56 C27     -2.0930   2.5129   6.7556   C.ar      1 RES1   0.0000
    57 H23     -2.7032   3.2055   6.6362   H         1 RES1   0.0000
    58 C28     -0.8798   2.5194   6.0646   C.ar      1 RES1   0.0000
    59 C29      0.0189   1.4762   6.2203   C.ar      1 RES1   0.0000
    60 C30     -0.2631   0.4499   7.1327   C.ar      1 RES1   0.0000
    61 H24      0.3545  -0.2319   7.2741   H         1 RES1   0.0000
    62 C31      1.0944   6.2028   7.9019   C.ar      1 RES1   0.0000
    63 H25      0.8595   6.4724   8.7596   H         1 RES1   0.0000
    64 C32      0.2523   5.3662   7.1867   C.ar      1 RES1   0.0000
    65 H26     -0.5542   5.0893   7.5585   H         1 RES1   0.0000
    66 C33      2.2898   6.6419   7.3443   C.ar      1 RES1   0.0000
    67 H27      2.8528   7.2007   7.8300   H         1 RES1   0.0000
    68 C34      2.6427   6.2461   6.0610   C.ar      1 RES1   0.0000
    69 H28      3.4362   6.5495   5.6812   H         1 RES1   0.0000
    70 C35      1.8060   5.3922   5.3398   C.ar      1 RES1   0.0000
    71 C36      0.6175   4.9391   5.9044   C.ar      1 RES1   0.0000
    72 C37     -2.1565   2.4251   2.1735   C.3       1 RES1   0.0000
    73 H29     -2.8523   2.7124   1.5784   H         1 RES1   0.0000
    74 H30     -2.4392   2.5542   3.0821   H         1 RES1   0.0000
    75 H31     -1.9717   1.4944   2.0249   H         1 RES1   0.0000
    76 C38     -1.3547   5.0868   1.6982   C.3       1 RES1   0.0000
    77 H32     -0.7594   5.6384   1.1847   H         1 RES1   0.0000
    78 H33     -1.4739   5.4689   2.5699   H         1 RES1   0.0000
    79 H34     -2.2050   5.0328   1.2540   H         1 RES1   0.0000
    80 C39     -0.4630   3.0753   0.0578   C.3       1 RES1   0.0000
    81 H35     -1.3097   3.2044  -0.3755   H         1 RES1   0.0000
    82 H36     -0.1693   2.1715  -0.0747   H         1 RES1   0.0000
    83 H37      0.1823   3.6801  -0.3153   H         1 RES1   0.0000
    84 C40      3.0370   2.9390   0.5100   C.3       1 RES1   0.0000
    85 H38      3.5551   3.6638   0.8676   H         1 RES1   0.0000
    86 H39      2.3172   3.2914  -0.0200   H         1 RES1   0.0000
    87 H40      3.5975   2.3844  -0.0383   H         1 RES1   0.0000
    88 C41      3.9348   1.2357   2.4715   C.3       1 RES1   0.0000
    89 H41      4.3993   0.8404   1.7315   H         1 RES1   0.0000
    90 H42      3.7625   0.5650   3.1368   H         1 RES1   0.0000
    91 H43      4.4735   1.9334   2.8524   H         1 RES1   0.0000
    92 C42      1.7547   0.4650   0.9532   C.3       1 RES1   0.0000
    93 H44      2.2673   0.3699   0.1476   H         1 RES1   0.0000
    94 H45      0.8277   0.5791   0.7309   H         1 RES1   0.0000
    95 H46      1.8581  -0.3207   1.4946   H         1 RES1   0.0000
    96 H47      0.0369   1.7193   3.3063   H         1 RES1   0.0000
    97 O2      -4.3197   8.0436   8.7251   O.3       2 RES2   0.0000
    98 C43     -3.2291   7.1670   8.5646   C.3       2 RES2   0.0000
    99 H48     -2.9923   6.7667   9.4157   H         2 RES2   0.0000
   100 H49     -2.4591   7.6472   8.2237   H         2 RES2   0.0000
   101 C44     -3.6526   6.1053   7.5913   C.3       2 RES2   0.0000
   102 H50     -2.9968   6.0058   6.8841   H         2 RES2   0.0000
   103 H51     -3.7630   5.2509   8.0397   H         2 RES2   0.0000
   104 C45     -4.9551   6.5904   7.0445   C.3       2 RES2   0.0000
   105 H52     -4.9649   6.5430   6.0767   H         2 RES2   0.0000
   106 H53     -5.6942   6.0684   7.3926   H         2 RES2   0.0000
   107 C46     -5.0370   7.9869   7.5038   C.3       2 RES2   0.0000
   108 H54     -4.6399   8.5828   6.8495   H         2 RES2   0.0000
   109 H55     -5.9612   8.2468   7.6405   H         2 RES2   0.0000
   110 C47      4.9964   9.8488   2.9508   C.3       3 RES3   0.0000
   111 H56      5.6665  10.5379   2.8196   H         3 RES3   0.0000
   112 H57      5.2121   9.0874   2.3895   H         3 RES3   0.0000
   113 C48      3.7669  10.3153   2.6756   C.3       3 RES3   0.0000
   114 H58      3.2244   9.6184   2.2747   H         3 RES3   0.0000
   115 H59      3.8197  11.0605   2.0559   H         3 RES3   0.0000
   116 O3       3.1055  10.8033   4.0900   O.3       3 RES3   0.0000
   117 C49      3.8369   9.9436   5.0651   C.3       3 RES3   0.0000
   118 H60      4.1334  10.4634   5.8288   H         3 RES3   0.0000
   119 H61      3.2729   9.2187   5.3768   H         3 RES3   0.0000
   120 C50      4.9155   9.4576   4.3506   C.3       3 RES3   0.0000
   121 H62      4.8944   8.4885   4.3926   H         3 RES3   0.0000
   122 H63      5.7279   9.7486   4.7935   H         3 RES3   0.0000
@<TRIPOS>BOND
     1     1     2    1
     2     2     7    2
     3     3     1    1
     4     4     1    1
     5     5     1    1
     6     6     1    1
     7     8     9    1
     8    10     8   ar
     9    11    10    1
    10    12    10   ar
    11    13    12    1
    12    14    12   ar
    13    15    14    1
    14    16     8   ar
    15    17    16    1
    16    18     3    1
    17    19    20    1
    18    21    19   ar
    19    22    21    1
    20    23    19   ar
    21    24    23    1
    22    25    21   ar
    23    26    25    1
    24    27    25   ar
    25    28    27    1
    26    29     3    1
    27    30    31    1
    28    32    30   ar
    29    33    32    1
    30    34    30   ar
    31    35    34    1
    32    36    32   ar
    33    37    36    1
    34    38    34   ar
    35    39    38    1
    36    40     6    1
    37    41    42    1
    38    43    41   ar
    39    44    43    1
    40    45    41   ar
    41    46    45    1
    42    47    45   ar
    43    48    47    1
    44    49    47   ar
    45    50    49    1
    46    51     6    1
    47    52    53    1
    48    54    52   ar
    49    55    54    1
    50    56    54   ar
    51    57    56    1
    52    58     2    1
    53    59     6    1
    54    60    52   ar
    55    61    60    1
    56    62    63    1
    57    64    62   ar
    58    65    64    1
    59    66    62   ar
    60    67    66    1
    61    68    66   ar
    62    69    68    1
    63    70     3    1
    64    71     2    1
    65    72     5    1
    66    73    72    1
    67    74    72    1
    68    75    72    1
    69    76     5    1
    70    77    76    1
    71    78    76    1
    72    79    76    1
    73    80     5    1
    74    81    80    1
    75    82    80    1
    76    83    80    1
    77    84     4    1
    78    85    84    1
    79    86    84    1
    80    87    84    1
    81    88     4    1
    82    89    88    1
    83    90    88    1
    84    91    88    1
    85    92     4    1
    86    93    92    1
    87    94    92    1
    88    95    92    1
    89    96     1    1
    90    14    18   ar
    91    16    18   ar
    92    23    29   ar
    93    27    29   ar
    94    36    40   ar
    95    38    40   ar
    96    43    51   ar
    97    49    51   ar
    98    56    58   ar
    99    58    59   ar
   100    59    60   ar
   101    64    71   ar
   102    68    70   ar
   103    70    71   ar
   104    97    98    1
   105    98    99    1
   106   100    98    1
   107   101    98    1
   108   102   101    1
   109   103   101    1
   110   104   101    1
   111   105   104    1
   112   106   104    1
   113   107    97    1
   114   108   107    1
   115   109   107    1
   116   104   107    1
   117   110   111    1
   118   112   110    1
   119   113   110    1
   120   114   113    1
   121   115   113    1
   122   116   113    1
   123   117   116    1
   124   118   117    1
   125   119   117    1
   126   120   110    1
   127   121   120    1
   128   122   120    1
   129   117   120    1
@<TRIPOS>SUBSTRUCTURE
     1 RES1        1 GROUP             0 ****  ****    0  
     2 RES2       97 GROUP             0 ****  ****    0  
     3 RES3      110 GROUP             0 ****  ****    0  
@<TRIPOS>CRYSIN
   11.5090   11.6560   19.3860   99.0390  103.7410  108.3310     2     1
