@<TRIPOS>MOLECULE
KITYOB
   114   121     2     0     0
SMALL
USER_CHARGES
****
Generated from the CSD

@<TRIPOS>ATOM
     1 Fe1      3.2206   0.1496   2.2279   Fe        1 RES1   1.0000
     2 O1       2.0050   0.6727   0.8195   O.2       1 RES1   0.0000
     3 O2       2.1128   0.4566   3.7761   O.2       1 RES1   0.0000
     4 N1       4.7034  -0.0959   0.8218   N.2       1 RES1   0.0000
     5 N2       4.6861  -0.6097   3.4568   N.2       1 RES1   0.0000
     6 N3       3.8516   2.2314   2.4731   N.ar      1 RES1   0.0000
     7 N4       2.4424  -1.8736   1.9762   N.ar      1 RES1   0.0000
     8 C1       2.1994   0.7715  -0.4544   C.2       1 RES1   0.0000
     9 C2       3.4032   0.5525  -1.0707   C.2       1 RES1   0.0000
    10 C3       4.6010   0.1632  -0.4645   C.2       1 RES1   0.0000
    11 C4       5.9907  -0.4151   1.4314   C.3       1 RES1   0.0000
    12 C5       5.7685  -1.2195   2.6875   C.3       1 RES1   0.0000
    13 C6       4.6286  -0.7300   4.7620   C.2       1 RES1   0.0000
    14 C7       3.5829  -0.1660   5.5123   C.2       1 RES1   0.0000
    15 C8       2.4398   0.4165   5.0310   C.2       1 RES1   0.0000
    16 C9       0.9898   1.1622  -1.2393   C.3       1 RES1   0.0000
    17 C10      5.8193   0.0630  -1.3622   C.3       1 RES1   0.0000
    18 C11      5.7179  -1.4571   5.5268   C.3       1 RES1   0.0000
    19 C12      1.4591   1.0692   5.9723   C.3       1 RES1   0.0000
    20 C13      3.4159   3.1846   1.6391   C.ar      1 RES1   0.0000
    21 C14      3.6658   4.5458   1.8333   C.ar      1 RES1   0.0000
    22 C15      4.4005   4.9251   2.9644   C.ar      1 RES1   0.0000
    23 C16      4.8332   3.9318   3.8140   C.ar      1 RES1   0.0000
    24 C17      4.5394   2.6221   3.5383   C.ar      1 RES1   0.0000
    25 C18      3.1117   5.5205   0.8307   C.3       1 RES1   0.0000
    26 C19      4.7138   6.3664   3.2491   C.3       1 RES1   0.0000
    27 C20      1.8280  -2.5220   2.9833   C.ar      1 RES1   0.0000
    28 C21      1.1742  -3.7443   2.8192   C.ar      1 RES1   0.0000
    29 C22      1.1781  -4.3152   1.5486   C.ar      1 RES1   0.0000
    30 C23      1.8291  -3.6670   0.5292   C.ar      1 RES1   0.0000
    31 C24      2.4538  -2.4647   0.7749   C.ar      1 RES1   0.0000
    32 C25      0.4906  -4.3783   3.9916   C.3       1 RES1   0.0000
    33 C26      0.4445  -5.6322   1.2673   C.3       1 RES1   0.0000
    34 H1       3.4141   0.6298  -1.9874   H         1 RES1   0.0000
    35 H2       6.5750  -0.8158   0.8374   H         1 RES1   0.0000
    36 H3       6.5370   0.3865   1.6748   H         1 RES1   0.0000
    37 H4       5.3798  -2.1326   2.3782   H         1 RES1   0.0000
    38 H5       6.6021  -1.3311   3.2714   H         1 RES1   0.0000
    39 H6       3.5939  -0.2576   6.4758   H         1 RES1   0.0000
    40 H7       0.7373   1.9036  -0.7369   H         1 RES1   0.0000
    41 H8       1.3127   1.4313  -1.9986   H         1 RES1   0.0000
    42 H9       0.0693   0.7729  -1.1165   H         1 RES1   0.0000
    43 H10      6.4572   0.6584  -1.0384   H         1 RES1   0.0000
    44 H11      6.1813  -0.8445  -1.4068   H         1 RES1   0.0000
    45 H12      5.5744   0.4008  -2.2107   H         1 RES1   0.0000
    46 H13      6.3784  -1.0162   5.5938   H         1 RES1   0.0000
    47 H14      5.7936  -2.4046   5.2923   H         1 RES1   0.0000
    48 H15      5.4434  -1.4742   6.4647   H         1 RES1   0.0000
    49 H16      1.0707   0.5296   6.5875   H         1 RES1   0.0000
    50 H17      1.4724   2.0181   5.7947   H         1 RES1   0.0000
    51 H18      0.6337   1.2595   5.6273   H         1 RES1   0.0000
    52 H19      3.0740   2.9055   0.7034   H         1 RES1   0.0000
    53 H20      5.6329   4.2653   4.6671   H         1 RES1   0.0000
    54 H21      4.8821   1.8321   4.1758   H         1 RES1   0.0000
    55 H22      2.8134   6.3407   1.4068   H         1 RES1   0.0000
    56 H23      3.1943   5.0096   0.0112   H         1 RES1   0.0000
    57 H24      3.7774   5.9828   0.4578   H         1 RES1   0.0000
    58 H25      3.8838   6.8989   3.2937   H         1 RES1   0.0000
    59 H26      4.9043   6.8416   2.3112   H         1 RES1   0.0000
    60 H27      4.7998   6.4695   4.0306   H         1 RES1   0.0000
    61 H28      1.9158  -2.0611   3.8520   H         1 RES1   0.0000
    62 H29      1.6864  -4.0506  -0.4354   H         1 RES1   0.0000
    63 H30      2.9693  -2.0038   0.0782   H         1 RES1   0.0000
    64 H31      0.6434  -3.8931   4.8122   H         1 RES1   0.0000
    65 H32     -0.4379  -4.3655   3.8408   H         1 RES1   0.0000
    66 H33      1.0686  -5.3817   4.3991   H         1 RES1   0.0000
    67 H34      0.0314  -5.6966   2.0767   H         1 RES1   0.0000
    68 H35      0.7911  -6.3693   1.8088   H         1 RES1   0.0000
    69 H36      0.6681  -5.7395   0.3685   H         1 RES1   0.0000
    70 B1       9.9706   1.5100   3.4802   B         2 RES2  -1.0000
    71 C27      9.1918   1.8664   4.8803   C.ar      2 RES2   0.0000
    72 C28      7.8504   1.5501   5.0500   C.ar      2 RES2   0.0000
    73 C29      7.1528   1.7977   6.2224   C.ar      2 RES2   0.0000
    74 C30      7.8014   2.3545   7.2887   C.ar      2 RES2   0.0000
    75 C31      9.1476   2.6379   7.1915   C.ar      2 RES2   0.0000
    76 C32      9.8173   2.4146   6.0080   C.ar      2 RES2   0.0000
    77 C33      9.1398   2.0525   2.1806   C.ar      2 RES2   0.0000
    78 C34      9.5306   1.6932   0.8899   C.ar      2 RES2   0.0000
    79 C35      8.8491   2.1598  -0.2434   C.ar      2 RES2   0.0000
    80 C36      7.8250   3.0386  -0.1284   C.ar      2 RES2   0.0000
    81 C37      7.4207   3.4639   1.1143   C.ar      2 RES2   0.0000
    82 C38      8.0715   2.9542   2.2364   C.ar      2 RES2   0.0000
    83 C39     11.4316   2.2672   3.3898   C.ar      2 RES2   0.0000
    84 C40     11.4874   3.6584   3.4032   C.ar      2 RES2   0.0000
    85 C41     12.6826   4.3712   3.2815   C.ar      2 RES2   0.0000
    86 C42     13.8419   3.6999   3.1084   C.ar      2 RES2   0.0000
    87 C43     13.8425   2.3545   3.0593   C.ar      2 RES2   0.0000
    88 C44     12.6387   1.6431   3.2000   C.ar      2 RES2   0.0000
    89 C45     10.1104  -0.1302   3.5092   C.ar      2 RES2   0.0000
    90 C46      9.4677  -0.9976   2.6506   C.ar      2 RES2   0.0000
    91 C47      9.5221  -2.3845   2.7868   C.ar      2 RES2   0.0000
    92 C48     10.2781  -2.9442   3.7772   C.ar      2 RES2   0.0000
    93 C49     10.9317  -2.1312   4.6637   C.ar      2 RES2   0.0000
    94 C50     10.8465  -0.7572   4.5197   C.ar      2 RES2   0.0000
    95 H37     10.5779   2.6765   5.9064   H         2 RES2   0.0000
    96 H38      9.5449   3.0344   7.9496   H         2 RES2   0.0000
    97 H39      7.3016   2.4905   8.0836   H         2 RES2   0.0000
    98 H40      6.1747   1.6174   6.2302   H         2 RES2   0.0000
    99 H41      7.2343   1.2309   4.3098   H         2 RES2   0.0000
   100 H42     10.2463   1.0019   0.7927   H         2 RES2   0.0000
   101 H43      9.0910   1.9036  -1.0272   H         2 RES2   0.0000
   102 H44      7.2963   3.3349  -0.9155   H         2 RES2   0.0000
   103 H45      6.7662   4.0220   1.2505   H         2 RES2   0.0000
   104 H46      7.7260   3.2920   3.0146   H         2 RES2   0.0000
   105 H47     10.6886   4.1651   3.6622   H         2 RES2   0.0000
   106 H48     12.5159   5.3101   3.1598   H         2 RES2   0.0000
   107 H49     14.5354   4.2080   2.9923   H         2 RES2   0.0000
   108 H50     14.6746   1.7891   3.0704   H         2 RES2   0.0000
   109 H51     12.7372   0.7157   3.4054   H         2 RES2   0.0000
   110 H52      9.0834  -0.6727   1.9762   H         2 RES2   0.0000
   111 H53      9.3344  -2.8626   2.0767   H         2 RES2   0.0000
   112 H54     10.5181  -3.8359   3.8632   H         2 RES2   0.0000
   113 H55     11.2846  -2.4332   5.3816   H         2 RES2   0.0000
   114 H56     11.1478  -0.1718   5.1025   H         2 RES2   0.0000
@<TRIPOS>BOND
     1     1     2    1
     2     2     8    2
     3     3     1    1
     4     4     1    1
     5     5     1    1
     6     6     1    1
     7     7     1    1
     8     8     9    1
     9     9    10    2
    10    10     4    1
    11    11     4    1
    12    12     5    1
    13    13     5    1
    14    14    13    2
    15    15     3    2
    16    16     8    1
    17    17    10    1
    18    18    13    1
    19    19    15    1
    20    20     6   ar
    21    21    20   ar
    22    22    21   ar
    23    23    22   ar
    24    24     6   ar
    25    25    21    1
    26    26    22    1
    27    27     7   ar
    28    28    27   ar
    29    29    28   ar
    30    30    29   ar
    31    31     7   ar
    32    32    28    1
    33    33    29    1
    34    34     9    1
    35    35    11    1
    36    36    11    1
    37    37    12    1
    38    38    12    1
    39    39    14    1
    40    40    16    1
    41    41    16    1
    42    42    16    1
    43    43    17    1
    44    44    17    1
    45    45    17    1
    46    46    18    1
    47    47    18    1
    48    48    18    1
    49    49    19    1
    50    50    19    1
    51    51    19    1
    52    52    20    1
    53    53    23    1
    54    54    24    1
    55    55    25    1
    56    56    25    1
    57    57    25    1
    58    58    26    1
    59    59    26    1
    60    60    26    1
    61    61    27    1
    62    62    30    1
    63    63    31    1
    64    64    32    1
    65    65    32    1
    66    66    32    1
    67    67    33    1
    68    68    33    1
    69    69    33    1
    70    11    12    1
    71    14    15    1
    72    23    24   ar
    73    30    31   ar
    74    70    71    1
    75    71    72   ar
    76    72    73   ar
    77    73    74   ar
    78    74    75   ar
    79    75    76   ar
    80    76    71   ar
    81    77    70    1
    82    78    77   ar
    83    79    78   ar
    84    80    79   ar
    85    81    80   ar
    86    82    77   ar
    87    83    70    1
    88    84    83   ar
    89    85    84   ar
    90    86    85   ar
    91    87    86   ar
    92    88    83   ar
    93    89    70    1
    94    90    89   ar
    95    91    90   ar
    96    92    91   ar
    97    93    92   ar
    98    94    89   ar
    99    95    76    1
   100    96    75    1
   101    97    74    1
   102    98    73    1
   103    99    72    1
   104   100    78    1
   105   101    79    1
   106   102    80    1
   107   103    81    1
   108   104    82    1
   109   105    84    1
   110   106    85    1
   111   107    86    1
   112   108    87    1
   113   109    88    1
   114   110    90    1
   115   111    91    1
   116   112    92    1
   117   113    93    1
   118   114    94    1
   119    81    82   ar
   120    87    88   ar
   121    93    94   ar
@<TRIPOS>SUBSTRUCTURE
     1 RES1        1 GROUP             0 ****  ****    0  
     2 RES2       70 GROUP             0 ****  ****    0  
@<TRIPOS>CRYSIN
   28.0210   14.3130   11.1660   90.0000   90.6800   90.0000    14     2
