@<TRIPOS>MOLECULE
KOCZOS
   102   113     1     0     0
SMALL
NO_CHARGES
****
Generated from the CSD

@<TRIPOS>ATOM
     1 Fe1      7.6044  -1.4867  11.0139   Fe        1 RES1   0.0000
     2 Cl1      5.3783  -0.0518  19.1631   Cl        1 RES1   0.0000
     3 O1       7.3827  -1.4649  12.9499   O.co2     1 RES1   0.0000
     4 O2       6.8614  -3.5211  13.6911   O.co2     1 RES1   0.0000
     5 O3       6.2114  -2.7720  10.7502   O.3       1 RES1   0.0000
     6 N1       7.5472  -1.3541   8.9541   N.ar      1 RES1   0.0000
     7 N2       7.9394  -0.2345   8.2604   N.ar      1 RES1   0.0000
     8 N3       6.6262   0.4404  10.8661   N.ar      1 RES1   0.0000
     9 N4       7.2275   1.3768  10.0377   N.ar      1 RES1   0.0000
    10 N5       9.4418  -0.3205  10.9507   N.ar      1 RES1   0.0000
    11 N6       9.5843   0.6181   9.9500   N.ar      1 RES1   0.0000
    12 N7       8.9178  -3.1971  10.9334   N.2       1 RES1   0.0000
    13 N8       8.7191  -4.1837  11.8542   N.pl3     1 RES1   0.0000
    14 C1       6.4982  -3.5207   8.4874   C.ar      1 RES1   0.0000
    15 C2       6.1187  -3.7171   9.8263   C.ar      1 RES1   0.0000
    16 C3       5.5937  -4.9696  10.1818   C.ar      1 RES1   0.0000
    17 C4       5.4334  -5.9616   9.2547   C.ar      1 RES1   0.0000
    18 C5       5.7966  -5.7387   7.9315   C.ar      1 RES1   0.0000
    19 C6       6.3111  -4.5187   7.5666   C.ar      1 RES1   0.0000
    20 C7       7.0394  -2.2170   8.0740   C.ar      1 RES1   0.0000
    21 C8       7.1275  -1.6504   6.7790   C.ar      1 RES1   0.0000
    22 C9       7.6763  -0.4220   6.9497   C.ar      1 RES1   0.0000
    23 C10      7.9681   0.6333   5.9224   C.3       1 RES1   0.0000
    24 C11      4.7429   0.4983  12.4728   C.ar      1 RES1   0.0000
    25 C12      4.3629  -0.8285  12.3631   C.ar      1 RES1   0.0000
    26 C13      3.4390  -1.3793  13.2385   C.ar      1 RES1   0.0000
    27 C14      2.9041  -0.6175  14.2485   C.ar      1 RES1   0.0000
    28 C15      3.2828   0.6969  14.3707   C.ar      1 RES1   0.0000
    29 C16      4.1879   1.2648  13.5016   C.ar      1 RES1   0.0000
    30 C17      5.6834   1.1254  11.5316   C.ar      1 RES1   0.0000
    31 C18      5.6863   2.4772  11.1448   C.ar      1 RES1   0.0000
    32 C19      6.6825   2.5847  10.2021   C.ar      1 RES1   0.0000
    33 C20      7.1392   3.7729   9.4270   C.3       1 RES1   0.0000
    34 C21     10.8654  -1.3248  12.6732   C.ar      1 RES1   0.0000
    35 C22     10.2821  -1.1048  13.9072   C.ar      1 RES1   0.0000
    36 C23     10.5762  -1.9406  14.9720   C.ar      1 RES1   0.0000
    37 C24     11.4568  -2.9833  14.8013   C.ar      1 RES1   0.0000
    38 C25     12.0142  -3.2235  13.5689   C.ar      1 RES1   0.0000
    39 C26     11.7509  -2.3926  12.5244   C.ar      1 RES1   0.0000
    40 C27     10.6175  -0.4220  11.5567   C.ar      1 RES1   0.0000
    41 C28     11.5324   0.4471  10.9538   C.ar      1 RES1   0.0000
    42 C29     10.8765   1.0855   9.9516   C.ar      1 RES1   0.0000
    43 C30     11.3494   2.1572   9.0198   C.3       1 RES1   0.0000
    44 C31      9.5114  -6.4507  12.5119   C.ar      1 RES1   0.0000
    45 C32      8.4672  -6.7060  13.3700   C.ar      1 RES1   0.0000
    46 C33      8.5288  -7.8624  14.1530   C.ar      1 RES1   0.0000
    47 C34      9.5817  -8.7291  14.0512   C.ar      1 RES1   0.0000
    48 C35     10.5897  -8.4964  13.1571   C.ar      1 RES1   0.0000
    49 C36     10.5402  -7.3332  12.4133   C.ar      1 RES1   0.0000
    50 C37      9.4951  -5.2277  11.6553   C.2       1 RES1   0.0000
    51 C38     10.2531  -4.9466  10.5372   C.2       1 RES1   0.0000
    52 C39      9.8668  -3.6812  10.1332   C.2       1 RES1   0.0000
    53 C40     10.3783  -2.8939   8.9619   C.3       1 RES1   0.0000
    54 C41      6.9205  -2.2789  13.8336   C.2       1 RES1   0.0000
    55 C42      6.4650  -1.6926  15.1270   C.ar      1 RES1   0.0000
    56 C43      6.7033  -0.3814  15.4402   C.ar      1 RES1   0.0000
    57 C44      6.3972   0.1312  16.6789   C.ar      1 RES1   0.0000
    58 C45      5.7718  -0.6814  17.5856   C.ar      1 RES1   0.0000
    59 C46      5.4393  -1.9763  17.2771   C.ar      1 RES1   0.0000
    60 C47      5.8276  -2.4946  16.0666   C.ar      1 RES1   0.0000
    61 B1       8.3952   0.9655   9.0856   B         1 RES1   0.0000
    62 H1       8.6181   1.6923   8.5140   H         1 RES1   0.0000
    63 H2       5.3403  -5.1222  11.0853   H         1 RES1   0.0000
    64 H3       5.0858  -6.8052   9.5225   H         1 RES1   0.0000
    65 H4       5.6789  -6.4229   7.2816   H         1 RES1   0.0000
    66 H5       6.5392  -4.3538   6.6600   H         1 RES1   0.0000
    67 H6       6.8488  -2.0495   5.9631   H         1 RES1   0.0000
    68 H7       7.2072   1.1930   5.8253   H         1 RES1   0.0000
    69 H8       8.1700   0.2245   5.0893   H         1 RES1   0.0000
    70 H9       8.7100   1.1524   6.2090   H         1 RES1   0.0000
    71 H10      4.7538  -1.3638  11.6835   H         1 RES1   0.0000
    72 H11      3.1644  -2.2832  13.1367   H         1 RES1   0.0000
    73 H12      2.2916  -1.0072  14.8608   H         1 RES1   0.0000
    74 H13      2.9050   1.2285  15.0613   H         1 RES1   0.0000
    75 H14      4.4470   2.1740  13.5908   H         1 RES1   0.0000
    76 H15      5.1054   3.1601  11.4596   H         1 RES1   0.0000
    77 H16      7.8426   4.2058   9.8968   H         1 RES1   0.0000
    78 H17      6.4133   4.3762   9.3174   H         1 RES1   0.0000
    79 H18      7.4521   3.4955   8.5736   H         1 RES1   0.0000
    80 H19      9.6640  -0.3913  14.0043   H         1 RES1   0.0000
    81 H20     10.1956  -1.7761  15.8270   H         1 RES1   0.0000
    82 H21     11.6585  -3.5452  15.5404   H         1 RES1   0.0000
    83 H22     12.6018  -3.9618  13.4593   H         1 RES1   0.0000
    84 H23     12.1459  -2.5454  11.6741   H         1 RES1   0.0000
    85 H24     12.4444   0.5574  11.1981   H         1 RES1   0.0000
    86 H25     11.6830   1.7563   8.2259   H         1 RES1   0.0000
    87 H26     12.0384   2.6656   9.4317   H         1 RES1   0.0000
    88 H27     10.6211   2.7256   8.8053   H         1 RES1   0.0000
    89 H28      7.7279  -6.1119  13.4139   H         1 RES1   0.0000
    90 H29      7.8428  -8.0411  14.7857   H         1 RES1   0.0000
    91 H30      9.6037  -9.4997  14.6071   H         1 RES1   0.0000
    92 H31     11.3065  -9.1116  13.0569   H         1 RES1   0.0000
    93 H32     11.2287  -7.1348  11.7900   H         1 RES1   0.0000
    94 H33     10.9049  -5.5107  10.1395   H         1 RES1   0.0000
    95 H34      9.8567  -3.1205   8.2009   H         1 RES1   0.0000
    96 H35     11.2885  -3.1117   8.7975   H         1 RES1   0.0000
    97 H36     10.3012  -1.9630   9.1342   H         1 RES1   0.0000
    98 H37      7.1013   0.1771  14.7825   H         1 RES1   0.0000
    99 H38      6.6043   1.0291  16.9059   H         1 RES1   0.0000
   100 H39      4.9715  -2.5078  17.9097   H         1 RES1   0.0000
   101 H40      5.6373  -3.4002  15.8521   H         1 RES1   0.0000
   102 H41      8.1562  -4.0547  12.4336   H         1 RES1   0.0000
@<TRIPOS>BOND
     1     1     3    1
     2     2    58    1
     3     3    54    1
     4     4    54    2
     5     5     1    1
     6     6     1    1
     7     7     6   ar
     8     8     1    1
     9     9     8   ar
    10    10     1    1
    11    11    10   ar
    12    12     1    1
    13    13    12    1
    14    14    15   ar
    15    15     5    1
    16    16    15   ar
    17    17    16   ar
    18    18    17   ar
    19    19    14   ar
    20    20     6   ar
    21    21    20   ar
    22    22     7   ar
    23    23    22    1
    24    24    25   ar
    25    25    26   ar
    26    26    27   ar
    27    27    28   ar
    28    28    29   ar
    29    29    24   ar
    30    30     8   ar
    31    31    30   ar
    32    32     9   ar
    33    33    32    1
    34    34    35   ar
    35    35    36   ar
    36    36    37   ar
    37    37    38   ar
    38    38    39   ar
    39    39    34   ar
    40    40    10   ar
    41    41    40   ar
    42    42    11   ar
    43    43    42    1
    44    44    45   ar
    45    45    46   ar
    46    46    47   ar
    47    47    48   ar
    48    48    49   ar
    49    49    44   ar
    50    50    13    1
    51    51    50    2
    52    52    12    2
    53    53    52    1
    54    54    55    1
    55    55    56   ar
    56    56    57   ar
    57    57    58   ar
    58    58    59   ar
    59    59    60   ar
    60    60    55   ar
    61    61     7    1
    62    62    61    1
    63    63    16    1
    64    64    17    1
    65    65    18    1
    66    66    19    1
    67    67    21    1
    68    68    23    1
    69    69    23    1
    70    70    23    1
    71    71    25    1
    72    72    26    1
    73    73    27    1
    74    74    28    1
    75    75    29    1
    76    76    31    1
    77    77    33    1
    78    78    33    1
    79    79    33    1
    80    80    35    1
    81    81    36    1
    82    82    37    1
    83    83    38    1
    84    84    39    1
    85    85    41    1
    86    86    43    1
    87    87    43    1
    88    88    43    1
    89    89    45    1
    90    90    46    1
    91    91    47    1
    92    92    48    1
    93    93    49    1
    94    94    51    1
    95    95    53    1
    96    96    53    1
    97    97    53    1
    98    98    56    1
    99    99    57    1
   100   100    59    1
   101   101    60    1
   102   102    13    1
   103     9    61    1
   104    11    61    1
   105    14    20    1
   106    18    19   ar
   107    21    22   ar
   108    24    30    1
   109    31    32   ar
   110    34    40    1
   111    41    42   ar
   112    44    50    1
   113    51    52    1
@<TRIPOS>SUBSTRUCTURE
     1 RES1        1 GROUP             0 ****  ****    0  
@<TRIPOS>CRYSIN
   11.6191   11.6780   16.1730  102.9070   94.9850   96.3450     2     1
