@<TRIPOS>MOLECULE
KOCZUY
   102   113     1     0     0
SMALL
NO_CHARGES
****
Generated from the CSD

@<TRIPOS>ATOM
     1 Fe1      8.0153   0.2131   4.6118   Fe        1 RES1   0.0000
     2 O1       7.1145   1.9246   4.4065   O.co2     1 RES1   0.0000
     3 O2       6.8900   2.4334   2.2452   O.co2     1 RES1   0.0000
     4 O3       7.2037  -0.6984   3.1596   O.3       1 RES1   0.0000
     5 N1       8.8285  -1.6721   5.0000   N.ar      1 RES1   0.0000
     6 N2       9.2656  -2.0609   6.2266   N.ar      1 RES1   0.0000
     7 N3       6.7421  -0.2873   6.2570   N.ar      1 RES1   0.0000
     8 N4       7.3081  -0.9434   7.3238   N.ar      1 RES1   0.0000
     9 N5       9.2961   0.9914   6.1788   N.ar      1 RES1   0.0000
    10 N6       9.5521   0.2021   7.2580   N.ar      1 RES1   0.0000
    11 N7       9.6650   0.6341   3.2845   N.2       1 RES1   0.0000
    12 N8       9.3098   1.2316   2.1367   N.pl3     1 RES1   0.0000
    13 C1       8.6811  -2.5574   2.7416   C.ar      1 RES1   0.0000
    14 C2       7.7271  -1.5916   2.3281   C.ar      1 RES1   0.0000
    15 C3       7.2995  -1.5903   0.9955   C.ar      1 RES1   0.0000
    16 C4       7.8072  -2.4740   0.0807   C.ar      1 RES1   0.0000
    17 C5       8.7555  -3.4062   0.4697   C.ar      1 RES1   0.0000
    18 C6       9.1748  -3.4413   1.7893   C.ar      1 RES1   0.0000
    19 C7       9.0965  -2.6547   4.1347   C.ar      1 RES1   0.0000
    20 C8       9.7573  -3.6765   4.8220   C.ar      1 RES1   0.0000
    21 C9       9.8393  -3.2837   6.1373   C.ar      1 RES1   0.0000
    22 C10     10.4092  -3.9733   7.3273   C.3       1 RES1   0.0000
    23 C11      4.4593   0.5229   5.6503   C.ar      1 RES1   0.0000
    24 C12      4.4073   0.3049   4.2947   C.ar      1 RES1   0.0000
    25 C13      3.4721   0.9701   3.5109   C.ar      1 RES1   0.0000
    26 C14      2.5784   1.8477   4.0944   C.ar      1 RES1   0.0000
    27 C15      2.5975   2.0390   5.4458   C.ar      1 RES1   0.0000
    28 C16      3.5235   1.3743   6.2281   C.ar      1 RES1   0.0000
    29 C17      5.4327  -0.1513   6.5479   C.ar      1 RES1   0.0000
    30 C18      5.1691  -0.7269   7.7739   C.ar      1 RES1   0.0000
    31 C19      6.3516  -1.2269   8.2536   C.ar      1 RES1   0.0000
    32 C20      6.6254  -1.9469   9.5214   C.3       1 RES1   0.0000
    33 C21     10.0755   3.1694   5.2945   C.ar      1 RES1   0.0000
    34 C22      9.0270   4.0728   5.2614   C.ar      1 RES1   0.0000
    35 C23      8.9948   5.0821   4.3148   C.ar      1 RES1   0.0000
    36 C24     10.0116   5.2012   3.3971   C.ar      1 RES1   0.0000
    37 C25     11.0892   4.3232   3.4346   C.ar      1 RES1   0.0000
    38 C26     11.1127   3.3193   4.3840   C.ar      1 RES1   0.0000
    39 C27     10.0900   2.0799   6.2799   C.ar      1 RES1   0.0000
    40 C28     10.8618   1.9606   7.4425   C.ar      1 RES1   0.0000
    41 C29     10.4976   0.7714   8.0332   C.ar      1 RES1   0.0000
    42 C30     10.9943   0.1668   9.3025   C.3       1 RES1   0.0000
    43 C31     10.1816   1.9024  -0.0533   C.ar      1 RES1   0.0000
    44 C32      8.9191   2.0149  -0.6296   C.ar      1 RES1   0.0000
    45 C33      8.7721   2.5470  -1.8873   C.ar      1 RES1   0.0000
    46 C34      9.8567   2.9779  -2.5990   C.ar      1 RES1   0.0000
    47 C35     11.0995   2.8955  -2.0342   C.ar      1 RES1   0.0000
    48 C36     11.2709   2.3586  -0.7808   C.ar      1 RES1   0.0000
    49 C37     10.3447   1.3158   1.2606   C.2       1 RES1   0.0000
    50 C38     11.4223   0.7248   1.9046   C.2       1 RES1   0.0000
    51 C39     10.9693   0.3054   3.1536   C.2       1 RES1   0.0000
    52 C40     11.7259  -0.3959   4.2370   C.3       1 RES1   0.0000
    53 C41      6.6440   2.6207   3.4389   C.2       1 RES1   0.0000
    54 C42      5.7529   3.7659   3.8437   C.ar      1 RES1   0.0000
    55 C43      5.4334   3.9863   5.1620   C.ar      1 RES1   0.0000
    56 C44      4.6090   5.0520   5.5178   C.ar      1 RES1   0.0000
    57 C45      4.1096   5.8796   4.5338   C.ar      1 RES1   0.0000
    58 C46      4.4375   5.6665   3.2098   C.ar      1 RES1   0.0000
    59 C47      5.2627   4.6083   2.8684   C.ar      1 RES1   0.0000
    60 B1       8.8450  -1.1664   7.4065   B         1 RES1   0.0000
    61 H1       9.0772  -1.5742   8.2320   H         1 RES1   0.0000
    62 H2       6.6375  -0.9635   0.7275   H         1 RES1   0.0000
    63 H3       7.5025  -2.4353  -0.8183   H         1 RES1   0.0000
    64 H4       9.1085  -4.0208  -0.1628   H         1 RES1   0.0000
    65 H5       9.8211  -4.0803   2.0659   H         1 RES1   0.0000
    66 H6      10.0878  -4.4864   4.4503   H         1 RES1   0.0000
    67 H7      11.3235  -3.7351   7.4339   H         1 RES1   0.0000
    68 H8      10.3378  -4.9118   7.2063   H         1 RES1   0.0000
    69 H9       9.9220  -3.7141   8.1009   H         1 RES1   0.0000
    70 H10      5.0296  -0.2924   3.8985   H         1 RES1   0.0000
    71 H11      3.4347   0.8078   2.5745   H         1 RES1   0.0000
    72 H12      1.9629   2.3319   3.5570   H         1 RES1   0.0000
    73 H13      1.9599   2.6198   5.8448   H         1 RES1   0.0000
    74 H14      3.5416   1.5150   7.1674   H         1 RES1   0.0000
    75 H15      4.3231  -0.7690   8.2032   H         1 RES1   0.0000
    76 H16      6.5109  -2.8783   9.3745   H         1 RES1   0.0000
    77 H17      6.0263  -1.6586  10.2000   H         1 RES1   0.0000
    78 H18      7.5185  -1.7757   9.7937   H         1 RES1   0.0000
    79 H19      8.3230   4.0011   5.8938   H         1 RES1   0.0000
    80 H20      8.2685   5.6941   4.2932   H         1 RES1   0.0000
    81 H21      9.9869   5.8872   2.7402   H         1 RES1   0.0000
    82 H22     11.7976   4.4074   2.8064   H         1 RES1   0.0000
    83 H23     11.8598   2.7338   4.4243   H         1 RES1   0.0000
    84 H24     11.5152   2.5774   7.7523   H         1 RES1   0.0000
    85 H25     10.4697   0.4824  10.0286   H         1 RES1   0.0000
    86 H26     11.9042   0.4024   9.4437   H         1 RES1   0.0000
    87 H27     10.9189  -0.7786   9.2448   H         1 RES1   0.0000
    88 H28      8.1590   1.7019  -0.1542   H         1 RES1   0.0000
    89 H29      7.9032   2.6186  -2.2647   H         1 RES1   0.0000
    90 H30      9.7445   3.3618  -3.4605   H         1 RES1   0.0000
    91 H31     11.8578   3.1927  -2.5226   H         1 RES1   0.0000
    92 H32     12.1422   2.2886  -0.4077   H         1 RES1   0.0000
    93 H33     12.3025   0.6251   1.5617   H         1 RES1   0.0000
    94 H34     12.1231   0.2462   4.8133   H         1 RES1   0.0000
    95 H35     12.4037  -0.9372   3.8495   H         1 RES1   0.0000
    96 H36     11.1300  -0.9415   4.7355   H         1 RES1   0.0000
    97 H37      5.7656   3.3998   5.8319   H         1 RES1   0.0000
    98 H38      4.4032   5.2196   6.4297   H         1 RES1   0.0000
    99 H39      3.5279   6.5900   4.7759   H         1 RES1   0.0000
   100 H40      4.1064   6.2579   2.5442   H         1 RES1   0.0000
   101 H41      5.4900   4.4494   1.9608   H         1 RES1   0.0000
   102 H42      8.3085   1.7491   2.0025   H         1 RES1   0.0000
@<TRIPOS>BOND
     1     1     2    1
     2     2    53    1
     3     3    53    2
     4     4     1    1
     5     5     1    1
     6     6     5   ar
     7     7     1    1
     8     8     7   ar
     9     9     1    1
    10    10     9   ar
    11    11     1    1
    12    12    11    1
    13    13    14   ar
    14    14     4    1
    15    15    14   ar
    16    16    15   ar
    17    17    16   ar
    18    18    13   ar
    19    19     5   ar
    20    20    19   ar
    21    21     6   ar
    22    22    21    1
    23    23    24   ar
    24    24    25   ar
    25    25    26   ar
    26    26    27   ar
    27    27    28   ar
    28    28    23   ar
    29    29     7   ar
    30    30    29   ar
    31    31     8   ar
    32    32    31    1
    33    33    34   ar
    34    34    35   ar
    35    35    36   ar
    36    36    37   ar
    37    37    38   ar
    38    38    33   ar
    39    39     9   ar
    40    40    39   ar
    41    41    10   ar
    42    42    41    1
    43    43    44   ar
    44    44    45   ar
    45    45    46   ar
    46    46    47   ar
    47    47    48   ar
    48    48    43   ar
    49    49    12    1
    50    50    49    2
    51    51    11    2
    52    52    51    1
    53    53    54    1
    54    54    55   ar
    55    55    56   ar
    56    56    57   ar
    57    57    58   ar
    58    58    59   ar
    59    59    54   ar
    60    60     6    1
    61    61    60    1
    62    62    15    1
    63    63    16    1
    64    64    17    1
    65    65    18    1
    66    66    20    1
    67    67    22    1
    68    68    22    1
    69    69    22    1
    70    70    24    1
    71    71    25    1
    72    72    26    1
    73    73    27    1
    74    74    28    1
    75    75    30    1
    76    76    32    1
    77    77    32    1
    78    78    32    1
    79    79    34    1
    80    80    35    1
    81    81    36    1
    82    82    37    1
    83    83    38    1
    84    84    40    1
    85    85    42    1
    86    86    42    1
    87    87    42    1
    88    88    44    1
    89    89    45    1
    90    90    46    1
    91    91    47    1
    92    92    48    1
    93    93    50    1
    94    94    52    1
    95    95    52    1
    96    96    52    1
    97    97    55    1
    98    98    56    1
    99    99    57    1
   100   100    58    1
   101   101    59    1
   102   102    12    1
   103     8    60    1
   104    10    60    1
   105    13    19    1
   106    17    18   ar
   107    20    21   ar
   108    23    29    1
   109    30    31   ar
   110    33    39    1
   111    40    41   ar
   112    43    49    1
   113    50    51    1
@<TRIPOS>SUBSTRUCTURE
     1 RES1        1 GROUP             0 ****  ****    0  
@<TRIPOS>CRYSIN
   12.1020   12.8788   15.3834  110.4710   91.0120   91.2040     2     1
