@<TRIPOS>MOLECULE
KODBAH
   111   121     2     0     0
SMALL
NO_CHARGES
****
Generated from the CSD

@<TRIPOS>ATOM
     1 Fe1      8.4272   3.3752   3.8231   Fe        1 RES1   0.0000
     2 O1       9.4135   1.6951   3.8915   O.co2     1 RES1   0.0000
     3 O2      11.5116   1.9756   3.2172   O.co2     1 RES1   0.0000
     4 O3       9.8271   4.5147   4.4616   O.3       1 RES1   0.0000
     5 O4      11.8072  -3.5877   6.3298   O.3       1 RES1   0.0000
     6 N1       7.3016   5.1081   4.0775   N.ar      1 RES1   0.0000
     7 N2       5.9462   5.0810   4.1774   N.ar      1 RES1   0.0000
     8 N3       7.3775   2.7896   5.6339   N.ar      1 RES1   0.0000
     9 N4       6.0301   3.0825   5.6892   N.ar      1 RES1   0.0000
    10 N5       6.7127   2.4881   2.7762   N.ar      1 RES1   0.0000
    11 N6       5.4625   2.8151   3.2648   N.ar      1 RES1   0.0000
    12 N7       9.0473   4.0015   1.8483   N.2       1 RES1   0.0000
    13 N8      10.3518   3.8168   1.5563   N.pl3     1 RES1   0.0000
    14 C1       9.1010   6.7262   3.8901   C.ar      1 RES1   0.0000
    15 C2      10.1083   5.7958   4.1513   C.ar      1 RES1   0.0000
    16 C3      11.4431   6.1893   4.0929   C.ar      1 RES1   0.0000
    17 C4      11.7802   7.4865   3.7564   C.ar      1 RES1   0.0000
    18 C5      10.8008   8.4270   3.5014   C.ar      1 RES1   0.0000
    19 C6       9.4835   8.0585   3.5521   C.ar      1 RES1   0.0000
    20 C7       7.6835   6.3901   3.9823   C.ar      1 RES1   0.0000
    21 C8       6.5393   7.1848   3.9946   C.ar      1 RES1   0.0000
    22 C9       5.4633   6.3506   4.1390   C.ar      1 RES1   0.0000
    23 C10      4.0051   6.6458   4.1912   C.3       1 RES1   0.0000
    24 C11      9.0506   1.7429   7.1748   C.ar      1 RES1   0.0000
    25 C12     10.1816   2.5006   6.9382   C.ar      1 RES1   0.0000
    26 C13     11.3979   2.0351   7.3945   C.ar      1 RES1   0.0000
    27 C14     11.5230   0.8636   8.0583   C.ar      1 RES1   0.0000
    28 C15     10.4218   0.1172   8.3056   C.ar      1 RES1   0.0000
    29 C16      9.1534   0.5325   7.8693   C.ar      1 RES1   0.0000
    30 C17      7.6882   2.1996   6.8107   C.ar      1 RES1   0.0000
    31 C18      6.5496   2.1269   7.5958   C.ar      1 RES1   0.0000
    32 C19      5.5249   2.6911   6.8906   C.ar      1 RES1   0.0000
    33 C20      4.1009   2.8726   7.2824   C.3       1 RES1   0.0000
    34 C21      7.6044   1.3538   0.7513   C.ar      1 RES1   0.0000
    35 C22      8.5682   0.4564   1.2014   C.ar      1 RES1   0.0000
    36 C23      9.5752   0.0198   0.3426   C.ar      1 RES1   0.0000
    37 C24      9.6084   0.4373  -0.9556   C.ar      1 RES1   0.0000
    38 C25      8.6512   1.3133  -1.4227   C.ar      1 RES1   0.0000
    39 C26      7.6507   1.7474  -0.5854   C.ar      1 RES1   0.0000
    40 C27      6.5192   1.8430   1.6209   C.ar      1 RES1   0.0000
    41 C28      5.1588   1.7586   1.3535   C.ar      1 RES1   0.0000
    42 C29      4.5160   2.3707   2.3967   C.ar      1 RES1   0.0000
    43 C30      3.0517   2.5307   2.6395   C.3       1 RES1   0.0000
    44 C31     12.0577   4.2751  -0.1721   C.ar      1 RES1   0.0000
    45 C32     13.0827   4.9108   0.4793   C.ar      1 RES1   0.0000
    46 C33     14.3900   4.8516  -0.0446   C.ar      1 RES1   0.0000
    47 C34     14.6223   4.1416  -1.1753   C.ar      1 RES1   0.0000
    48 C35     13.6058   3.5131  -1.8283   C.ar      1 RES1   0.0000
    49 C36     12.3077   3.5814  -1.3382   C.ar      1 RES1   0.0000
    50 C37     10.6838   4.3578   0.3703   C.2       1 RES1   0.0000
    51 C38      9.5285   4.9335  -0.1152   C.2       1 RES1   0.0000
    52 C39      8.5354   4.6982   0.8158   C.2       1 RES1   0.0000
    53 C40      7.1077   5.1307   0.7605   C.3       1 RES1   0.0000
    54 C41     10.6364   1.3347   3.7964   C.2       1 RES1   0.0000
    55 C42     10.9715   0.0058   4.4186   C.ar      1 RES1   0.0000
    56 C43      9.9782  -0.8592   4.8457   C.ar      1 RES1   0.0000
    57 C44     10.2838  -2.0442   5.4587   C.ar      1 RES1   0.0000
    58 C45     11.5941  -2.4026   5.6523   C.ar      1 RES1   0.0000
    59 C46     12.5966  -1.5865   5.2068   C.ar      1 RES1   0.0000
    60 C47     12.2769  -0.3910   4.5815   C.ar      1 RES1   0.0000
    61 C48     13.1433  -3.8880   6.7385   C.3       1 RES1   0.0000
    62 B1       5.2963   3.7155   4.4939   B         1 RES1   0.0000
    63 H1       4.3461   3.8327   4.7028   H         1 RES1   0.0000
    64 H2      12.1134   5.5742   4.2819   H         1 RES1   0.0000
    65 H3      12.6761   7.7291   3.6996   H         1 RES1   0.0000
    66 H4      11.0344   9.3038   3.2970   H         1 RES1   0.0000
    67 H5       8.8263   8.6883   3.3631   H         1 RES1   0.0000
    68 H6       6.5115   8.1124   3.9177   H         1 RES1   0.0000
    69 H7       3.6518   6.6748   3.2986   H         1 RES1   0.0000
    70 H8       3.8650   7.4950   4.6183   H         1 RES1   0.0000
    71 H9       3.5576   5.9593   4.6905   H         1 RES1   0.0000
    72 H10     10.1239   3.3077   6.4789   H         1 RES1   0.0000
    73 H11     12.1602   2.5461   7.2409   H         1 RES1   0.0000
    74 H12     12.3592   0.5728   8.3425   H         1 RES1   0.0000
    75 H13     10.5066  -0.6839   8.7711   H         1 RES1   0.0000
    76 H14      8.3982   0.0149   8.0398   H         1 RES1   0.0000
    77 H15      6.4923   1.7616   8.4485   H         1 RES1   0.0000
    78 H16      3.9997   3.7100   7.7387   H         1 RES1   0.0000
    79 H17      3.8361   2.1568   7.8631   H         1 RES1   0.0000
    80 H18      3.5505   2.8673   6.4958   H         1 RES1   0.0000
    81 H19      8.5415   0.1478   2.0772   H         1 RES1   0.0000
    82 H20     10.2285  -0.5601   0.6576   H         1 RES1   0.0000
    83 H21     10.2759   0.1303  -1.5256   H         1 RES1   0.0000
    84 H22      8.6833   1.6100  -2.3030   H         1 RES1   0.0000
    85 H23      6.9925   2.3151  -0.9172   H         1 RES1   0.0000
    86 H24      4.7628   1.3628   0.6115   H         1 RES1   0.0000
    87 H25      2.7239   1.7700   3.1250   H         1 RES1   0.0000
    88 H26      2.5937   2.5967   1.7991   H         1 RES1   0.0000
    89 H27      2.8969   3.3279   3.1526   H         1 RES1   0.0000
    90 H28     12.9165   5.3810   1.2644   H         1 RES1   0.0000
    91 H29     15.0873   5.2967   0.3810   H         1 RES1   0.0000
    92 H30     15.4890   4.0822  -1.5103   H         1 RES1   0.0000
    93 H31     13.7821   3.0356  -2.6072   H         1 RES1   0.0000
    94 H32     11.6122   3.1609  -1.7914   H         1 RES1   0.0000
    95 H33      9.4350   5.3948  -0.9172   H         1 RES1   0.0000
    96 H34      6.5822   4.4436   0.3426   H         1 RES1   0.0000
    97 H35      7.0392   5.9416   0.2504   H         1 RES1   0.0000
    98 H36      6.7854   5.2831   1.6516   H         1 RES1   0.0000
    99 H37      9.0867  -0.6309   4.7151   H         1 RES1   0.0000
   100 H38      9.6016  -2.6083   5.7445   H         1 RES1   0.0000
   101 H39     13.4869  -1.8326   5.3220   H         1 RES1   0.0000
   102 H40     12.9619   0.1548   4.2650   H         1 RES1   0.0000
   103 H41     13.5899  -4.3735   6.0410   H         1 RES1   0.0000
   104 H42     13.1226  -4.4202   7.5374   H         1 RES1   0.0000
   105 H43     13.6163  -3.0698   6.9106   H         1 RES1   0.0000
   106 H44     10.9015   3.2868   2.1432   H         1 RES1   0.0000
   107 Cl1      4.3897  -0.2800   4.9560   Cl        2 RES2   0.0000
   108 Cl2      6.5606  -2.0060   4.0837   Cl        2 RES2   0.0000
   109 C49      5.9754  -0.4525   4.4970   C.3       2 RES2   0.0000
   110 H45      6.5266  -0.1148   5.2206   H         2 RES2   0.0000
   111 H46      6.1226   0.1286   3.7334   H         2 RES2   0.0000
@<TRIPOS>BOND
     1     1     2    1
     2     2    54    1
     3     3    54    2
     4     4     1    1
     5     5    58    1
     6     6     1    1
     7     7     6   ar
     8     8     1    1
     9     9     8   ar
    10    10     1    1
    11    11    10   ar
    12    12     1    1
    13    13    12    1
    14    14    15   ar
    15    15     4    1
    16    16    15   ar
    17    17    16   ar
    18    18    17   ar
    19    19    14   ar
    20    20     6   ar
    21    21    20   ar
    22    22     7   ar
    23    23    22    1
    24    24    25   ar
    25    25    26   ar
    26    26    27   ar
    27    27    28   ar
    28    28    29   ar
    29    29    24   ar
    30    30     8   ar
    31    31    30   ar
    32    32     9   ar
    33    33    32    1
    34    34    35   ar
    35    35    36   ar
    36    36    37   ar
    37    37    38   ar
    38    38    39   ar
    39    39    34   ar
    40    40    10   ar
    41    41    40   ar
    42    42    11   ar
    43    43    42    1
    44    44    45   ar
    45    45    46   ar
    46    46    47   ar
    47    47    48   ar
    48    48    49   ar
    49    49    44   ar
    50    50    13    1
    51    51    50    2
    52    52    12    2
    53    53    52    1
    54    54    55    1
    55    55    56   ar
    56    56    57   ar
    57    57    58   ar
    58    58    59   ar
    59    59    60   ar
    60    60    55   ar
    61    61     5    1
    62    62     7    1
    63    63    62    1
    64    64    16    1
    65    65    17    1
    66    66    18    1
    67    67    19    1
    68    68    21    1
    69    69    23    1
    70    70    23    1
    71    71    23    1
    72    72    25    1
    73    73    26    1
    74    74    27    1
    75    75    28    1
    76    76    29    1
    77    77    31    1
    78    78    33    1
    79    79    33    1
    80    80    33    1
    81    81    35    1
    82    82    36    1
    83    83    37    1
    84    84    38    1
    85    85    39    1
    86    86    41    1
    87    87    43    1
    88    88    43    1
    89    89    43    1
    90    90    45    1
    91    91    46    1
    92    92    47    1
    93    93    48    1
    94    94    49    1
    95    95    51    1
    96    96    53    1
    97    97    53    1
    98    98    53    1
    99    99    56    1
   100   100    57    1
   101   101    59    1
   102   102    60    1
   103   103    61    1
   104   104    61    1
   105   105    61    1
   106   106    13    1
   107     9    62    1
   108    11    62    1
   109    14    20    1
   110    18    19   ar
   111    21    22   ar
   112    24    30    1
   113    31    32   ar
   114    34    40    1
   115    41    42   ar
   116    44    50    1
   117    51    52    1
   118   107   109    1
   119   108   109    1
   120   109   110    1
   121   111   109    1
@<TRIPOS>SUBSTRUCTURE
     1 RES1        1 GROUP             0 ****  ****    0  
     2 RES2      107 GROUP             0 ****  ****    0  
@<TRIPOS>CRYSIN
   11.4930   14.1620   17.0040   98.8500  108.8600  109.9900     2     1
