@<TRIPOS>MOLECULE
KOMBEX
   101   112     1     0     0
SMALL
NO_CHARGES
****
Generated from the CSD

@<TRIPOS>ATOM
     1 Fe1      7.2469   2.6791  10.7405   Fe        1 RES1   0.0000
     2 P1       6.4433   3.1846   8.8089   P.3       1 RES1   0.0000
     3 P2       6.9908   0.5679  10.6299   P.3       1 RES1   0.0000
     4 P3       6.0639   3.5043  12.3406   P.3       1 RES1   0.0000
     5 P4       8.8752   3.7714  11.6457   P.3       1 RES1   0.0000
     6 C1       8.0267   2.3975   8.8011   C.2       1 RES1   0.0000
     7 H1       8.8150   2.8762   8.4384   H         1 RES1   0.0000
     8 C2       8.2409   1.2165   9.5590   C.2       1 RES1   0.0000
     9 H2       9.1489   0.9175   9.6710   H         1 RES1   0.0000
    10 C3       5.2458   2.3392   7.7060   C.ar      1 RES1   0.0000
    11 C4       4.0069   1.9335   8.1992   C.ar      1 RES1   0.0000
    12 H3       3.7828   2.0976   9.1077   H         1 RES1   0.0000
    13 C5       3.0949   1.2879   7.3650   C.ar      1 RES1   0.0000
    14 H4       2.2507   1.0160   7.7053   H         1 RES1   0.0000
    15 C6       3.4199   1.0415   6.0344   C.ar      1 RES1   0.0000
    16 H5       2.7990   0.5969   5.4694   H         1 RES1   0.0000
    17 C7       4.6540   1.4454   5.5294   C.ar      1 RES1   0.0000
    18 H6       4.8755   1.2774   4.6211   H         1 RES1   0.0000
    19 C8       5.5610   2.0959   6.3610   C.ar      1 RES1   0.0000
    20 H7       6.3998   2.3773   6.0149   H         1 RES1   0.0000
    21 C9       6.6419   4.7666   7.9180   C.ar      1 RES1   0.0000
    22 C10      7.7326   5.0779   7.0996   C.ar      1 RES1   0.0000
    23 H8       8.3893   4.4160   6.9176   H         1 RES1   0.0000
    24 C11      7.8636   6.3515   6.5490   C.ar      1 RES1   0.0000
    25 H9       8.6124   6.5575   6.0019   H         1 RES1   0.0000
    26 C12      6.8992   7.3203   6.8000   C.ar      1 RES1   0.0000
    27 H10      6.9910   8.1892   6.4270   H         1 RES1   0.0000
    28 C13      5.7996   7.0188   7.5970   C.ar      1 RES1   0.0000
    29 H11      5.1347   7.6776   7.7592   H         1 RES1   0.0000
    30 C14      5.6747   5.7502   8.1565   C.ar      1 RES1   0.0000
    31 H12      4.9258   5.5500   8.7057   H         1 RES1   0.0000
    32 C15      5.6471  -0.3961   9.8566   C.ar      1 RES1   0.0000
    33 C16      4.4370  -0.5025  10.5558   C.ar      1 RES1   0.0000
    34 H13      4.3487  -0.0880  11.4061   H         1 RES1   0.0000
    35 C17      3.3636  -1.2072  10.0206   C.ar      1 RES1   0.0000
    36 H14      2.5536  -1.2871  10.5105   H         1 RES1   0.0000
    37 C18      3.4814  -1.7950   8.7642   C.ar      1 RES1   0.0000
    38 H15      2.7515  -2.2768   8.3933   H         1 RES1   0.0000
    39 C19      4.6702  -1.6748   8.0537   C.ar      1 RES1   0.0000
    40 H16      4.7423  -2.0613   7.1889   H         1 RES1   0.0000
    41 C20      5.7563  -0.9937   8.5971   C.ar      1 RES1   0.0000
    42 H17      6.5713  -0.9350   8.1124   H         1 RES1   0.0000
    43 C21      7.8689  -0.7071  11.6137   C.ar      1 RES1   0.0000
    44 C22      7.4406  -2.0196  11.7655   C.ar      1 RES1   0.0000
    45 H18      6.6273  -2.3025  11.3643   H         1 RES1   0.0000
    46 C23      8.2043  -2.9249  12.5080   C.ar      1 RES1   0.0000
    47 H19      7.9017  -3.8199  12.6077   H         1 RES1   0.0000
    48 C24      9.3864  -2.5413  13.0964   C.ar      1 RES1   0.0000
    49 H20      9.9042  -3.1668  13.5897   H         1 RES1   0.0000
    50 C25      9.8098  -1.2363  12.9606   C.ar      1 RES1   0.0000
    51 H21     10.6235  -0.9589  13.3646   H         1 RES1   0.0000
    52 C26      9.0515  -0.3247  12.2351   C.ar      1 RES1   0.0000
    53 H22      9.3470   0.5753  12.1630   H         1 RES1   0.0000
    54 C27      4.9871   2.5548  13.5048   C.ar      1 RES1   0.0000
    55 C28      4.0074   3.2042  14.2688   C.ar      1 RES1   0.0000
    56 H23      3.8258   4.1236  14.1129   H         1 RES1   0.0000
    57 C29      3.2968   2.5219  15.2523   C.ar      1 RES1   0.0000
    58 H24      2.6479   2.9785  15.7749   H         1 RES1   0.0000
    59 C30      3.5399   1.1715  15.4670   C.ar      1 RES1   0.0000
    60 H25      3.0451   0.6982  16.1255   H         1 RES1   0.0000
    61 C31      4.5078   0.5132  14.7173   C.ar      1 RES1   0.0000
    62 H26      4.6720  -0.4110  14.8632   H         1 RES1   0.0000
    63 C32      5.2393   1.2055  13.7512   C.ar      1 RES1   0.0000
    64 H27      5.9140   0.7543  13.2576   H         1 RES1   0.0000
    65 C33      4.9517   4.8762  11.8450   C.ar      1 RES1   0.0000
    66 C34      3.6855   4.5948  11.3192   C.ar      1 RES1   0.0000
    67 H28      3.3585   3.7030  11.3275   H         1 RES1   0.0000
    68 C35      2.9013   5.6154  10.7832   C.ar      1 RES1   0.0000
    69 H29      2.0444   5.4155  10.4248   H         1 RES1   0.0000
    70 C36      3.3693   6.9253  10.7713   C.ar      1 RES1   0.0000
    71 H30      2.8361   7.6179  10.3992   H         1 RES1   0.0000
    72 C37      4.6153   7.2179  11.3038   C.ar      1 RES1   0.0000
    73 H31      4.9320   8.1136  11.3059   H         1 RES1   0.0000
    74 C38      5.4052   6.1978  11.8368   C.ar      1 RES1   0.0000
    75 H32      6.2595   6.4043  12.1975   H         1 RES1   0.0000
    76 C39      7.1264   4.2971  13.6063   C.2       1 RES1   0.0000
    77 H33      6.7705   4.6511  14.4128   H         1 RES1   0.0000
    78 C40      8.4291   4.3471  13.3264   C.2       1 RES1   0.0000
    79 H34      9.0754   4.6571  13.9499   H         1 RES1   0.0000
    80 C41     10.4863   2.9398  11.8776   C.ar      1 RES1   0.0000
    81 C42     10.9015   2.4807  13.1298   C.ar      1 RES1   0.0000
    82 H35     10.3789   2.6780  13.8984   H         1 RES1   0.0000
    83 C43     12.0719   1.7377  13.2667   C.ar      1 RES1   0.0000
    84 H36     12.3413   1.4320  14.1248   H         1 RES1   0.0000
    85 C44     12.8436   1.4433  12.1551   C.ar      1 RES1   0.0000
    86 H37     13.6453   0.9426  12.2503   H         1 RES1   0.0000
    87 C45     12.4406   1.8830  10.8998   C.ar      1 RES1   0.0000
    88 H38     12.9637   1.6745  10.1346   H         1 RES1   0.0000
    89 C46     11.2702   2.6301  10.7595   C.ar      1 RES1   0.0000
    90 H39     11.0033   2.9307   9.8989   H         1 RES1   0.0000
    91 C47      9.4508   5.4194  11.0349   C.ar      1 RES1   0.0000
    92 C48      8.5468   6.2015  10.3185   C.ar      1 RES1   0.0000
    93 H40      7.6954   5.8459  10.0923   H         1 RES1   0.0000
    94 C49      8.8761   7.4989   9.9298   C.ar      1 RES1   0.0000
    95 H41      8.2442   8.0275   9.4568   H         1 RES1   0.0000
    96 C50     10.1249   8.0182  10.2332   C.ar      1 RES1   0.0000
    97 H42     10.3553   8.8988   9.9609   H         1 RES1   0.0000
    98 C51     11.0359   7.2443  10.9364   C.ar      1 RES1   0.0000
    99 H43     11.8956   7.5956  11.1369   H         1 RES1   0.0000
   100 C52     10.7032   5.9564  11.3522   C.ar      1 RES1   0.0000
   101 H44     11.3272   5.4428  11.8514   H         1 RES1   0.0000
@<TRIPOS>BOND
     1     1     2    1
     2     2     6    1
     3     3     1    1
     4     4     1    1
     5     5     1    1
     6     6     1   un
     7     7     6    1
     8     8     1   un
     9     9     8    1
    10    10     2    1
    11    11    10   ar
    12    12    11    1
    13    13    11   ar
    14    14    13    1
    15    15    13   ar
    16    16    15    1
    17    17    15   ar
    18    18    17    1
    19    19    10   ar
    20    20    19    1
    21    21     2    1
    22    22    21   ar
    23    23    22    1
    24    24    22   ar
    25    25    24    1
    26    26    24   ar
    27    27    26    1
    28    28    26   ar
    29    29    28    1
    30    30    21   ar
    31    31    30    1
    32    32     3    1
    33    33    32   ar
    34    34    33    1
    35    35    33   ar
    36    36    35    1
    37    37    35   ar
    38    38    37    1
    39    39    37   ar
    40    40    39    1
    41    41    32   ar
    42    42    41    1
    43    43     3    1
    44    44    43   ar
    45    45    44    1
    46    46    44   ar
    47    47    46    1
    48    48    46   ar
    49    49    48    1
    50    50    48   ar
    51    51    50    1
    52    52    43   ar
    53    53    52    1
    54    54     4    1
    55    55    54   ar
    56    56    55    1
    57    57    55   ar
    58    58    57    1
    59    59    57   ar
    60    60    59    1
    61    61    59   ar
    62    62    61    1
    63    63    54   ar
    64    64    63    1
    65    65     4    1
    66    66    65   ar
    67    67    66    1
    68    68    66   ar
    69    69    68    1
    70    70    68   ar
    71    71    70    1
    72    72    70   ar
    73    73    72    1
    74    74    65   ar
    75    75    74    1
    76    76     4    1
    77    77    76    1
    78    78     5    1
    79    79    78    1
    80    80     5    1
    81    81    80   ar
    82    82    81    1
    83    83    81   ar
    84    84    83    1
    85    85    83   ar
    86    86    85    1
    87    87    85   ar
    88    88    87    1
    89    89    80   ar
    90    90    89    1
    91    91     5    1
    92    92    91   ar
    93    93    92    1
    94    94    92   ar
    95    95    94    1
    96    96    94   ar
    97    97    96    1
    98    98    96   ar
    99    99    98    1
   100   100    91   ar
   101   101   100    1
   102     3     8    1
   103     6     8    2
   104    17    19   ar
   105    28    30   ar
   106    39    41   ar
   107    50    52   ar
   108    61    63   ar
   109    72    74   ar
   110    76    78    2
   111    87    89   ar
   112    98   100   ar
@<TRIPOS>SUBSTRUCTURE
     1 RES1        1 GROUP             0 ****  ****    0  
@<TRIPOS>CRYSIN
   11.4956   13.6596   14.7853   88.3940   77.5880   68.4890     2     1
