@<TRIPOS>MOLECULE
KOMBAT
   113   121     2     0     0
SMALL
USER_CHARGES
****
Generated from the CSD

@<TRIPOS>ATOM
     1 Fe1      6.3683   7.6472   8.6252   Fe        1 RES1   1.0000
     2 P1       6.2960   5.9421   7.1438   P.3       1 RES1   0.0000
     3 P2       8.0402   8.4234   7.2990   P.3       1 RES1   0.0000
     4 P3       6.2777   9.4986   9.9189   P.3       1 RES1   0.0000
     5 P4       4.4172   7.0873   9.6567   P.3       1 RES1   0.0000
     6 N1       7.4771   6.7205   9.7841   N.1       1 RES1   0.0000
     7 N2       8.1310   6.1689  10.4546   N.1       1 RES1   0.0000
     8 C1       6.3456   4.2440   7.7812   C.ar      1 RES1   0.0000
     9 C2       5.1839   3.4841   7.9186   C.ar      1 RES1   0.0000
    10 H1       4.3455   3.8447   7.6553   H         1 RES1   0.0000
    11 C3       5.2512   2.1989   8.4411   C.ar      1 RES1   0.0000
    12 H2       4.4579   1.6878   8.5410   H         1 RES1   0.0000
    13 C4       6.4696   1.6604   8.8156   C.ar      1 RES1   0.0000
    14 H3       6.5167   0.7734   9.1509   H         1 RES1   0.0000
    15 C5       7.6164   2.4222   8.6979   C.ar      1 RES1   0.0000
    16 H4       8.4556   2.0594   8.9579   H         1 RES1   0.0000
    17 C6       7.5477   3.7017   8.2075   C.ar      1 RES1   0.0000
    18 H5       8.3378   4.2261   8.1603   H         1 RES1   0.0000
    19 C7       5.0648   5.8950   5.7909   C.ar      1 RES1   0.0000
    20 C8       4.9615   4.7524   4.9919   C.ar      1 RES1   0.0000
    21 H6       5.4469   3.9681   5.2221   H         1 RES1   0.0000
    22 C9       4.1578   4.7580   3.8755   C.ar      1 RES1   0.0000
    23 H7       4.0978   3.9791   3.3334   H         1 RES1   0.0000
    24 C10      3.4363   5.8875   3.5330   C.ar      1 RES1   0.0000
    25 H8       2.8698   5.8792   2.7699   H         1 RES1   0.0000
    26 C11      3.5410   7.0226   4.2999   C.ar      1 RES1   0.0000
    27 H9       3.0572   7.8027   4.0587   H         1 RES1   0.0000
    28 C12      4.3522   7.0320   5.4306   C.ar      1 RES1   0.0000
    29 H10      4.4207   7.8196   5.9572   H         1 RES1   0.0000
    30 C13      7.8148   6.0188   6.0976   C.3       1 RES1   0.0000
    31 H11      8.6066   5.7102   6.6042   H         1 RES1   0.0000
    32 H12      7.7126   5.4582   5.2884   H         1 RES1   0.0000
    33 C14      7.9520   7.4860   5.7231   C.3       1 RES1   0.0000
    34 H13      7.1712   7.7814   5.1901   H         1 RES1   0.0000
    35 H14      8.7723   7.6314   5.1890   H         1 RES1   0.0000
    36 C15      8.0636  10.1183   6.6220   C.ar      1 RES1   0.0000
    37 C16      9.2255  10.8970   6.5952   C.ar      1 RES1   0.0000
    38 H15     10.0035  10.5970   7.0520   H         1 RES1   0.0000
    39 C17      9.2546  12.1015   5.9068   C.ar      1 RES1   0.0000
    40 H16     10.0490  12.6216   5.8916   H         1 RES1   0.0000
    41 C18      8.1264  12.5443   5.2434   C.ar      1 RES1   0.0000
    42 H17      8.1471  13.3627   4.7613   H         1 RES1   0.0000
    43 C19      6.9721  11.7938   5.2826   C.ar      1 RES1   0.0000
    44 H18      6.1910  12.1157   4.8482   H         1 RES1   0.0000
    45 C20      6.9351  10.5761   5.9460   C.ar      1 RES1   0.0000
    46 H19      6.1398  10.0566   5.9408   H         1 RES1   0.0000
    47 C21      9.7840   8.1427   7.8044   C.ar      1 RES1   0.0000
    48 C22     10.1321   8.1296   9.1384   C.ar      1 RES1   0.0000
    49 H20      9.4621   8.2736   9.7963   H         1 RES1   0.0000
    50 C23     11.4494   7.9082   9.5433   C.ar      1 RES1   0.0000
    51 H21     11.6598   7.8796  10.4698   H         1 RES1   0.0000
    52 C24     12.4404   7.7299   8.6141   C.ar      1 RES1   0.0000
    53 H22     13.3371   7.5779   8.8879   H         1 RES1   0.0000
    54 C25     12.1120   7.7731   7.2712   C.ar      1 RES1   0.0000
    55 H23     12.7951   7.6746   6.6176   H         1 RES1   0.0000
    56 C26     10.8032   7.9607   6.8681   C.ar      1 RES1   0.0000
    57 H24     10.5950   7.9657   5.9406   H         1 RES1   0.0000
    58 C27      5.6012  11.1109   9.3382   C.ar      1 RES1   0.0000
    59 C28      4.7660  11.1671   8.2324   C.ar      1 RES1   0.0000
    60 H25      4.6144  10.3845   7.7145   H         1 RES1   0.0000
    61 C29      4.1473  12.3623   7.8775   C.ar      1 RES1   0.0000
    62 H26      3.5566  12.3903   7.1342   H         1 RES1   0.0000
    63 C30      4.3894  13.5030   8.6034   C.ar      1 RES1   0.0000
    64 H27      4.0060  14.3288   8.3309   H         1 RES1   0.0000
    65 C31      5.1907  13.4561   9.7305   C.ar      1 RES1   0.0000
    66 H28      5.3301  14.2371  10.2515   H         1 RES1   0.0000
    67 C32      5.7870  12.2647  10.0926   C.ar      1 RES1   0.0000
    68 H29      6.3334  12.2339  10.8686   H         1 RES1   0.0000
    69 C33      7.8074   9.9514  10.7864   C.ar      1 RES1   0.0000
    70 C34      8.6575  10.9514  10.3048   C.ar      1 RES1   0.0000
    71 H30      8.3779  11.4949   9.5777   H         1 RES1   0.0000
    72 C35      9.8945  11.1596  10.8737   C.ar      1 RES1   0.0000
    73 H31     10.4476  11.8641  10.5591   H         1 RES1   0.0000
    74 C36     10.3346  10.3472  11.8992   C.ar      1 RES1   0.0000
    75 H32     11.2022  10.4709  12.2669   H         1 RES1   0.0000
    76 C37      9.5037   9.3510  12.3933   C.ar      1 RES1   0.0000
    77 H33      9.8012   8.7942  13.1025   H         1 RES1   0.0000
    78 C38      8.2394   9.1634  11.8529   C.ar      1 RES1   0.0000
    79 H34      7.6649   8.4973  12.2104   H         1 RES1   0.0000
    80 C39      5.0647   9.1727  11.2625   C.3       1 RES1   0.0000
    81 H35      5.4363   8.5346  11.9217   H         1 RES1   0.0000
    82 H36      4.8281  10.0127  11.7308   H         1 RES1   0.0000
    83 C40      3.8514   8.5855  10.5759   C.3       1 RES1   0.0000
    84 H37      3.4600   9.2440   9.9486   H         1 RES1   0.0000
    85 H38      3.1645   8.3388  11.2434   H         1 RES1   0.0000
    86 C41      2.9232   6.6624   8.7015   C.ar      1 RES1   0.0000
    87 C42      2.3693   7.6174   7.8579   C.ar      1 RES1   0.0000
    88 H39      2.7684   8.4775   7.7927   H         1 RES1   0.0000
    89 C43      1.2439   7.3284   7.1160   C.ar      1 RES1   0.0000
    90 H40      0.8745   7.9867   6.5389   H         1 RES1   0.0000
    91 C44      0.6530   6.0864   7.2070   C.ar      1 RES1   0.0000
    92 H41     -0.1088   5.8807   6.6781   H         1 RES1   0.0000
    93 C45      1.1683   5.1520   8.0594   C.ar      1 RES1   0.0000
    94 H42      0.7513   4.3026   8.1380   H         1 RES1   0.0000
    95 C46      2.2946   5.4391   8.8085   C.ar      1 RES1   0.0000
    96 H43      2.6393   4.7855   9.4062   H         1 RES1   0.0000
    97 C47      4.3906   5.8050  10.9736   C.ar      1 RES1   0.0000
    98 C48      5.3576   4.8068  11.0610   C.ar      1 RES1   0.0000
    99 H44      6.0422   4.7618  10.4050   H         1 RES1   0.0000
   100 C49      5.3385   3.8800  12.0865   C.ar      1 RES1   0.0000
   101 H45      6.0079   3.2077  12.1365   H         1 RES1   0.0000
   102 C50      4.3381   3.9400  13.0389   C.ar      1 RES1   0.0000
   103 H46      4.3426   3.3276  13.7664   H         1 RES1   0.0000
   104 C51      3.3342   4.8819  12.9426   C.ar      1 RES1   0.0000
   105 H47      2.6248   4.8878  13.5754   H         1 RES1   0.0000
   106 C52      3.3602   5.8200  11.9206   C.ar      1 RES1   0.0000
   107 H48      2.6749   6.4754  11.8620   H         1 RES1   0.0000
   108 H49      5.3636   8.3866   7.8115   H         1 RES1   0.0000
   109 Cl1      8.8740  -1.1856  14.3053   Cl        2 RES2   0.0000
   110 Cl2      5.3598  -0.9968  14.1587   Cl        2 RES2   0.0000
   111 Cl3      7.0565  -3.1976  12.1272   Cl        2 RES2  -1.0000
   112 Cl4      7.3383   0.2469  11.6340   Cl        2 RES2   0.0000
   113 Al1      7.1494  -1.2923  13.0644   Al        2 RES2   0.0000
@<TRIPOS>BOND
     1     1     2    1
     2     2     8    1
     3     3     1    1
     4     4     1    1
     5     5     1    1
     6     6     1    1
     7     7     6    3
     8     8     9   ar
     9     9    10    1
    10    11     9   ar
    11    12    11    1
    12    13    11   ar
    13    14    13    1
    14    15    13   ar
    15    16    15    1
    16    17     8   ar
    17    18    17    1
    18    19     2    1
    19    20    19   ar
    20    21    20    1
    21    22    20   ar
    22    23    22    1
    23    24    22   ar
    24    25    24    1
    25    26    24   ar
    26    27    26    1
    27    28    19   ar
    28    29    28    1
    29    30     2    1
    30    31    30    1
    31    32    30    1
    32    33     3    1
    33    34    33    1
    34    35    33    1
    35    36     3    1
    36    37    36   ar
    37    38    37    1
    38    39    37   ar
    39    40    39    1
    40    41    39   ar
    41    42    41    1
    42    43    41   ar
    43    44    43    1
    44    45    36   ar
    45    46    45    1
    46    47     3    1
    47    48    47   ar
    48    49    48    1
    49    50    48   ar
    50    51    50    1
    51    52    50   ar
    52    53    52    1
    53    54    52   ar
    54    55    54    1
    55    56    47   ar
    56    57    56    1
    57    58     4    1
    58    59    58   ar
    59    60    59    1
    60    61    59   ar
    61    62    61    1
    62    63    61   ar
    63    64    63    1
    64    65    63   ar
    65    66    65    1
    66    67    58   ar
    67    68    67    1
    68    69     4    1
    69    70    69   ar
    70    71    70    1
    71    72    70   ar
    72    73    72    1
    73    74    72   ar
    74    75    74    1
    75    76    74   ar
    76    77    76    1
    77    78    69   ar
    78    79    78    1
    79    80     4    1
    80    81    80    1
    81    82    80    1
    82    83     5    1
    83    84    83    1
    84    85    83    1
    85    86     5    1
    86    87    86   ar
    87    88    87    1
    88    89    87   ar
    89    90    89    1
    90    91    89   ar
    91    92    91    1
    92    93    91   ar
    93    94    93    1
    94    95    86   ar
    95    96    95    1
    96    97     5    1
    97    98    97   ar
    98    99    98    1
    99   100    98   ar
   100   101   100    1
   101   102   100   ar
   102   103   102    1
   103   104   102   ar
   104   105   104    1
   105   106    97   ar
   106   107   106    1
   107   108     1    1
   108    15    17   ar
   109    26    28   ar
   110    30    33    1
   111    43    45   ar
   112    54    56   ar
   113    65    67   ar
   114    76    78   ar
   115    80    83    1
   116    93    95   ar
   117   104   106   ar
   118   109   113    1
   119   110   113    1
   120   111   113    1
   121   112   113    1
@<TRIPOS>SUBSTRUCTURE
     1 RES1        1 GROUP             0 ****  ****    0  
     2 RES2      109 GROUP             0 ****  ****    0  
@<TRIPOS>CRYSIN
   14.5290   18.7620   17.9080   90.0000   95.1900   90.0000     9     1
