@<TRIPOS>MOLECULE
KOQFIH
   104   109     5     0     0
SMALL
USER_CHARGES
****
Generated from the CSD

@<TRIPOS>ATOM
     1 Fe1     15.0857  10.0872   3.1578   Fe        1 RES1   2.0000
     2 O1      12.8586  11.3218  -1.6584   O.2       1 RES1   0.0000
     3 O2      14.9924  11.1237  -2.3343   O.3       1 RES1   0.0000
     4 O3      17.5693  14.8429   1.3833   O.2       1 RES1   0.0000
     5 O4      15.4803  15.6055   1.6691   O.3       1 RES1   0.0000
     6 O5      14.2563  13.9020  -0.4285   O.3       1 RES1   0.0000
     7 H1      14.5936  14.6451  -0.6280   H         1 RES1   0.0000
     8 O6      16.3978  13.1244  -0.8405   O.3       1 RES1   0.0000
     9 H2      16.1588  13.1986  -1.6420   H         1 RES1   0.0000
    10 O7      15.8043   8.7244   4.0735   O.3       1 RES1   0.0000
    11 N1      14.7290   8.7607   1.4035   N.ar      1 RES1   0.0000
    12 N2      16.4373  11.4622   4.0921   N.ar      1 RES1   0.0000
    13 N3      16.4097  10.7998   1.5634   N.3       1 RES1   0.0000
    14 N4      13.1172   9.6249   3.7605   N.ar      1 RES1   0.0000
    15 N5      13.6967  12.0482   5.3309   N.ar      1 RES1   0.0000
    16 N6      13.8723  11.8604   2.3509   N.3       1 RES1   0.0000
    17 C1      14.6414  11.6045  -0.0420   C.3       1 RES1   0.0000
    18 C2      15.7721  10.5838   0.2351   C.3       1 RES1   0.0000
    19 H3      16.4688  10.6665  -0.4783   H         1 RES1   0.0000
    20 C3      16.8208  12.2169   1.8252   C.3       1 RES1   0.0000
    21 H4      17.6500  12.4125   1.3016   H         1 RES1   0.0000
    22 C4      15.7308  13.2578   1.4424   C.3       1 RES1   0.0000
    23 C5      14.5083  13.2064   2.3648   C.3       1 RES1   0.0000
    24 H5      14.7846  13.4279   3.2886   H         1 RES1   0.0000
    25 H6      13.8487  13.8838   2.0723   H         1 RES1   0.0000
    26 C6      13.4653  11.5573   0.9534   C.3       1 RES1   0.0000
    27 H7      12.7766  12.2098   0.6701   H         1 RES1   0.0000
    28 H8      13.0571  10.6565   0.9262   H         1 RES1   0.0000
    29 C7      15.2713  13.0211  -0.0290   C.3       1 RES1   0.0000
    30 C8      14.0441  11.3367  -1.4263   C.2       1 RES1   0.0000
    31 C9      14.5248  10.8033  -3.6716   C.3       1 RES1   0.0000
    32 H9      15.2914  10.5841  -4.2417   H         1 RES1   0.0000
    33 H10     14.0491  11.5739  -4.0452   H         1 RES1   0.0000
    34 H11     13.9186  10.0341  -3.6301   H         1 RES1   0.0000
    35 C10     16.3879  14.6450   1.5017   C.2       1 RES1   0.0000
    36 C11     16.0150  16.9678   1.6933   C.3       1 RES1   0.0000
    37 H12     16.4352  17.1697   0.8315   H         1 RES1   0.0000
    38 H13     16.6822  17.0445   2.4080   H         1 RES1   0.0000
    39 H14     15.2862  17.6024   1.8571   H         1 RES1   0.0000
    40 C12     15.2134   9.1844   0.2180   C.ar      1 RES1   0.0000
    41 C13     15.1615   8.4058  -0.9283   C.ar      1 RES1   0.0000
    42 H15     15.5403   8.7183  -1.7414   H         1 RES1   0.0000
    43 C14     14.5465   7.1604  -0.8687   C.ar      1 RES1   0.0000
    44 H16     14.4611   6.6235  -1.6478   H         1 RES1   0.0000
    45 C15     14.0600   6.7183   0.3538   C.ar      1 RES1   0.0000
    46 H17     13.6406   5.8690   0.4257   H         1 RES1   0.0000
    47 C16     14.1941   7.5287   1.4642   C.ar      1 RES1   0.0000
    48 H18     13.8961   7.2027   2.3051   H         1 RES1   0.0000
    49 C17     17.1512  12.2897   3.3098   C.ar      1 RES1   0.0000
    50 C18     18.1234  13.1332   3.8366   C.ar      1 RES1   0.0000
    51 H19     18.6197  13.7129   3.2710   H         1 RES1   0.0000
    52 C19     18.3538  13.1102   5.2108   C.ar      1 RES1   0.0000
    53 H20     19.0077  13.6815   5.5972   H         1 RES1   0.0000
    54 C20     17.6201  12.2467   6.0072   C.ar      1 RES1   0.0000
    55 H21     17.7624  12.2170   6.9456   H         1 RES1   0.0000
    56 C21     16.6779  11.4297   5.4153   C.ar      1 RES1   0.0000
    57 H22     16.1847  10.8264   5.9585   H         1 RES1   0.0000
    58 C22     17.6418   9.9431   1.6311   C.3       1 RES1   0.0000
    59 H23     18.0912  10.0839   2.4910   H         1 RES1   0.0000
    60 H24     18.2486  10.1859   0.9017   H         1 RES1   0.0000
    61 H25     17.3890   9.0008   1.5461   H         1 RES1   0.0000
    62 C23     12.6070  11.9055   3.1680   C.3       1 RES1   0.0000
    63 H26     11.8979  12.3841   2.6501   H         1 RES1   0.0000
    64 C24     12.1414  10.5050   3.4666   C.ar      1 RES1   0.0000
    65 C25     10.8001  10.1748   3.5730   C.ar      1 RES1   0.0000
    66 H27     10.1245  10.8017   3.3424   H         1 RES1   0.0000
    67 C26     10.4666   8.9019   4.0263   C.ar      1 RES1   0.0000
    68 H28      9.5557   8.6428   4.0979   H         1 RES1   0.0000
    69 C27     11.4665   8.0205   4.3706   C.ar      1 RES1   0.0000
    70 H29     11.2525   7.1546   4.6990   H         1 RES1   0.0000
    71 C28     12.7863   8.4109   4.2322   C.ar      1 RES1   0.0000
    72 H30     13.4763   7.8057   4.4768   H         1 RES1   0.0000
    73 C29     12.8146  12.6118   4.4988   C.ar      1 RES1   0.0000
    74 C30     12.1072  13.7642   4.7947   C.ar      1 RES1   0.0000
    75 H31     11.4867  14.1292   4.1739   H         1 RES1   0.0000
    76 C31     12.3289  14.3709   6.0217   C.ar      1 RES1   0.0000
    77 H32     11.8532  15.1560   6.2638   H         1 RES1   0.0000
    78 C32     13.2488  13.8172   6.8844   C.ar      1 RES1   0.0000
    79 H33     13.4278  14.2222   7.7244   H         1 RES1   0.0000
    80 C33     13.9081  12.6587   6.5044   C.ar      1 RES1   0.0000
    81 H34     14.5398  12.2795   7.1046   H         1 RES1   0.0000
    82 C34     16.9245   8.1272   4.6422   C.3       1 RES1   0.0000
    83 H35     17.2671   7.4347   4.0394   H         1 RES1   0.0000
    84 H36     16.6786   7.7222   5.5001   H         1 RES1   0.0000
    85 H37     17.6176   8.8045   4.7879   H         1 RES1   0.0000
    86 Cl1     14.5910   4.9020   4.5915   Cl        2 RES2   0.0000
    87 O8      14.3380   3.5512   5.0049   O.2       2 RES2   0.0000
    88 O9      13.5812   5.3157   3.6693   O.2       2 RES2   0.0000
    89 O10     15.8838   4.9827   3.9727   O.2       2 RES2   0.0000
    90 O11     14.5632   5.7851   5.7413   O.3       2 RES2  -1.0000
    91 Cl2     15.7892   9.9410   9.4741   Cl        3 RES3   0.0000
    92 O12     16.9654  10.5869   9.9562   O.2       3 RES3   0.0000
    93 O13     16.0033   9.4513   8.1280   O.3       3 RES3  -1.0000
    94 O14     14.6772  10.8257   9.5042   O.2       3 RES3   0.0000
    95 O15     15.5174   8.8030  10.3130   O.2       3 RES3   0.0000
    96 O16      7.3766  11.2124   3.4120   O.3       4 RES4   0.0000
    97 H38      7.3093  10.4013   3.5201   H         4 RES4   0.0000
    98 H39      7.5544  11.5224   4.1318   H         4 RES4   0.0000
    99 N7      16.2098  13.8368   8.8156   N.1       5 RES5   0.0000
   100 C35     15.9822  13.7064   9.9207   C.1       5 RES5   0.0000
   101 C36     15.7011  13.5340  11.3358   C.3       5 RES5   0.0000
   102 H40     14.7776  13.2246  11.4493   H         5 RES5   0.0000
   103 H41     15.8189  14.3887  11.7989   H         5 RES5   0.0000
   104 H42     16.3159  12.8705  11.7124   H         5 RES5   0.0000
@<TRIPOS>BOND
     1     1    10    1
     2     2    30    2
     3     3    30    1
     4     4    35    2
     5     5    35    1
     6     6     7    1
     7     8     9    1
     8    10    82    1
     9    11     1    1
    10    12     1    1
    11    13     1    1
    12    14     1    1
    13    15    73   ar
    14    16     1    1
    15    17    18    1
    16    18    13    1
    17    19    18    1
    18    20    13    1
    19    21    20    1
    20    22    20    1
    21    23    16    1
    22    24    23    1
    23    25    23    1
    24    26    16    1
    25    27    26    1
    26    28    26    1
    27    29     6    1
    28    30    17    1
    29    31     3    1
    30    32    31    1
    31    33    31    1
    32    34    31    1
    33    35    22    1
    34    36     5    1
    35    37    36    1
    36    38    36    1
    37    39    36    1
    38    40    11   ar
    39    41    40   ar
    40    42    41    1
    41    43    41   ar
    42    44    43    1
    43    45    43   ar
    44    46    45    1
    45    47    11   ar
    46    48    47    1
    47    49    12   ar
    48    50    49   ar
    49    51    50    1
    50    52    50   ar
    51    53    52    1
    52    54    52   ar
    53    55    54    1
    54    56    12   ar
    55    57    56    1
    56    58    13    1
    57    59    58    1
    58    60    58    1
    59    61    58    1
    60    62    16    1
    61    63    62    1
    62    64    14   ar
    63    65    64   ar
    64    66    65    1
    65    67    65   ar
    66    68    67    1
    67    69    67   ar
    68    70    69    1
    69    71    14   ar
    70    72    71    1
    71    73    62    1
    72    74    73   ar
    73    75    74    1
    74    76    74   ar
    75    77    76    1
    76    78    76   ar
    77    79    78    1
    78    80    15   ar
    79    81    80    1
    80    82    83    1
    81    84    82    1
    82    85    82    1
    83     8    29    1
    84    17    26    1
    85    17    29    1
    86    18    40    1
    87    20    49    1
    88    22    23    1
    89    22    29    1
    90    45    47   ar
    91    54    56   ar
    92    62    64    1
    93    69    71   ar
    94    78    80   ar
    95    86    87    2
    96    88    86    2
    97    89    86    2
    98    90    86    1
    99    91    92    2
   100    93    91    1
   101    94    91    2
   102    95    91    2
   103    96    97    1
   104    98    96    1
   105    99   100    3
   106   100   101    1
   107   101   102    1
   108   103   101    1
   109   104   101    1
@<TRIPOS>SUBSTRUCTURE
     1 RES1        1 GROUP             0 ****  ****    0  
     2 RES2       86 GROUP             0 ****  ****    0  
     3 RES3       91 GROUP             0 ****  ****    0  
     4 RES4       96 GROUP             0 ****  ****    0  
     5 RES5       99 GROUP             0 ****  ****    0  
@<TRIPOS>CRYSIN
   13.3530   13.4880   13.6810   61.2830   69.0650   68.6740     2     1
