@<TRIPOS>MOLECULE
LABDOL
   106   115     2     0     0
SMALL
NO_CHARGES
****
Generated from the CSD

@<TRIPOS>ATOM
     1 Fe1     11.6713   9.7557   7.1093   Fe        1 RES1   0.0000
     2 S1       8.8933  11.2301   6.2347   S.o2      1 RES1   0.0000
     3 S2      13.1985   7.7554   9.1397   S.o2      1 RES1   0.0000
     4 F1       9.2696  13.4142   4.8755   F         1 RES1   0.0000
     5 F2       7.3361  13.2751   5.8135   F         1 RES1   0.0000
     6 F3       9.1121  13.7090   7.0127   F         1 RES1   0.0000
     7 F4      14.9895   6.2436   7.9991   F         1 RES1   0.0000
     8 F5      15.1123   6.3125  10.1454   F         1 RES1   0.0000
     9 F6      15.7977   7.9844   8.9533   F         1 RES1   0.0000
    10 O1       8.7582   6.5107   7.0632   O.3       1 RES1   0.0000
    11 O2      13.6620  13.0088   9.2548   O.3       1 RES1   0.0000
    12 O3      10.6470   9.8635   9.0975   O.3       1 RES1   0.0000
    13 O4       8.0994  10.8752   7.3738   O.2       1 RES1   0.0000
    14 O5      10.3111  11.1644   6.4298   O.3       1 RES1   0.0000
    15 O6       8.4788  10.6464   4.9824   O.2       1 RES1   0.0000
    16 O7      13.1325   8.4778   7.8630   O.3       1 RES1   0.0000
    17 O8      13.2398   8.6252  10.2795   O.2       1 RES1   0.0000
    18 O9      12.3138   6.6332   9.2195   O.2       1 RES1   0.0000
    19 N1      10.3116   8.1020   6.7223   N.2       1 RES1   0.0000
    20 N2      12.8685  11.4083   7.8781   N.2       1 RES1   0.0000
    21 N3      12.5966   9.7705   5.2043   N.1       1 RES1   0.0000
    22 C1      11.6046   6.8739   3.4524   C.ar      1 RES1   0.0000
    23 H1      11.0514   7.4138   2.9017   H         1 RES1   0.0000
    24 C2      12.6554   6.1627   2.8805   C.ar      1 RES1   0.0000
    25 H2      12.8174   6.2225   1.9462   H         1 RES1   0.0000
    26 C3      13.4498   5.3816   3.6662   C.ar      1 RES1   0.0000
    27 H3      14.1600   4.8880   3.2741   H         1 RES1   0.0000
    28 C4      13.2251   5.3017   5.0460   C.ar      1 RES1   0.0000
    29 H4      13.7859   4.7604   5.5887   H         1 RES1   0.0000
    30 C5      12.1856   6.0129   5.6158   C.ar      1 RES1   0.0000
    31 H5      12.0356   5.9622   6.5526   H         1 RES1   0.0000
    32 C6      11.3549   6.8040   4.8221   C.ar      1 RES1   0.0000
    33 C7      10.1270   7.4712   5.3899   C.3       1 RES1   0.0000
    34 H6       9.7904   8.1543   4.7415   H         1 RES1   0.0000
    35 C8       9.0263   6.4044   5.6310   C.3       1 RES1   0.0000
    36 H7       9.3970   5.4971   5.4316   H         1 RES1   0.0000
    37 C9       7.7167   6.5702   4.9229   C.ar      1 RES1   0.0000
    38 C10      7.0926   5.4576   4.3571   C.ar      1 RES1   0.0000
    39 H8       7.5491   4.6236   4.3521   H         1 RES1   0.0000
    40 C11      5.8511   5.5355   3.8115   C.ar      1 RES1   0.0000
    41 H9       5.4425   4.7620   3.4420   H         1 RES1   0.0000
    42 C12      5.1997   6.7261   3.7983   C.ar      1 RES1   0.0000
    43 H10      4.3269   6.7736   3.4254   H         1 RES1   0.0000
    44 C13      5.7807   7.8707   4.3178   C.ar      1 RES1   0.0000
    45 H11      5.3155   8.6986   4.2916   H         1 RES1   0.0000
    46 C14      7.0608   7.7928   4.8836   C.ar      1 RES1   0.0000
    47 H12      7.4760   8.5702   5.2361   H         1 RES1   0.0000
    48 C15      9.4870   7.5431   7.5261   C.2       1 RES1   0.0000
    49 C16      9.6854   8.9934   9.5967   C.ar      1 RES1   0.0000
    50 C17      9.1752   7.8887   8.9250   C.ar      1 RES1   0.0000
    51 C18      8.2092   7.1555   9.6250   C.ar      1 RES1   0.0000
    52 H13      7.8141   6.3963   9.2133   H         1 RES1   0.0000
    53 C19      7.8098   7.5171  10.9230   C.ar      1 RES1   0.0000
    54 H14      7.1745   6.9807  11.3816   H         1 RES1   0.0000
    55 C20      8.3204   8.6338  11.5443   C.ar      1 RES1   0.0000
    56 H15      8.0286   8.8850  12.4128   H         1 RES1   0.0000
    57 C21      9.2782   9.3889  10.8676   C.ar      1 RES1   0.0000
    58 C22     10.0136  10.5875  11.1772   C.ar      1 RES1   0.0000
    59 C23     10.0703  11.4485  12.2675   C.ar      1 RES1   0.0000
    60 H16      9.5232  11.2920  13.0282   H         1 RES1   0.0000
    61 C24     10.9169  12.5172  12.2423   C.ar      1 RES1   0.0000
    62 H17     10.9379  13.1188  12.9768   H         1 RES1   0.0000
    63 C25     11.7544  12.7350  11.1369   C.ar      1 RES1   0.0000
    64 H18     12.3494  13.4757  11.1479   H         1 RES1   0.0000
    65 C26     11.7385  11.8900  10.0193   C.ar      1 RES1   0.0000
    66 C27     10.8397  10.8332  10.0778   C.ar      1 RES1   0.0000
    67 C28     12.7348  12.0697   8.9734   C.2       1 RES1   0.0000
    68 C29     15.6899  11.0649   9.9427   C.ar      1 RES1   0.0000
    69 H19     14.8300  10.6610   9.9792   H         1 RES1   0.0000
    70 C30     16.7158  10.5695  10.7264   C.ar      1 RES1   0.0000
    71 H20     16.5547   9.8333  11.3045   H         1 RES1   0.0000
    72 C31     17.9822  11.1408  10.6729   C.ar      1 RES1   0.0000
    73 H21     18.6817  10.8198  11.2302   H         1 RES1   0.0000
    74 C32     18.2024  12.1696   9.8065   C.ar      1 RES1   0.0000
    75 H22     19.0758  12.5383   9.7338   H         1 RES1   0.0000
    76 C33     17.1810  12.6870   9.0309   C.ar      1 RES1   0.0000
    77 H23     17.3552  13.4137   8.4450   H         1 RES1   0.0000
    78 C34     15.9100  12.1516   9.1015   C.ar      1 RES1   0.0000
    79 C35     14.7752  12.7789   8.3299   C.3       1 RES1   0.0000
    80 H24     15.0730  13.6477   7.9337   H         1 RES1   0.0000
    81 C36     14.1157  11.8959   7.2346   C.3       1 RES1   0.0000
    82 H25     14.7109  11.1209   7.0241   H         1 RES1   0.0000
    83 C37     13.8628  12.7070   5.9719   C.ar      1 RES1   0.0000
    84 C38     14.8161  12.7130   4.9683   C.ar      1 RES1   0.0000
    85 H26     15.5789  12.1536   5.0489   H         1 RES1   0.0000
    86 C39     14.6799  13.5220   3.8458   C.ar      1 RES1   0.0000
    87 H27     15.3341  13.5023   3.1566   H         1 RES1   0.0000
    88 C40     13.5859  14.3570   3.7459   C.ar      1 RES1   0.0000
    89 H28     13.4946  14.9224   2.9889   H         1 RES1   0.0000
    90 C41     12.6145  14.3790   4.7394   C.ar      1 RES1   0.0000
    91 H29     11.8614  14.9521   4.6607   H         1 RES1   0.0000
    92 C42     12.7553  13.5540   5.8498   C.ar      1 RES1   0.0000
    93 H30     12.0929  13.5651   6.5321   H         1 RES1   0.0000
    94 C43     13.0685   9.8883   4.1867   C.1       1 RES1   0.0000
    95 C44     13.6835  10.0321   2.8805   C.3       1 RES1   0.0000
    96 H31     13.1610   9.5359   2.2164   H         1 RES1   0.0000
    97 H32     14.5968   9.6769   2.9090   H         1 RES1   0.0000
    98 H33     13.7094  10.9801   2.6343   H         1 RES1   0.0000
    99 C45      8.6495  13.0106   5.9628   C.3       1 RES1   0.0000
   100 C46     14.8751   7.0297   9.0430   C.3       1 RES1   0.0000
   101 N4       6.0122  14.0814   2.7292   N.1       2 RES2   0.0000
   102 C47      6.0213  12.9946   2.7403   C.1       2 RES2   0.0000
   103 C48      5.9668  11.4665   2.7888   C.3       2 RES2   0.0000
   104 H34      5.0415  11.1687   2.6692   H         2 RES2   0.0000
   105 H35      6.3018  11.1543   3.6553   H         2 RES2   0.0000
   106 H36      6.5243  11.0968   2.0716   H         2 RES2   0.0000
@<TRIPOS>BOND
     1     1    12    1
     2     2    13    2
     3     3    16    1
     4     4    99    1
     5     5    99    1
     6     6    99    1
     7     7   100    1
     8     8   100    1
     9     9   100    1
    10    10    35    1
    11    11    67    1
    12    12    49    1
    13    14     1    1
    14    15     2    2
    15    16     1    1
    16    17     3    2
    17    18     3    2
    18    19     1    1
    19    20     1    1
    20    21     1    1
    21    22    23    1
    22    24    22   ar
    23    25    24    1
    24    26    24   ar
    25    27    26    1
    26    28    26   ar
    27    29    28    1
    28    30    28   ar
    29    31    30    1
    30    32    22   ar
    31    33    19    1
    32    34    33    1
    33    35    33    1
    34    36    35    1
    35    37    35    1
    36    38    37   ar
    37    39    38    1
    38    40    38   ar
    39    41    40    1
    40    42    40   ar
    41    43    42    1
    42    44    42   ar
    43    45    44    1
    44    46    37   ar
    45    47    46    1
    46    48    10    1
    47    49    50   ar
    48    50    48    1
    49    51    50   ar
    50    52    51    1
    51    53    51   ar
    52    54    53    1
    53    55    53   ar
    54    56    55    1
    55    57    49   ar
    56    58    57    1
    57    59    58   ar
    58    60    59    1
    59    61    59   ar
    60    62    61    1
    61    63    61   ar
    62    64    63    1
    63    65    63   ar
    64    66    12    1
    65    67    20    2
    66    68    69    1
    67    70    68   ar
    68    71    70    1
    69    72    70   ar
    70    73    72    1
    71    74    72   ar
    72    75    74    1
    73    76    74   ar
    74    77    76    1
    75    78    68   ar
    76    79    11    1
    77    80    79    1
    78    81    20    1
    79    82    81    1
    80    83    81    1
    81    84    83   ar
    82    85    84    1
    83    86    84   ar
    84    87    86    1
    85    88    86   ar
    86    89    88    1
    87    90    88   ar
    88    91    90    1
    89    92    83   ar
    90    93    92    1
    91    94    21    3
    92    95    94    1
    93    96    95    1
    94    97    95    1
    95    98    95    1
    96    99     2    1
    97   100     3    1
    98     2    14    1
    99    19    48    2
   100    30    32   ar
   101    32    33    1
   102    44    46   ar
   103    55    57   ar
   104    58    66   ar
   105    65    66   ar
   106    65    67    1
   107    76    78   ar
   108    78    79    1
   109    79    81    1
   110    90    92   ar
   111   101   102    3
   112   102   103    1
   113   103   104    1
   114   105   103    1
   115   106   103    1
@<TRIPOS>SUBSTRUCTURE
     1 RES1        1 GROUP             0 ****  ****    0  
     2 RES2      101 GROUP             0 ****  ****    0  
@<TRIPOS>CRYSIN
   22.6962   19.9764   10.0859   90.0000   90.0000   90.0000    19     1
