@<TRIPOS>MOLECULE
LABNEJ
   216   228     4     0     0
SMALL
USER_CHARGES
****
Generated from the CSD

@<TRIPOS>ATOM
     1 Fe1      3.5483  10.3357  12.2180   Fe        1 RES1   2.0000
     2 P1       3.7556   8.5677  10.7719   P.3       1 RES1   0.0000
     3 P2       1.5725  11.4306  11.9458   P.3       1 RES1   0.0000
     4 N1       5.3416   9.7346  12.7725   N.2       1 RES1   0.0000
     5 N2       3.8294  11.6710  13.6408   N.2       1 RES1   0.0000
     6 N3       4.2995  11.6106  10.9828   N.1       1 RES1   0.0000
     7 N4       2.8466   9.1908  13.5778   N.1       1 RES1   0.0000
     8 C1       5.0144   7.6196  11.7358   C.3       1 RES1   0.0000
     9 H1       4.5636   6.9563  12.3157   H         1 RES1   0.0000
    10 H2       5.6147   7.1338  11.1179   H         1 RES1   0.0000
    11 C2       5.8001   8.5583  12.5631   C.2       1 RES1   0.0000
    12 H3       6.6335   8.2928  12.9342   H         1 RES1   0.0000
    13 C3       6.0294  10.7312  13.6275   C.3       1 RES1   0.0000
    14 H4       6.3476  11.4650  13.0278   H         1 RES1   0.0000
    15 C4       7.2376  10.2475  14.4247   C.3       1 RES1   0.0000
    16 H5       7.9448   9.9426  13.8031   H         1 RES1   0.0000
    17 H6       6.9748   9.4832  14.9949   H         1 RES1   0.0000
    18 C5       7.7786  11.3836  15.3023   C.3       1 RES1   0.0000
    19 H7       8.5141  11.0390  15.8668   H         1 RES1   0.0000
    20 H8       8.1457  12.0978  14.7234   H         1 RES1   0.0000
    21 C6       6.7005  11.9600  16.1827   C.3       1 RES1   0.0000
    22 H9       7.0766  12.7097  16.7086   H         1 RES1   0.0000
    23 H10      6.3952  11.2666  16.8202   H         1 RES1   0.0000
    24 C7       5.5052  12.4618  15.3784   C.3       1 RES1   0.0000
    25 H11      4.8032  12.7932  15.9935   H         1 RES1   0.0000
    26 H12      5.7847  13.2109  14.7958   H         1 RES1   0.0000
    27 C8       4.9590  11.3268  14.5330   C.3       1 RES1   0.0000
    28 H13      4.6486  10.6067  15.1548   H         1 RES1   0.0000
    29 C9       3.1390  12.7329  13.7512   C.2       1 RES1   0.0000
    30 H14      3.3039  13.3383  14.4639   H         1 RES1   0.0000
    31 C10      2.0776  13.0167  12.7610   C.3       1 RES1   0.0000
    32 H15      2.4138  13.6536  12.0804   H         1 RES1   0.0000
    33 H16      1.2984  13.4281  13.2118   H         1 RES1   0.0000
    34 C11      4.6332   8.7504   9.1445   C.3       1 RES1   0.0000
    35 H17      4.7723   7.8188   8.8099   H         1 RES1   0.0000
    36 C12      6.0281   9.3642   9.2286   C.3       1 RES1   0.0000
    37 H18      6.5755   8.8567   9.8779   H         1 RES1   0.0000
    38 H19      5.9599  10.2997   9.5460   H         1 RES1   0.0000
    39 C13      6.7056   9.3349   7.8480   C.3       1 RES1   0.0000
    40 H20      7.5815   9.7944   7.9047   H         1 RES1   0.0000
    41 H21      6.8705   8.3952   7.5819   H         1 RES1   0.0000
    42 C14      5.8517  10.0095   6.7963   C.3       1 RES1   0.0000
    43 H22      5.7821  10.9743   7.0026   H         1 RES1   0.0000
    44 H23      6.2896   9.9176   5.9135   H         1 RES1   0.0000
    45 C15      4.4747   9.4164   6.7284   C.3       1 RES1   0.0000
    46 H24      4.5365   8.4808   6.4143   H         1 RES1   0.0000
    47 H25      3.9324   9.9238   6.0734   H         1 RES1   0.0000
    48 C16      3.7869   9.4477   8.0764   C.3       1 RES1   0.0000
    49 H26      2.9084   8.9966   8.0073   H         1 RES1   0.0000
    50 H27      3.6285  10.3875   8.3422   H         1 RES1   0.0000
    51 C17      4.7259  12.4257  10.3069   C.1       1 RES1   0.0000
    52 C18      5.2720  13.4281   9.3898   C.3       1 RES1   0.0000
    53 H28      6.2394  13.3007   9.3017   H         1 RES1   0.0000
    54 H29      5.0917  14.3261   9.7422   H         1 RES1   0.0000
    55 H30      4.8483  13.3320   8.5112   H         1 RES1   0.0000
    56 C19      2.4306   8.5681  14.4455   C.1       1 RES1   0.0000
    57 C20      1.8071   7.7645  15.4683   C.3       1 RES1   0.0000
    58 H31      0.9338   8.1467  15.6949   H         1 RES1   0.0000
    59 H32      2.3765   7.7520  16.2651   H         1 RES1   0.0000
    60 H33      1.6886   6.8498  15.1367   H         1 RES1   0.0000
    61 C21      2.4280   7.3232  10.4050   C.3       1 RES1   0.0000
    62 H34      1.7080   7.8209   9.9202   H         1 RES1   0.0000
    63 C22      1.7788   6.7767  11.6830   C.3       1 RES1   0.0000
    64 H35      1.4774   7.5327  12.2463   H         1 RES1   0.0000
    65 H36      2.4512   6.2630  12.1981   H         1 RES1   0.0000
    66 C23      0.5771   5.8683  11.3614   C.3       1 RES1   0.0000
    67 H37      0.1881   5.5237  12.2041   H         1 RES1   0.0000
    68 H38     -0.1185   6.3945  10.8917   H         1 RES1   0.0000
    69 C24      1.0073   4.7030  10.4880   C.3       1 RES1   0.0000
    70 H39      0.2177   4.1558  10.2520   H         1 RES1   0.0000
    71 H40      1.6423   4.1287  10.9852   H         1 RES1   0.0000
    72 C25      1.6719   5.2188   9.2163   C.3       1 RES1   0.0000
    73 H41      2.0042   4.4482   8.6922   H         1 RES1   0.0000
    74 H42      0.9957   5.6908   8.6681   H         1 RES1   0.0000
    75 C26      2.8286   6.1627   9.4951   C.3       1 RES1   0.0000
    76 H43      3.1648   6.5240   8.6379   H         1 RES1   0.0000
    77 H44      3.5641   5.6553   9.9202   H         1 RES1   0.0000
    78 C27      1.0833  11.9946  10.2605   C.3       1 RES1   0.0000
    79 H45      1.9372  12.2670   9.8176   H         1 RES1   0.0000
    80 C28      0.5165  10.8803   9.3846   C.3       1 RES1   0.0000
    81 H46     -0.3826  10.6255   9.7150   H         1 RES1   0.0000
    82 H47      1.1013  10.0846   9.4404   H         1 RES1   0.0000
    83 C29      0.4148  11.3377   7.9289   C.3       1 RES1   0.0000
    84 H48      0.0116  10.6151   7.3828   H         1 RES1   0.0000
    85 H49      1.3215  11.5193   7.5759   H         1 RES1   0.0000
    86 C30     -0.4405  12.6011   7.8188   C.3       1 RES1   0.0000
    87 H50     -0.4251  12.9248   6.8820   H         1 RES1   0.0000
    88 H51     -1.3782  12.3818   8.0496   H         1 RES1   0.0000
    89 C31      0.0567  13.7038   8.7384   C.3       1 RES1   0.0000
    90 H52     -0.5693  14.4681   8.6982   H         1 RES1   0.0000
    91 H53      0.9416  14.0170   8.4237   H         1 RES1   0.0000
    92 C32      0.1778  13.2276  10.1778   C.3       1 RES1   0.0000
    93 H54     -0.7200  13.0062  10.5296   H         1 RES1   0.0000
    94 H55      0.5564  13.9544  10.7348   H         1 RES1   0.0000
    95 C33     -0.0116  11.0202  12.7948   C.3       1 RES1   0.0000
    96 H56     -0.6956  11.6488  12.4243   H         1 RES1   0.0000
    97 C34      0.0090  11.2625  14.3206   C.3       1 RES1   0.0000
    98 H57      0.6698  10.6610  14.7445   H         1 RES1   0.0000
    99 H58      0.2795  12.1981  14.5061   H         1 RES1   0.0000
   100 C35     -1.3898  11.0014  14.9158   C.3       1 RES1   0.0000
   101 H59     -1.3563  11.1288  15.8970   H         1 RES1   0.0000
   102 H60     -2.0313  11.6572  14.5453   H         1 RES1   0.0000
   103 C36     -1.8754   9.6064  14.6117   C.3       1 RES1   0.0000
   104 H61     -2.7796   9.4790  14.9919   H         1 RES1   0.0000
   105 H62     -1.2687   8.9444  15.0281   H         1 RES1   0.0000
   106 C37     -1.9179   9.3850  13.1080   C.3       1 RES1   0.0000
   107 H63     -2.5684  10.0095  12.6989   H         1 RES1   0.0000
   108 H64     -2.2142   8.4620  12.9161   H         1 RES1   0.0000
   109 C38     -0.5165   9.6189  12.4916   C.3       1 RES1   0.0000
   110 H65      0.1198   8.9548  12.8588   H         1 RES1   0.0000
   111 H66     -0.5616   9.4916  11.5102   H         1 RES1   0.0000
   112 B1       8.6777   4.9369  11.0446   B         2 RES2  -1.0000
   113 C39      8.1315   5.4046  12.5411   C.ar      2 RES2   0.0000
   114 C40      6.8319   5.1353  13.0148   C.ar      2 RES2   0.0000
   115 H67      6.2175   4.6758  12.4545   H         2 RES2   0.0000
   116 C41      6.4313   5.5300  14.2889   C.ar      2 RES2   0.0000
   117 H68      5.5412   5.3504  14.5665   H         2 RES2   0.0000
   118 C42      7.2788   6.1711  15.1488   C.ar      2 RES2   0.0000
   119 H69      6.9916   6.3966  16.0267   H         2 RES2   0.0000
   120 C43      8.5733   6.4864  14.7285   C.ar      2 RES2   0.0000
   121 H70      9.1787   6.9438  15.2996   H         2 RES2   0.0000
   122 C44      8.9443   6.1063  13.4366   C.ar      2 RES2   0.0000
   123 H71      9.8163   6.3444  13.1424   H         2 RES2   0.0000
   124 C45      7.4295   4.4816  10.0979   C.ar      2 RES2   0.0000
   125 C46      6.9568   5.2083   9.0187   C.ar      2 RES2   0.0000
   126 H72      7.3754   6.0395   8.8250   H         2 RES2   0.0000
   127 C47      5.9135   4.8011   8.2037   C.ar      2 RES2   0.0000
   128 H73      5.6430   5.3420   7.4703   H         2 RES2   0.0000
   129 C48      5.2669   3.6087   8.4569   C.ar      2 RES2   0.0000
   130 H74      4.5391   3.3205   7.9198   H         2 RES2   0.0000
   131 C49      5.7203   2.8339   9.5400   C.ar      2 RES2   0.0000
   132 H75      5.2952   2.0069   9.7361   H         2 RES2   0.0000
   133 C50      6.7649   3.2578  10.3063   C.ar      2 RES2   0.0000
   134 H76      7.0586   2.6981  11.0184   H         2 RES2   0.0000
   135 C51      9.4634   6.2024  10.3148   C.ar      2 RES2   0.0000
   136 C52      9.1104   7.5431  10.5378   C.ar      2 RES2   0.0000
   137 H77      8.4522   7.7311  11.1964   H         2 RES2   0.0000
   138 C53      9.6643   8.5977   9.8541   C.ar      2 RES2   0.0000
   139 H78      9.3822   9.4853  10.0378   H         2 RES2   0.0000
   140 C54     10.6175   8.3680   8.9134   C.ar      2 RES2   0.0000
   141 H79     11.0078   9.0906   8.4358   H         2 RES2   0.0000
   142 C55     11.0090   7.0732   8.6608   C.ar      2 RES2   0.0000
   143 H80     11.6801   6.9062   8.0103   H         2 RES2   0.0000
   144 C56     10.4436   6.0228   9.3376   C.ar      2 RES2   0.0000
   145 H81     10.7295   5.1394   9.1327   H         2 RES2   0.0000
   146 C57      9.7416   3.6774  11.2145   C.ar      2 RES2   0.0000
   147 C58      9.8987   2.7149  10.2195   C.ar      2 RES2   0.0000
   148 H82      9.3475   2.7587   9.4465   H         2 RES2   0.0000
   149 C59     10.8480   1.6790  10.3199   C.ar      2 RES2   0.0000
   150 H83     10.9266   1.0546   9.6094   H         2 RES2   0.0000
   151 C60     11.6544   1.5516  11.4049   C.ar      2 RES2   0.0000
   152 H84     12.2894   0.8458  11.4619   H         2 RES2   0.0000
   153 C61     11.5243   2.4684  12.4174   C.ar      2 RES2   0.0000
   154 H85     12.0627   2.3932  13.1967   H         2 RES2   0.0000
   155 C62     10.6059   3.5105  12.3067   C.ar      2 RES2   0.0000
   156 H86     10.5621   4.1454  13.0127   H         2 RES2   0.0000
   157 B2       6.6361  16.6086  12.3661   B         3 RES3  -1.0000
   158 C63      5.2901  16.5479  11.4269   C.ar      3 RES3   0.0000
   159 C64      4.0703  15.9613  11.7811   C.ar      3 RES3   0.0000
   160 H87      3.9853  15.5833  12.6476   H         3 RES3   0.0000
   161 C65      2.9819  15.9070  10.9279   C.ar      3 RES3   0.0000
   162 H88      2.1678  15.5227  11.2296   H         3 RES3   0.0000
   163 C66      3.0694  16.4123   9.6302   C.ar      3 RES3   0.0000
   164 H89      2.3249  16.3727   9.0422   H         3 RES3   0.0000
   165 C67      4.2789  16.9783   9.2169   C.ar      3 RES3   0.0000
   166 H90      4.3781  17.3082   8.3332   H         3 RES3   0.0000
   167 C68      5.3261  17.0514  10.1117   C.ar      3 RES3   0.0000
   168 H91      6.1273  17.4690   9.8206   H         3 RES3   0.0000
   169 C69      6.3669  16.3054  13.9706   C.ar      3 RES3   0.0000
   170 C70      5.2141  16.7319  14.6368   C.ar      3 RES3   0.0000
   171 H92      4.5507  17.2059  14.1471   H         3 RES3   0.0000
   172 C71      5.0028  16.4875  16.0077   C.ar      3 RES3   0.0000
   173 H93      4.2029  16.7757  16.4310   H         3 RES3   0.0000
   174 C72      5.9702  15.8213  16.7276   C.ar      3 RES3   0.0000
   175 H94      5.8233  15.6229  17.6439   H         3 RES3   0.0000
   176 C73      7.1397  15.4496  16.1308   C.ar      3 RES3   0.0000
   177 H95      7.8224  15.0236  16.6362   H         3 RES3   0.0000
   178 C74      7.3213  15.6940  14.7807   C.ar      3 RES3   0.0000
   179 H96      8.1431  15.4308  14.3854   H         3 RES3   0.0000
   180 C75      7.2801  18.1265  12.3133   C.ar      3 RES3   0.0000
   181 C76      6.4931  19.2567  12.0946   C.ar      3 RES3   0.0000
   182 H97      5.5593  19.1376  11.9627   H         3 RES3   0.0000
   183 C77      7.0109  20.5577  12.0614   C.ar      3 RES3   0.0000
   184 H98      6.4326  21.2970  11.9114   H         3 RES3   0.0000
   185 C78      8.3582  20.7603  12.2469   C.ar      3 RES3   0.0000
   186 H99      8.7253  21.6353  12.2041   H         3 RES3   0.0000
   187 C79      9.1633  19.6785  12.4940   C.ar      3 RES3   0.0000
   188 H100    10.0945  19.8059  12.6325   H         3 RES3   0.0000
   189 C80      8.6223  18.3796  12.5462   C.ar      3 RES3   0.0000
   190 H101     9.1980  17.6507  12.7472   H         3 RES3   0.0000
   191 C81      7.6279  15.4851  11.7069   C.ar      3 RES3   0.0000
   192 C82      8.5347  15.7482  10.6624   C.ar      3 RES3   0.0000
   193 H102     8.6467  16.6483  10.3788   H         3 RES3   0.0000
   194 C83      9.2637  14.7730  10.0366   C.ar      3 RES3   0.0000
   195 H103     9.8562  15.0173   9.3348   H         3 RES3   0.0000
   196 C84      9.1607  13.4511  10.3984   C.ar      3 RES3   0.0000
   197 H104     9.6772  12.7828   9.9624   H         3 RES3   0.0000
   198 C85      8.3028  13.1315  11.3919   C.ar      3 RES3   0.0000
   199 H105     8.2191  12.2252  11.6640   H         3 RES3   0.0000
   200 C86      7.5236  14.1298  12.0336   C.ar      3 RES3   0.0000
   201 H106     6.9092  13.8666  12.7079   H         3 RES3   0.0000
   202 O1       0.8218  19.4300   9.7934   O.3       4 RES4   0.0000
   203 C87      2.0326  19.8435  10.5537   C.3       4 RES4   0.0000
   204 H107     1.7724  20.3844  11.3412   H         4 RES4   0.0000
   205 H108     2.5246  19.0437  10.8736   H         4 RES4   0.0000
   206 C88      2.8479  20.6037   9.6939   C.3       4 RES4   0.0000
   207 H109     3.6478  20.9002  10.1796   H         4 RES4   0.0000
   208 H110     2.3494  21.3847   9.3771   H         4 RES4   0.0000
   209 H111     3.1158  20.0544   8.9275   H         4 RES4   0.0000
   210 C89     -0.1507  18.5090  10.2068   C.3       4 RES4   0.0000
   211 H112     0.3233  17.6925  10.5055   H         4 RES4   0.0000
   212 H113    -0.6002  18.8891  11.0033   H         4 RES4   0.0000
   213 C90     -1.1374  18.1143   9.3228   C.3       4 RES4   0.0000
   214 H114    -1.7363  17.4774   9.7663   H         4 RES4   0.0000
   215 H115    -0.7265  17.6862   8.5444   H         4 RES4   0.0000
   216 H116    -1.6500  18.8975   9.0331   H         4 RES4   0.0000
@<TRIPOS>BOND
     1     1     2    1
     2     2     8    1
     3     3     1    1
     4     4     1    1
     5     5     1    1
     6     6     1    1
     7     7     1    1
     8     8     9    1
     9    10     8    1
    10    11     4    2
    11    12    11    1
    12    13     4    1
    13    14    13    1
    14    15    13    1
    15    16    15    1
    16    17    15    1
    17    18    15    1
    18    19    18    1
    19    20    18    1
    20    21    18    1
    21    22    21    1
    22    23    21    1
    23    24    21    1
    24    25    24    1
    25    26    24    1
    26    27     5    1
    27    28    27    1
    28    29     5    2
    29    30    29    1
    30    31     3    1
    31    32    31    1
    32    33    31    1
    33    34     2    1
    34    35    34    1
    35    36    34    1
    36    37    36    1
    37    38    36    1
    38    39    36    1
    39    40    39    1
    40    41    39    1
    41    42    39    1
    42    43    42    1
    43    44    42    1
    44    45    42    1
    45    46    45    1
    46    47    45    1
    47    48    34    1
    48    49    48    1
    49    50    48    1
    50    51     6    3
    51    52    51    1
    52    53    52    1
    53    54    52    1
    54    55    52    1
    55    56     7    3
    56    57    56    1
    57    58    57    1
    58    59    57    1
    59    60    57    1
    60    61     2    1
    61    62    61    1
    62    63    61    1
    63    64    63    1
    64    65    63    1
    65    66    63    1
    66    67    66    1
    67    68    66    1
    68    69    66    1
    69    70    69    1
    70    71    69    1
    71    72    69    1
    72    73    72    1
    73    74    72    1
    74    75    61    1
    75    76    75    1
    76    77    75    1
    77    78     3    1
    78    79    78    1
    79    80    78    1
    80    81    80    1
    81    82    80    1
    82    83    80    1
    83    84    83    1
    84    85    83    1
    85    86    83    1
    86    87    86    1
    87    88    86    1
    88    89    86    1
    89    90    89    1
    90    91    89    1
    91    92    78    1
    92    93    92    1
    93    94    92    1
    94    95     3    1
    95    96    95    1
    96    97    95    1
    97    98    97    1
    98    99    97    1
    99   100    97    1
   100   101   100    1
   101   102   100    1
   102   103   100    1
   103   104   103    1
   104   105   103    1
   105   106   103    1
   106   107   106    1
   107   108   106    1
   108   109    95    1
   109   110   109    1
   110   111   109    1
   111     8    11    1
   112    13    27    1
   113    24    27    1
   114    29    31    1
   115    45    48    1
   116    72    75    1
   117    89    92    1
   118   106   109    1
   119   112   113    1
   120   113   114   ar
   121   114   115    1
   122   116   114   ar
   123   117   116    1
   124   118   116   ar
   125   119   118    1
   126   120   118   ar
   127   121   120    1
   128   122   113   ar
   129   123   122    1
   130   124   112    1
   131   125   124   ar
   132   126   125    1
   133   127   125   ar
   134   128   127    1
   135   129   127   ar
   136   130   129    1
   137   131   129   ar
   138   132   131    1
   139   133   124   ar
   140   134   133    1
   141   135   112    1
   142   136   135   ar
   143   137   136    1
   144   138   136   ar
   145   139   138    1
   146   140   138   ar
   147   141   140    1
   148   142   140   ar
   149   143   142    1
   150   144   135   ar
   151   145   144    1
   152   146   112    1
   153   147   146   ar
   154   148   147    1
   155   149   147   ar
   156   150   149    1
   157   151   149   ar
   158   152   151    1
   159   153   151   ar
   160   154   153    1
   161   155   146   ar
   162   156   155    1
   163   120   122   ar
   164   131   133   ar
   165   142   144   ar
   166   153   155   ar
   167   157   158    1
   168   158   159   ar
   169   159   160    1
   170   161   159   ar
   171   162   161    1
   172   163   161   ar
   173   164   163    1
   174   165   163   ar
   175   166   165    1
   176   167   158   ar
   177   168   167    1
   178   169   157    1
   179   170   169   ar
   180   171   170    1
   181   172   170   ar
   182   173   172    1
   183   174   172   ar
   184   175   174    1
   185   176   174   ar
   186   177   176    1
   187   178   169   ar
   188   179   178    1
   189   180   157    1
   190   181   180   ar
   191   182   181    1
   192   183   181   ar
   193   184   183    1
   194   185   183   ar
   195   186   185    1
   196   187   185   ar
   197   188   187    1
   198   189   180   ar
   199   190   189    1
   200   191   157    1
   201   192   191   ar
   202   193   192    1
   203   194   192   ar
   204   195   194    1
   205   196   194   ar
   206   197   196    1
   207   198   196   ar
   208   199   198    1
   209   200   191   ar
   210   201   200    1
   211   165   167   ar
   212   176   178   ar
   213   187   189   ar
   214   198   200   ar
   215   202   203    1
   216   203   204    1
   217   205   203    1
   218   206   203    1
   219   207   206    1
   220   208   206    1
   221   209   206    1
   222   210   202    1
   223   211   210    1
   224   212   210    1
   225   213   210    1
   226   214   213    1
   227   215   213    1
   228   216   213    1
@<TRIPOS>SUBSTRUCTURE
     1 RES1        1 GROUP             0 ****  ****    0  
     2 RES2      112 GROUP             0 ****  ****    0  
     3 RES3      157 GROUP             0 ****  ****    0  
     4 RES4      202 GROUP             0 ****  ****    0  
@<TRIPOS>CRYSIN
   12.8806   20.8835   30.1708   90.0000   90.0000   90.0000    19     1
