@<TRIPOS>MOLECULE
LAJFIL
   152   160     4     0     0
SMALL
USER_CHARGES
****
Generated from the CSD

@<TRIPOS>ATOM
     1 Fe1      0.0000   4.7171   4.8880   Fe        1 RES1  -3.0000
     2 N1       3.0353   4.7323   5.5274   N.1       1 RES1   0.0000
     3 N2       0.3872   2.4680   2.8331   N.1       1 RES1   0.0000
     4 N3       0.3991   6.9653   2.7451   N.1       1 RES1   0.0000
     5 C1       1.9096   4.7447   5.2966   C.1       1 RES1   0.0000
     6 C2       0.2557   3.3496   3.5839   C.1       1 RES1   0.0000
     7 C3       0.2438   6.1482   3.5663   C.1       1 RES1   0.0000
     8 C1C     -1.9096   4.7447   4.4794   C.1       1 RES1   0.0000
     9 C2C     -0.2557   3.3496   6.1921   C.1       1 RES1   0.0000
    10 C3C     -0.2438   6.1482   6.2097   C.1       1 RES1   0.0000
    11 N1C     -3.0353   4.7323   4.2486   N.1       1 RES1   0.0000
    12 N2C     -0.3872   2.4680   6.9429   N.1       1 RES1   0.0000
    13 N3C     -0.3991   6.9653   7.0309   N.1       1 RES1   0.0000
    14 P1       5.1892   1.3093   0.2561   P.3       2 RES2   0.0000
    15 P2       5.2962  -0.8373   2.3128   P.3       2 RES2   0.0000
    16 N4       5.2962   0.5967   1.6697   N.1       2 RES2   1.0000
    17 C4       4.1706   2.7820   0.4165   C.ar      2 RES2   0.0000
    18 C5       3.9387   3.3309   1.6678   C.ar      2 RES2   0.0000
    19 C6       3.1883   4.4869   1.7831   C.ar      2 RES2   0.0000
    20 C7       2.6505   5.0920   0.6530   C.ar      2 RES2   0.0000
    21 C8       2.8608   4.5243  -0.5572   C.ar      2 RES2   0.0000
    22 C9       3.6161   3.3849  -0.6941   C.ar      2 RES2   0.0000
    23 C10      6.8115   1.8546  -0.2952   C.ar      2 RES2   0.0000
    24 C11      6.9621   2.7362  -1.3393   C.ar      2 RES2   0.0000
    25 C12      8.2264   3.1625  -1.7225   C.ar      2 RES2   0.0000
    26 C13      9.3330   2.6863  -1.0832   C.ar      2 RES2   0.0000
    27 C14      9.1967   1.8047  -0.0313   C.ar      2 RES2   0.0000
    28 C15      7.9324   1.4035   0.3656   C.ar      2 RES2   0.0000
    29 C16      4.4406   0.3119  -1.0265   C.ar      2 RES2   0.0000
    30 C17      3.0616   0.0499  -0.9502   C.ar      2 RES2   0.0000
    31 C18      2.4498  -0.8067  -1.8574   C.ar      2 RES2   0.0000
    32 C19      3.2504  -1.4159  -2.8526   C.ar      2 RES2   0.0000
    33 C20      4.5506  -1.1498  -2.9563   C.ar      2 RES2   0.0000
    34 C21      5.1672  -0.2557  -2.0549   C.ar      2 RES2   0.0000
    35 C22      3.8599  -1.0188   3.3708   C.ar      2 RES2   0.0000
    36 C23      2.8537  -0.0811   3.3590   C.ar      2 RES2   0.0000
    37 C24      1.7997  -0.1726   4.2447   C.ar      2 RES2   0.0000
    38 C25      1.7734  -1.2080   5.1539   C.ar      2 RES2   0.0000
    39 C26      2.7389  -2.1707   5.1500   C.ar      2 RES2   0.0000
    40 C27      3.7786  -2.0834   4.2975   C.ar      2 RES2   0.0000
    41 C28      6.7183  -0.9918   3.4099   C.ar      2 RES2   0.0000
    42 C29      7.3732  -2.2164   3.6249   C.ar      2 RES2   0.0000
    43 C30      8.3746  -2.3017   4.5713   C.ar      2 RES2   0.0000
    44 C31      8.7187  -1.1872   5.2810   C.ar      2 RES2   0.0000
    45 C32      8.1021   0.0437   5.0777   C.ar      2 RES2   0.0000
    46 C33      7.0983   0.1081   4.1294   C.ar      2 RES2   0.0000
    47 C34      5.3536  -2.2019   1.1360   C.ar      2 RES2   0.0000
    48 C35      4.2351  -2.8963   0.8114   C.ar      2 RES2   0.0000
    49 C36      4.2709  -3.8257  -0.2405   C.ar      2 RES2   0.0000
    50 C37      5.4349  -4.0108  -0.9268   C.ar      2 RES2   0.0000
    51 C38      6.5629  -3.3330  -0.5944   C.ar      2 RES2   0.0000
    52 C39      6.5223  -2.3848   0.4223   C.ar      2 RES2   0.0000
    53 H1       4.3522   2.8589   2.5457   H         2 RES2   0.0000
    54 H2       3.0162   4.9256   2.7549   H         2 RES2   0.0000
    55 H3       2.0721   6.0006   0.7391   H         2 RES2   0.0000
    56 H4       2.4306   4.9714  -1.4410   H         2 RES2   0.0000
    57 H5       3.7666   2.9441  -1.6678   H         2 RES2   0.0000
    58 H6       6.0873   3.0897  -1.8672   H         2 RES2   0.0000
    59 H7       8.3411   3.8735  -2.5261   H         2 RES2   0.0000
    60 H8      10.3152   3.0065  -1.3980   H         2 RES2   0.0000
    61 H9      10.0810   1.4346   0.4673   H         2 RES2   0.0000
    62 H10      7.8225   0.7236   1.1966   H         2 RES2   0.0000
    63 H11      2.4713   0.5364  -0.1877   H         2 RES2   0.0000
    64 H12      1.3934  -1.0209  -1.7851   H         2 RES2   0.0000
    65 H13      2.7987  -2.1208  -3.5370   H         2 RES2   0.0000
    66 H14      5.1194  -1.5906  -3.7598   H         2 RES2   0.0000
    67 H15      6.2212  -0.0374  -2.1409   H         2 RES2   0.0000
    68 H16      2.8967   0.7340   2.6513   H         2 RES2   0.0000
    69 H17      0.9942   0.5468   4.2252   H         2 RES2   0.0000
    70 H18      0.9847  -1.2558   5.8891   H         2 RES2   0.0000
    71 H19      2.6696  -3.0148   5.8206   H         2 RES2   0.0000
    72 H20      4.5625  -2.6198   4.2643   H         2 RES2   0.0000
    73 H21      7.0625  -3.0876   3.0658   H         2 RES2   0.0000
    74 H22      8.8980  -3.2311   4.7394   H         2 RES2   0.0000
    75 H23      9.4979  -1.2538   6.0259   H         2 RES2   0.0000
    76 H24      8.3841   0.9148   5.6486   H         2 RES2   0.0000
    77 H25      6.5964   1.0458   3.9397   H         2 RES2   0.0000
    78 H26      3.3293  -2.7238   1.3745   H         2 RES2   0.0000
    79 H27      3.3795  -4.3746  -0.5025   H         2 RES2   0.0000
    80 H28      5.4612  -4.7135  -1.7460   H         2 RES2   0.0000
    81 H29      7.4903  -3.5138  -1.1203   H         2 RES2   0.0000
    82 H30      7.3899  -1.7923   0.6726   H         2 RES2   0.0000
    83 P3      12.7738   4.3256   6.1387   P.3       3 RES3   0.0000
    84 N5      11.9500   4.8341   4.8880   N.1       3 RES3   1.0000
    85 C40     14.5432   4.3310   5.7718   C.ar      3 RES3   0.0000
    86 C41     15.0116   4.5243   4.5165   C.ar      3 RES3   0.0000
    87 C42     16.3787   4.5742   4.2662   C.ar      3 RES3   0.0000
    88 C43     17.2654   4.4516   5.2556   C.ar      3 RES3   0.0000
    89 C44     16.8280   4.3123   6.5538   C.ar      3 RES3   0.0000
    90 C45     15.4657   4.2395   6.8236   C.ar      3 RES3   0.0000
    91 C46     12.3444   2.6759   6.7102   C.ar      3 RES3   0.0000
    92 C47     13.0614   1.5802   6.2840   C.ar      3 RES3   0.0000
    93 C48     12.6813   0.3056   6.6438   C.ar      3 RES3   0.0000
    94 C49     11.5963   0.0936   7.4317   C.ar      3 RES3   0.0000
    95 C50     10.8793   1.1706   7.8501   C.ar      3 RES3   0.0000
    96 C51     11.2234   2.4659   7.4904   C.ar      3 RES3   0.0000
    97 C52     12.5356   5.4932   7.4786   C.ar      3 RES3   0.0000
    98 C53     12.6766   5.1003   8.8238   C.ar      3 RES3   0.0000
    99 C54     12.5260   6.0671   9.8190   C.ar      3 RES3   0.0000
   100 C55     12.2488   7.3583   9.5042   C.ar      3 RES3   0.0000
   101 C56     12.1364   7.7596   8.1786   C.ar      3 RES3   0.0000
   102 C57     12.2607   6.8302   7.1736   C.ar      3 RES3   0.0000
   103 H31     14.3065   4.6325   3.7090   H         3 RES3   0.0000
   104 H32     16.7252   4.7281   3.2554   H         3 RES3   0.0000
   105 H33     18.3241   4.4620   5.0405   H         3 RES3   0.0000
   106 H34     17.5378   4.2520   7.3652   H         3 RES3   0.0000
   107 H35     15.1096   4.1293   7.8364   H         3 RES3   0.0000
   108 H36     13.9313   1.7341   5.6623   H         3 RES3   0.0000
   109 H37     13.2645  -0.5364   6.3036   H         3 RES3   0.0000
   110 H38     11.3047  -0.9107   7.6996   H         3 RES3   0.0000
   111 H39     10.0213   1.0105   8.4875   H         3 RES3   0.0000
   112 H40     10.6355   3.3142   7.8091   H         3 RES3   0.0000
   113 H41     12.8725   4.0669   9.0682   H         3 RES3   0.0000
   114 H42     12.6574   5.7885  10.8553   H         3 RES3   0.0000
   115 H43     12.1006   8.0735  10.2980   H         3 RES3   0.0000
   116 H44     11.9428   8.7950   7.9381   H         3 RES3   0.0000
   117 H45     12.1579   7.1233   6.1393   H         3 RES3   0.0000
   118 P3C     11.1262   4.3256   3.6373   P.3       3 RES3   0.0000
   119 C40C     9.3568   4.3310   4.0042   C.ar      3 RES3   0.0000
   120 C46C    11.5556   2.6759   3.0658   C.ar      3 RES3   0.0000
   121 C52C    11.3644   5.4932   2.2974   C.ar      3 RES3   0.0000
   122 C41C     8.8884   4.5243   5.2595   C.ar      3 RES3   0.0000
   123 C45C     8.4343   4.2395   2.9524   C.ar      3 RES3   0.0000
   124 C47C    10.8387   1.5802   3.4920   C.ar      3 RES3   0.0000
   125 C51C    12.6766   2.4659   2.2856   C.ar      3 RES3   0.0000
   126 C53C    11.2234   5.1003   0.9522   C.ar      3 RES3   0.0000
   127 C57C    11.6393   6.8302   2.6024   C.ar      3 RES3   0.0000
   128 C42C     7.5213   4.5742   5.5098   C.ar      3 RES3   0.0000
   129 H31C     9.5935   4.6325   6.0670   H         3 RES3   0.0000
   130 C44C     7.0720   4.3123   3.2222   C.ar      3 RES3   0.0000
   131 H35C     8.7904   4.1293   1.9396   H         3 RES3   0.0000
   132 C48C    11.2187   0.3056   3.1322   C.ar      3 RES3   0.0000
   133 H36C     9.9687   1.7341   4.1137   H         3 RES3   0.0000
   134 C50C    13.0207   1.1706   1.9259   C.ar      3 RES3   0.0000
   135 H40C    13.2645   3.3142   1.9669   H         3 RES3   0.0000
   136 C54C    11.3740   6.0671  -0.0430   C.ar      3 RES3   0.0000
   137 H41C    11.0275   4.0669   0.7078   H         3 RES3   0.0000
   138 C56C    11.7636   7.7596   1.5974   C.ar      3 RES3   0.0000
   139 H45C    11.7421   7.1233   3.6367   H         3 RES3   0.0000
   140 C43C     6.6346   4.4516   4.5204   C.ar      3 RES3   0.0000
   141 H32C     7.1748   4.7281   6.5206   H         3 RES3   0.0000
   142 H34C     6.3622   4.2520   2.4108   H         3 RES3   0.0000
   143 C49C    12.3037   0.0936   2.3443   C.ar      3 RES3   0.0000
   144 H37C    10.6355  -0.5364   3.4724   H         3 RES3   0.0000
   145 H39C    13.8787   1.0105   1.2885   H         3 RES3   0.0000
   146 C55C    11.6512   7.3583   0.2718   C.ar      3 RES3   0.0000
   147 H42C    11.2426   5.7885  -1.0793   H         3 RES3   0.0000
   148 H44C    11.9572   8.7950   1.8379   H         3 RES3   0.0000
   149 H33C     5.5759   4.4620   4.7355   H         3 RES3   0.0000
   150 H38C    12.5953  -0.9107   2.0764   H         3 RES3   0.0000
   151 H43C    11.7994   8.0735  -0.5220   H         3 RES3   0.0000
   152 O1       2.1032   8.4915   1.1301   O.3       4 RES4   0.0000
@<TRIPOS>BOND
     1     1     5    1
     2     2     5    3
     3     3     6    3
     4     4     7    3
     5     6     1    1
     6     7     1    1
     7     8     1    1
     8     9     1    1
     9    10     1    1
    10    11     8    3
    11    12     9    3
    12    13    10    3
    13    14    16    2
    14    15    16    2
    15    17    14    1
    16    18    17   ar
    17    19    18   ar
    18    20    19   ar
    19    21    20   ar
    20    22    17   ar
    21    23    14    1
    22    24    23   ar
    23    25    24   ar
    24    26    25   ar
    25    27    26   ar
    26    28    23   ar
    27    29    14    1
    28    30    29   ar
    29    31    30   ar
    30    32    31   ar
    31    33    32   ar
    32    34    29   ar
    33    35    15    1
    34    36    35   ar
    35    37    36   ar
    36    38    37   ar
    37    39    38   ar
    38    40    35   ar
    39    41    15    1
    40    42    41   ar
    41    43    42   ar
    42    44    43   ar
    43    45    44   ar
    44    46    41   ar
    45    47    15    1
    46    48    47   ar
    47    49    48   ar
    48    50    49   ar
    49    51    50   ar
    50    52    47   ar
    51    53    18    1
    52    54    19    1
    53    55    20    1
    54    56    21    1
    55    57    22    1
    56    58    24    1
    57    59    25    1
    58    60    26    1
    59    61    27    1
    60    62    28    1
    61    63    30    1
    62    64    31    1
    63    65    32    1
    64    66    33    1
    65    67    34    1
    66    68    36    1
    67    69    37    1
    68    70    38    1
    69    71    39    1
    70    72    40    1
    71    73    42    1
    72    74    43    1
    73    75    44    1
    74    76    45    1
    75    77    46    1
    76    78    48    1
    77    79    49    1
    78    80    50    1
    79    81    51    1
    80    82    52    1
    81    21    22   ar
    82    27    28   ar
    83    33    34   ar
    84    39    40   ar
    85    45    46   ar
    86    51    52   ar
    87    83    84    2
    88    84   118    2
    89    85    83    1
    90    86    85   ar
    91    87    86   ar
    92    88    87   ar
    93    89    88   ar
    94    90    85   ar
    95    91    83    1
    96    92    91   ar
    97    93    92   ar
    98    94    93   ar
    99    95    94   ar
   100    96    91   ar
   101    97    83    1
   102    98    97   ar
   103    99    98   ar
   104   100    99   ar
   105   101   100   ar
   106   102    97   ar
   107   103    86    1
   108   104    87    1
   109   105    88    1
   110   106    89    1
   111   107    90    1
   112   108    92    1
   113   109    93    1
   114   110    94    1
   115   111    95    1
   116   112    96    1
   117   113    98    1
   118   114    99    1
   119   115   100    1
   120   116   101    1
   121   117   102    1
   122   118   119    1
   123   119   122   ar
   124   120   118    1
   125   121   118    1
   126   122   128   ar
   127   123   119   ar
   128   124   120   ar
   129   125   120   ar
   130   126   121   ar
   131   127   121   ar
   132   128   140   ar
   133   129   122    1
   134   130   123   ar
   135   131   123    1
   136   132   124   ar
   137   133   124    1
   138   134   125   ar
   139   135   125    1
   140   136   126   ar
   141   137   126    1
   142   138   127   ar
   143   139   127    1
   144   140   130   ar
   145   141   128    1
   146   142   130    1
   147   143   132   ar
   148   144   132    1
   149   145   134    1
   150   146   136   ar
   151   147   136    1
   152   148   138    1
   153   149   140    1
   154   150   143    1
   155   151   146    1
   156    89    90   ar
   157    95    96   ar
   158   101   102   ar
   159   134   143   ar
   160   138   146   ar
@<TRIPOS>SUBSTRUCTURE
     1 RES1        1 GROUP             0 ****  ****    0  
     2 RES2       14 GROUP             0 ****  ****    0  
     3 RES3       83 GROUP             0 ****  ****    0  
     4 RES4      152 GROUP             0 ****  ****    0  
@<TRIPOS>CRYSIN
   23.9000   20.7920   19.5520   90.0000   90.0000   90.0000    60     1
