@<TRIPOS>MOLECULE
LALYAC01
   109   113     9     0     0
SMALL
USER_CHARGES
****
Generated from the CSD

@<TRIPOS>ATOM
     1 Fe1      3.2801   8.0765   3.9152   Fe        1 RES1   2.0000
     2 N1       4.5723   8.2994   6.9236   N.pl3     1 RES1   0.0000
     3 H1       5.0905   8.9714   6.6701   H         1 RES1   0.0000
     4 N2       3.7282   7.7867   6.0102   N.2       1 RES1   0.0000
     5 N3       1.9189   6.5943   4.5950   N.ar      1 RES1   0.0000
     6 N4       2.0318   7.5865   2.1857   N.2       1 RES1   0.0000
     7 N5       1.9320   7.9222   0.8833   N.pl3     1 RES1   0.0000
     8 H2       2.4995   8.5044   0.5302   H         1 RES1   0.0000
     9 N6       1.1707  10.3198   5.1823   N.pl3     1 RES1   0.0000
    10 H3       0.6342   9.7603   5.4886   H         1 RES1   0.0000
    11 N7       2.1737   9.9104   4.3739   N.2       1 RES1   0.0000
    12 N8       4.3717   9.6309   2.9846   N.ar      1 RES1   0.0000
    13 N9       5.0255   7.1127   3.0151   N.2       1 RES1   0.0000
    14 N10      5.5805   5.8893   2.9139   N.pl3     1 RES1   0.0000
    15 H4       5.2107   5.2429   3.3443   H         1 RES1   0.0000
    16 C1       4.3820   7.7395   8.1305   C.2       1 RES1   0.0000
    17 H5       4.8483   7.9447   8.9086   H         1 RES1   0.0000
    18 C2       3.3786   6.8121   8.0121   C.2       1 RES1   0.0000
    19 H6       3.0332   6.2613   8.6772   H         1 RES1   0.0000
    20 C3       2.9884   6.8775   6.6666   C.2       1 RES1   0.0000
    21 C4       1.9300   6.2182   5.8882   C.ar      1 RES1   0.0000
    22 C5       0.9884   5.3353   6.3966   C.ar      1 RES1   0.0000
    23 H7       1.0090   5.0756   7.2894   H         1 RES1   0.0000
    24 C6       0.0166   4.8517   5.5359   C.ar      1 RES1   0.0000
    25 H8      -0.6273   4.2594   5.8512   H         1 RES1   0.0000
    26 C7      -0.0014   5.2455   4.2083   C.ar      1 RES1   0.0000
    27 H9      -0.6540   4.9257   3.6282   H         1 RES1   0.0000
    28 C8       0.9722   6.1261   3.7599   C.ar      1 RES1   0.0000
    29 C9       1.0871   6.6618   2.3950   C.2       1 RES1   0.0000
    30 C10      0.3820   6.4025   1.2090   C.2       1 RES1   0.0000
    31 H10     -0.3194   5.8047   1.0844   H         1 RES1   0.0000
    32 C11      0.9549   7.2233   0.2777   C.2       1 RES1   0.0000
    33 H11      0.7117   7.2873  -0.6176   H         1 RES1   0.0000
    34 C12      1.1332  11.6566   5.2750   C.2       1 RES1   0.0000
    35 H12      0.5245  12.1531   5.7729   H         1 RES1   0.0000
    36 C13      2.1493  12.1638   4.5077   C.2       1 RES1   0.0000
    37 H13      2.3733  13.0572   4.3798   H         1 RES1   0.0000
    38 C14      2.7723  11.0426   3.9613   C.2       1 RES1   0.0000
    39 C15      3.9229  10.8966   3.0646   C.ar      1 RES1   0.0000
    40 C16      4.5135  11.9222   2.3353   C.ar      1 RES1   0.0000
    41 H14      4.1873  12.7917   2.3844   H         1 RES1   0.0000
    42 C17      5.6020  11.6149   1.5328   C.ar      1 RES1   0.0000
    43 H15      6.0156  12.2836   1.0363   H         1 RES1   0.0000
    44 C18      6.0751  10.3129   1.4687   C.ar      1 RES1   0.0000
    45 H16      6.8104  10.1004   0.9405   H         1 RES1   0.0000
    46 C19      5.4277   9.3333   2.2102   C.ar      1 RES1   0.0000
    47 C20      5.7946   7.9154   2.2535   C.2       1 RES1   0.0000
    48 C21      6.8338   7.1883   1.6680   C.2       1 RES1   0.0000
    49 H17      7.4963   7.5048   1.0972   H         1 RES1   0.0000
    50 C22      6.6613   5.9039   2.1209   C.2       1 RES1   0.0000
    51 H18      7.1988   5.1736   1.9142   H         1 RES1   0.0000
    52 N11      1.0430  13.2884   1.1989   N.ar      2 RES2   1.0000
    53 O1      -1.3542   9.5156   3.2608   O.co2     2 RES2   0.0000
    54 O2      -2.2190  11.2780   4.3508   O.co2     2 RES2  -1.0000
    55 O3       1.8892  14.0638   0.5670   O.3       2 RES2  -1.0000
    56 C23     -1.5050  10.7676   3.4844   C.2       2 RES2   0.0000
    57 C24     -0.6721  11.6492   2.5975   C.ar      2 RES2   0.0000
    58 C25      0.2795  11.1154   1.7403   C.ar      2 RES2   0.0000
    59 H19      0.3398  10.1940   1.6298   H         2 RES2   0.0000
    60 C26     -0.7729  13.0242   2.6887   C.ar      2 RES2   0.0000
    61 H20     -1.4233  13.4058   3.2330   H         2 RES2   0.0000
    62 C27      0.0848  13.8312   1.9773   C.ar      2 RES2   0.0000
    63 H21      0.0037  14.7559   2.0336   H         2 RES2   0.0000
    64 C28      1.1313  11.9445   1.0553   C.ar      2 RES2   0.0000
    65 H22      1.7733  11.5815   0.4888   H         2 RES2   0.0000
    66 N12     -3.3703   4.8919   8.5611   N.ar      3 RES3   1.0000
    67 O4      -0.6632   8.5082   6.3638   O.2       3 RES3   0.0000
    68 O5      -2.2824   7.9874   4.8985   O.3       3 RES3   0.0000
    69 H23     -1.8172   8.7540   4.1387   H         3 RES3   0.0000
    70 O6      -3.8989   3.9909   9.3515   O.3       3 RES3  -1.0000
    71 C29     -1.6602   7.8711   6.0100   C.2       3 RES3   0.0000
    72 C30     -2.2617   6.8286   6.9157   C.ar      3 RES3   0.0000
    73 C31     -1.8834   6.7243   8.2415   C.ar      3 RES3   0.0000
    74 H24     -1.2465   7.3068   8.5879   H         3 RES3   0.0000
    75 C32     -3.2073   5.9300   6.4350   C.ar      3 RES3   0.0000
    76 H25     -3.4817   5.9810   5.5478   H         3 RES3   0.0000
    77 C33     -3.7403   4.9676   7.2577   C.ar      3 RES3   0.0000
    78 H26     -4.3599   4.3627   6.9185   H         3 RES3   0.0000
    79 C34     -2.4448   5.7624   9.0520   C.ar      3 RES3   0.0000
    80 H27     -2.1891   5.7066   9.9445   H         3 RES3   0.0000
    81 N13      5.7895  13.9116   6.4165   N.ar      4 RES4   1.0000
    82 O7       8.0905  16.3923   2.7396   O.co2     4 RES4   0.0000
    83 O8       9.4507  16.6780   4.4755   O.co2     4 RES4  -1.0000
    84 O9       5.0003  13.1523   7.1687   O.3       4 RES4  -1.0000
    85 C35      8.4006  16.2304   3.9314   C.2       4 RES4   0.0000
    86 C36      7.4695  15.4223   4.8164   C.ar      4 RES4   0.0000
    87 C37      7.6987  15.2818   6.1780   C.ar      4 RES4   0.0000
    88 H28      8.4375  15.6957   6.5625   H         4 RES4   0.0000
    89 C38      6.3541  14.7849   4.2919   C.ar      4 RES4   0.0000
    90 H29      6.1595  14.8657   3.3861   H         4 RES4   0.0000
    91 C39      5.5350  14.0354   5.1013   C.ar      4 RES4   0.0000
    92 H30      4.7948  13.6078   4.7351   H         4 RES4   0.0000
    93 C40      6.8533  14.5426   6.9658   C.ar      4 RES4   0.0000
    94 H31      7.0118  14.4747   7.8797   H         4 RES4   0.0000
    95 O10     12.6525  14.7295   7.0815   O.3       5 RES5   0.0000
    96 H32     13.2274  14.1325   7.1145   H         5 RES5   0.0000
    97 H33     11.9540  14.3808   7.3114   H         5 RES5   0.0000
    98 O11      7.3032   2.9089   4.4807   O.3       6 RES6   0.0000
    99 H34      7.4462   2.6506   5.2227   H         6 RES6   0.0000
   100 H35      6.4915   3.1037   4.4871   H         6 RES6   0.0000
   101 O12      5.7894  10.5754   6.1206   O.3       7 RES7   0.0000
   102 H36      6.3646  10.6994   5.5727   H         7 RES7   0.0000
   103 H37      5.5371  11.3087   6.4480   H         7 RES7   0.0000
   104 O13      1.5261   2.9830   0.7081   O.3       8 RES8   0.0000
   105 H38      0.7708   2.9753   0.9711   H         8 RES8   0.0000
   106 H39      1.9499   3.1649   1.4088   H         8 RES8   0.0000
   107 O14      3.6448  15.5630   2.0478   O.3       9 RES9   0.0000
   108 H40      3.3052  15.5942   2.7283   H         9 RES9   0.0000
   109 H41      3.1021  15.1455   1.5670   H         9 RES9   0.0000
@<TRIPOS>BOND
     1     1     4    1
     2     2     3    1
     3     4     2    1
     4     5     1    1
     5     6     1    1
     6     7     6    1
     7     8     7    1
     8     9    10    1
     9    11     1    1
    10    12     1    1
    11    13     1    1
    12    14    13    1
    13    15    14    1
    14    16     2    1
    15    17    16    1
    16    18    16    2
    17    19    18    1
    18    20     4    2
    19    21     5   ar
    20    22    21   ar
    21    23    22    1
    22    24    22   ar
    23    25    24    1
    24    26    24   ar
    25    27    26    1
    26    28     5   ar
    27    29     6    2
    28    30    29    1
    29    31    30    1
    30    32     7    1
    31    33    32    1
    32    34     9    1
    33    35    34    1
    34    36    34    2
    35    37    36    1
    36    38    11    2
    37    39    12   ar
    38    40    39   ar
    39    41    40    1
    40    42    40   ar
    41    43    42    1
    42    44    42   ar
    43    45    44    1
    44    46    12   ar
    45    47    13    2
    46    48    47    1
    47    49    48    1
    48    50    14    1
    49    51    50    1
    50     9    11    1
    51    18    20    1
    52    20    21    1
    53    26    28   ar
    54    28    29    1
    55    30    32    2
    56    36    38    1
    57    38    39    1
    58    44    46   ar
    59    46    47    1
    60    48    50    2
    61    52    55    1
    62    53    56    2
    63    54    56    1
    64    56    57    1
    65    57    58   ar
    66    58    59    1
    67    60    57   ar
    68    61    60    1
    69    62    52   ar
    70    63    62    1
    71    64    52   ar
    72    65    64    1
    73    58    64   ar
    74    60    62   ar
    75    66    70    1
    76    67    71    2
    77    68    69    1
    78    71    68    1
    79    72    71    1
    80    73    72   ar
    81    74    73    1
    82    75    72   ar
    83    76    75    1
    84    77    66   ar
    85    78    77    1
    86    79    66   ar
    87    80    79    1
    88    73    79   ar
    89    75    77   ar
    90    81    84    1
    91    82    85    2
    92    83    85    1
    93    85    86    1
    94    86    87   ar
    95    87    88    1
    96    89    86   ar
    97    90    89    1
    98    91    81   ar
    99    92    91    1
   100    93    81   ar
   101    94    93    1
   102    87    93   ar
   103    89    91   ar
   104    95    96    1
   105    97    95    1
   106    98    99    1
   107   100    98    1
   108   101   102    1
   109   103   101    1
   110   104   105    1
   111   106   104    1
   112   107   108    1
   113   109   107    1
@<TRIPOS>SUBSTRUCTURE
     1 RES1        1 GROUP             0 ****  ****    0  
     2 RES2       52 GROUP             0 ****  ****    0  
     3 RES3       66 GROUP             0 ****  ****    0  
     4 RES4       81 GROUP             0 ****  ****    0  
     5 RES5       95 GROUP             0 ****  ****    0  
     6 RES6       98 GROUP             0 ****  ****    0  
     7 RES7      101 GROUP             0 ****  ****    0  
     8 RES8      104 GROUP             0 ****  ****    0  
     9 RES9      107 GROUP             0 ****  ****    0  
@<TRIPOS>CRYSIN
   10.0105   13.6732   17.5596   73.5259   85.7741   69.1588     2     1
