@<TRIPOS>MOLECULE
LALYAC07
   109   113     9     0     0
SMALL
USER_CHARGES
****
Generated from the CSD

@<TRIPOS>ATOM
     1 Fe1      3.3038   7.9431   3.8960   Fe        1 RES1   2.0000
     2 N1       4.5755   8.1503   6.9018   N.pl3     1 RES1   0.0000
     3 H1       5.0940   8.8388   6.6107   H         1 RES1   0.0000
     4 N2       3.7321   7.6447   5.9859   N.2       1 RES1   0.0000
     5 N3       1.9287   6.4650   4.5634   N.ar      1 RES1   0.0000
     6 N4       2.0625   7.4656   2.1574   N.2       1 RES1   0.0000
     7 N5       1.9720   7.8097   0.8599   N.pl3     1 RES1   0.0000
     8 H2       2.5600   8.4108   0.4943   H         1 RES1   0.0000
     9 N6       1.1684  10.1840   5.1306   N.pl3     1 RES1   0.0000
    10 H3       0.6391   9.6734   5.4486   H         1 RES1   0.0000
    11 N7       2.1796   9.7757   4.3385   N.2       1 RES1   0.0000
    12 N8       4.3876   9.4993   2.9604   N.ar      1 RES1   0.0000
    13 N9       5.0526   6.9800   2.9940   N.2       1 RES1   0.0000
    14 N10      5.6083   5.7590   2.8949   N.pl3     1 RES1   0.0000
    15 H4       5.2500   5.0860   3.3530   H         1 RES1   0.0000
    16 C1       4.3794   7.5908   8.1099   C.2       1 RES1   0.0000
    17 H5       4.8458   7.7937   8.8885   H         1 RES1   0.0000
    18 C2       3.3668   6.6652   7.9910   C.2       1 RES1   0.0000
    19 H6       3.0154   6.1166   8.6547   H         1 RES1   0.0000
    20 C3       2.9842   6.7366   6.6405   C.2       1 RES1   0.0000
    21 C4       1.9226   6.0885   5.8590   C.ar      1 RES1   0.0000
    22 C5       0.9665   5.2247   6.3668   C.ar      1 RES1   0.0000
    23 H7       0.9808   4.9671   7.2604   H         1 RES1   0.0000
    24 C6      -0.0162   4.7534   5.5015   C.ar      1 RES1   0.0000
    25 H8      -0.6721   4.1735   5.8153   H         1 RES1   0.0000
    26 C7      -0.0184   5.1490   4.1668   C.ar      1 RES1   0.0000
    27 H9      -0.6735   4.8425   3.5823   H         1 RES1   0.0000
    28 C8       0.9764   6.0096   3.7262   C.ar      1 RES1   0.0000
    29 C9       1.1040   6.5466   2.3616   C.2       1 RES1   0.0000
    30 C10      0.4006   6.2973   1.1709   C.2       1 RES1   0.0000
    31 H10     -0.3038   5.7044   1.0393   H         1 RES1   0.0000
    32 C11      0.9896   7.1300   0.2401   C.2       1 RES1   0.0000
    33 H11      0.7503   7.2073  -0.6552   H         1 RES1   0.0000
    34 C12      1.1242  11.5285   5.2223   C.2       1 RES1   0.0000
    35 H12      0.5097  12.0249   5.7132   H         1 RES1   0.0000
    36 C13      2.1502  12.0335   4.4604   C.2       1 RES1   0.0000
    37 H13      2.3751  12.9264   4.3297   H         1 RES1   0.0000
    38 C14      2.7808  10.9060   3.9252   C.2       1 RES1   0.0000
    39 C15      3.9375  10.7624   3.0355   C.ar      1 RES1   0.0000
    40 C16      4.5226  11.7909   2.3062   C.ar      1 RES1   0.0000
    41 H14      4.1893  12.6579   2.3509   H         1 RES1   0.0000
    42 C17      5.6208  11.4874   1.5068   C.ar      1 RES1   0.0000
    43 H15      6.0367  12.1576   1.0141   H         1 RES1   0.0000
    44 C18      6.0965  10.1812   1.4450   C.ar      1 RES1   0.0000
    45 H16      6.8332   9.9672   0.9194   H         1 RES1   0.0000
    46 C19      5.4445   9.2039   2.1874   C.ar      1 RES1   0.0000
    47 C20      5.8152   7.7854   2.2299   C.2       1 RES1   0.0000
    48 C21      6.8593   7.0664   1.6384   C.2       1 RES1   0.0000
    49 H17      7.5182   7.3862   1.0653   H         1 RES1   0.0000
    50 C22      6.6907   5.7720   2.0983   C.2       1 RES1   0.0000
    51 H18      7.2296   5.0424   1.8931   H         1 RES1   0.0000
    52 N11      1.1227  13.1002   1.1639   N.ar      2 RES2   1.0000
    53 O1      -1.3244   9.3493   3.2205   O.co2     2 RES2   0.0000
    54 O2      -2.1778  11.1298   4.3094   O.co2     2 RES2  -1.0000
    55 O3       1.9794  13.8666   0.5340   O.3       2 RES2  -1.0000
    56 C23     -1.4644  10.6054   3.4448   C.2       2 RES2   0.0000
    57 C24     -0.6214  11.4744   2.5583   C.ar      2 RES2   0.0000
    58 C25      0.3504  10.9274   1.7214   C.ar      2 RES2   0.0000
    59 H19      0.4124  10.0046   1.6242   H         2 RES2   0.0000
    60 C26     -0.7232  12.8596   2.6281   C.ar      2 RES2   0.0000
    61 H20     -1.3827  13.2487   3.1559   H         2 RES2   0.0000
    62 C27      0.1454  13.6569   1.9214   C.ar      2 RES2   0.0000
    63 H21      0.0623  14.5822   1.9629   H         2 RES2   0.0000
    64 C28      1.2166  11.7478   1.0396   C.ar      2 RES2   0.0000
    65 H22      1.8698  11.3775   0.4909   H         2 RES2   0.0000
    66 H24     -1.9687   8.4475   4.4250   H         3 RES3   0.0000
    67 N12     -3.3502   4.7367   8.5187   N.ar      3 RES3   1.0000
    68 O4      -0.6531   8.3677   6.3175   O.2       3 RES3   0.0000
    69 O5      -2.2943   7.8487   4.8626   O.3       3 RES3   0.0000
    70 O6      -3.8746   3.8263   9.3046   O.3       3 RES3  -1.0000
    71 C29     -1.6607   7.7317   5.9682   C.2       3 RES3   0.0000
    72 C30     -2.2562   6.6875   6.8776   C.ar      3 RES3   0.0000
    73 C31     -1.8705   6.5782   8.2056   C.ar      3 RES3   0.0000
    74 H25     -1.2354   7.1621   8.5525   H         3 RES3   0.0000
    75 C32     -3.2025   5.7865   6.3950   C.ar      3 RES3   0.0000
    76 H26     -3.4800   5.8410   5.5090   H         3 RES3   0.0000
    77 C33     -3.7304   4.8182   7.2140   C.ar      3 RES3   0.0000
    78 H27     -4.3513   4.2146   6.8751   H         3 RES3   0.0000
    79 C34     -2.4247   5.6072   9.0138   C.ar      3 RES3   0.0000
    80 H28     -2.1647   5.5458   9.9046   H         3 RES3   0.0000
    81 N13      5.7798  13.7157   6.3695   N.ar      4 RES4   1.0000
    82 O7       8.1481  16.1591   2.7031   O.co2     4 RES4   0.0000
    83 O8       9.4959  16.4274   4.4654   O.co2     4 RES4  -1.0000
    84 O9       4.9838  12.9477   7.1127   O.3       4 RES4  -1.0000
    85 C35      8.4417  15.9959   3.9040   C.2       4 RES4   0.0000
    86 C36      7.4825  15.2113   4.7813   C.ar      4 RES4   0.0000
    87 C37      7.6982  15.0816   6.1499   C.ar      4 RES4   0.0000
    88 H29      8.4321  15.4983   6.5407   H         4 RES4   0.0000
    89 C38      6.3690  14.5767   4.2391   C.ar      4 RES4   0.0000
    90 H30      6.1882  14.6545   3.3302   H         4 RES4   0.0000
    91 C39      5.5338  13.8338   5.0440   C.ar      4 RES4   0.0000
    92 H31      4.7941  13.4093   4.6732   H         4 RES4   0.0000
    93 C40      6.8379  14.3434   6.9335   C.ar      4 RES4   0.0000
    94 H32      6.9843  14.2766   7.8495   H         4 RES4   0.0000
    95 O10     12.6115  14.5341   7.0307   O.3       5 RES5   0.0000
    96 H33     13.1914  13.9276   7.0666   H         5 RES5   0.0000
    97 H34     11.9503  14.2254   7.2102   H         5 RES5   0.0000
    98 O11      7.2793   2.8459   4.4300   O.3       6 RES6   0.0000
    99 H35      7.4349   2.6102   5.1096   H         6 RES6   0.0000
   100 H36      6.4875   3.0251   4.4233   H         6 RES6   0.0000
   101 O12      5.7790  10.4069   6.0739   O.3       7 RES7   0.0000
   102 H37      6.3410  10.5402   5.5371   H         7 RES7   0.0000
   103 H38      5.5273  11.1573   6.3837   H         7 RES7   0.0000
   104 O13      1.5129   2.9428   0.6913   O.3       8 RES8   0.0000
   105 H39      0.7566   2.9755   0.9468   H         8 RES8   0.0000
   106 H40      1.9246   3.1060   1.3993   H         8 RES8   0.0000
   107 O14      3.7260  15.3822   2.0031   O.3       9 RES9   0.0000
   108 H41      3.3936  15.4017   2.6934   H         9 RES9   0.0000
   109 H42      3.1574  14.9471   1.5613   H         9 RES9   0.0000
@<TRIPOS>BOND
     1     1     4    1
     2     2     3    1
     3     4     2    1
     4     5     1    1
     5     6     1    1
     6     7     6    1
     7     8     7    1
     8     9    10    1
     9    11     1    1
    10    12     1    1
    11    13     1    1
    12    14    13    1
    13    15    14    1
    14    16     2    1
    15    17    16    1
    16    18    16    2
    17    19    18    1
    18    20     4    2
    19    21     5   ar
    20    22    21   ar
    21    23    22    1
    22    24    22   ar
    23    25    24    1
    24    26    24   ar
    25    27    26    1
    26    28     5   ar
    27    29     6    2
    28    30    29    1
    29    31    30    1
    30    32     7    1
    31    33    32    1
    32    34     9    1
    33    35    34    1
    34    36    34    2
    35    37    36    1
    36    38    11    2
    37    39    12   ar
    38    40    39   ar
    39    41    40    1
    40    42    40   ar
    41    43    42    1
    42    44    42   ar
    43    45    44    1
    44    46    12   ar
    45    47    13    2
    46    48    47    1
    47    49    48    1
    48    50    14    1
    49    51    50    1
    50     9    11    1
    51    18    20    1
    52    20    21    1
    53    26    28   ar
    54    28    29    1
    55    30    32    2
    56    36    38    1
    57    38    39    1
    58    44    46   ar
    59    46    47    1
    60    48    50    2
    61    52    55    1
    62    53    56    2
    63    54    56    1
    64    56    57    1
    65    57    58   ar
    66    58    59    1
    67    60    57   ar
    68    61    60    1
    69    62    52   ar
    70    63    62    1
    71    64    52   ar
    72    65    64    1
    73    58    64   ar
    74    60    62   ar
    75    66    69    1
    76    67    70    1
    77    68    71    2
    78    69    71    1
    79    71    72    1
    80    72    73   ar
    81    73    74    1
    82    75    72   ar
    83    76    75    1
    84    77    67   ar
    85    78    77    1
    86    79    67   ar
    87    80    79    1
    88    73    79   ar
    89    75    77   ar
    90    81    84    1
    91    82    85    2
    92    83    85    1
    93    85    86    1
    94    86    87   ar
    95    87    88    1
    96    89    86   ar
    97    90    89    1
    98    91    81   ar
    99    92    91    1
   100    93    81   ar
   101    94    93    1
   102    87    93   ar
   103    89    91   ar
   104    95    96    1
   105    97    95    1
   106    98    99    1
   107   100    98    1
   108   101   102    1
   109   103   101    1
   110   104   105    1
   111   106   104    1
   112   107   108    1
   113   109   107    1
@<TRIPOS>SUBSTRUCTURE
     1 RES1        1 GROUP             0 ****  ****    0  
     2 RES2       52 GROUP             0 ****  ****    0  
     3 RES3       66 GROUP             0 ****  ****    0  
     4 RES4       81 GROUP             0 ****  ****    0  
     5 RES5       95 GROUP             0 ****  ****    0  
     6 RES6       98 GROUP             0 ****  ****    0  
     7 RES7      101 GROUP             0 ****  ****    0  
     8 RES8      104 GROUP             0 ****  ****    0  
     9 RES9      107 GROUP             0 ****  ****    0  
@<TRIPOS>CRYSIN
    9.9402   13.5461   17.3840   73.9590   85.9500   68.7350     2     1
