@<TRIPOS>MOLECULE
LALYAC08
   109   113     9     0     0
SMALL
USER_CHARGES
****
Generated from the CSD

@<TRIPOS>ATOM
     1 Fe1      6.6346   4.6937   3.8062   Fe        1 RES1   2.0000
     2 C1       5.5267   5.0041   7.9442   C.2       1 RES1   0.0000
     3 H1       5.0593   4.7892   8.7187   H         1 RES1   0.0000
     4 C2       6.5409   5.9268   7.8472   C.2       1 RES1   0.0000
     5 H2       6.8925   6.4618   8.5218   H         1 RES1   0.0000
     6 C3       6.9256   5.8778   6.4929   C.2       1 RES1   0.0000
     7 C4       7.9855   6.5174   5.7060   C.ar      1 RES1   0.0000
     8 C5       8.9525   7.3860   6.1870   C.ar      1 RES1   0.0000
     9 H3       8.9538   7.6518   7.0782   H         1 RES1   0.0000
    10 C6       9.9225   7.8508   5.3012   C.ar      1 RES1   0.0000
    11 H4      10.5764   8.4434   5.5947   H         1 RES1   0.0000
    12 C7       9.9102   7.4270   3.9795   C.ar      1 RES1   0.0000
    13 H5      10.5582   7.7251   3.3826   H         1 RES1   0.0000
    14 C8       8.9221   6.5557   3.5630   C.ar      1 RES1   0.0000
    15 C9       8.7675   5.9804   2.2337   C.2       1 RES1   0.0000
    16 C10      9.4436   6.1431   1.0129   C.2       1 RES1   0.0000
    17 H6      10.1652   6.7026   0.8359   H         1 RES1   0.0000
    18 C11      8.8118   5.3015   0.1421   C.2       1 RES1   0.0000
    19 H7       9.0248   5.1826  -0.7553   H         1 RES1   0.0000
    20 N1       5.3267   4.4648   6.7285   N.pl3     1 RES1   0.0000
    21 H8       4.7822   3.7665   6.4832   H         1 RES1   0.0000
    22 N2       6.1761   4.9837   5.8160   N.2       1 RES1   0.0000
    23 N3       7.9683   6.1057   4.4245   N.ar      1 RES1   0.0000
    24 N4       7.7754   5.0770   2.0952   N.2       1 RES1   0.0000
    25 N5       7.8239   4.6724   0.8122   N.pl3     1 RES1   0.0000
    26 H9       7.2138   4.1336   0.4445   H         1 RES1   0.0000
    27 C12      8.7909   1.2595   5.2370   C.2       1 RES1   0.0000
    28 H10      9.4137   0.7901   5.7436   H         1 RES1   0.0000
    29 C13      7.7823   0.7148   4.4995   C.2       1 RES1   0.0000
    30 H11      7.5738  -0.1862   4.4012   H         1 RES1   0.0000
    31 C14      7.1320   1.8060   3.9249   C.2       1 RES1   0.0000
    32 C15      5.9702   1.9258   3.0451   C.ar      1 RES1   0.0000
    33 C16      5.3647   0.9044   2.3324   C.ar      1 RES1   0.0000
    34 H12      5.6833   0.0323   2.3865   H         1 RES1   0.0000
    35 C17      4.2682   1.2140   1.5335   C.ar      1 RES1   0.0000
    36 H13      3.8417   0.5449   1.0484   H         1 RES1   0.0000
    37 C18      3.8109   2.5254   1.4615   C.ar      1 RES1   0.0000
    38 H14      3.0744   2.7435   0.9370   H         1 RES1   0.0000
    39 C19      4.4772   3.5015   2.1889   C.ar      1 RES1   0.0000
    40 C20      4.1545   4.9272   2.2352   C.2       1 RES1   0.0000
    41 C21      3.1238   5.6912   1.6842   C.2       1 RES1   0.0000
    42 H15      2.4352   5.4032   1.1296   H         1 RES1   0.0000
    43 C22      3.3565   6.9651   2.1465   C.2       1 RES1   0.0000
    44 H16      2.8392   7.7163   1.9638   H         1 RES1   0.0000
    45 N6       8.7259   2.5915   5.1030   N.pl3     1 RES1   0.0000
    46 H17      9.2165   3.1107   5.3720   H         1 RES1   0.0000
    47 N7       7.7107   2.9569   4.2948   N.2       1 RES1   0.0000
    48 N8       5.5383   3.2038   2.9597   N.ar      1 RES1   0.0000
    49 N9       4.9723   5.6888   2.9814   N.2       1 RES1   0.0000
    50 N10      4.4574   6.9333   2.9053   N.pl3     1 RES1   0.0000
    51 H18      4.8502   7.5809   3.3967   H         1 RES1   0.0000
    52 O1       0.6145   4.3380   6.2762   O.co2     2 RES2   0.0000
    53 O2       3.9257   8.7976   9.2552   O.3       2 RES2  -1.0000
    54 O3       2.2585   4.8105   4.8098   O.co2     2 RES2  -1.0000
    55 N11      3.3774   7.9144   8.4622   N.ar      2 RES2   1.0000
    56 C23      1.6312   4.9549   5.9165   C.2       2 RES2   0.0000
    57 C24      1.8633   6.1009   8.1453   C.ar      2 RES2   0.0000
    58 H19      1.2189   5.5270   8.4922   H         2 RES2   0.0000
    59 C25      2.4408   7.0541   8.9551   C.ar      2 RES2   0.0000
    60 H20      2.1890   7.1117   9.8485   H         2 RES2   0.0000
    61 C26      2.2388   5.9938   6.8164   C.ar      2 RES2   0.0000
    62 C27      3.1946   6.8863   6.3323   C.ar      2 RES2   0.0000
    63 H21      3.4649   6.8344   5.4440   H         2 RES2   0.0000
    64 C28      3.7402   7.8407   7.1546   C.ar      2 RES2   0.0000
    65 H22      4.3630   8.4416   6.8141   H         2 RES2   0.0000
    66 O4       1.2626   3.3063   3.1879   O.3       3 RES3   0.0000
    67 H23      1.7845   3.9719   3.9855   H         3 RES3   0.0000
    68 O5      -2.0556  -1.2155   0.5188   O.3       3 RES3  -1.0000
    69 O6       2.1015   1.5221   4.2842   O.2       3 RES3   0.0000
    70 N12     -1.2024  -0.4494   1.1477   N.ar      3 RES3   1.0000
    71 C29      1.3909   2.0486   3.4146   C.2       3 RES3   0.0000
    72 C30     -0.4158   1.7243   1.6896   C.ar      3 RES3   0.0000
    73 H24     -0.4682   2.6466   1.5819   H         3 RES3   0.0000
    74 C31      0.5416   1.1813   2.5399   C.ar      3 RES3   0.0000
    75 C32     -0.2357  -1.0027   1.9226   C.ar      3 RES3   0.0000
    76 H25     -0.1611  -1.9280   1.9787   H         3 RES3   0.0000
    77 C33     -1.2858   0.9064   1.0064   C.ar      3 RES3   0.0000
    78 H26     -1.9308   1.2768   0.4482   H         3 RES3   0.0000
    79 C34      0.6333  -0.2034   2.6250   C.ar      3 RES3   0.0000
    80 H27      1.2870  -0.5910   3.1609   H         3 RES3   0.0000
    81 O7       6.7935   9.1992   2.7266   O.co2     4 RES4   0.0000
    82 O8       5.4602   8.8898   4.4920   O.co2     4 RES4  -1.0000
    83 O9       9.9526  12.3818   7.1500   O.3       4 RES4  -1.0000
    84 N13      9.1619  11.6171   6.4033   N.ar      4 RES4   1.0000
    85 C35      6.5082   9.3448   3.9346   C.2       4 RES4   0.0000
    86 C36      8.1144  10.9628   6.9679   C.ar      4 RES4   0.0000
    87 H28      7.9789  11.0079   7.8869   H         4 RES4   0.0000
    88 C37      7.2605  10.2389   6.1869   C.ar      4 RES4   0.0000
    89 H29      6.5357   9.8090   6.5802   H         4 RES4   0.0000
    90 C38      7.4547  10.1323   4.8119   C.ar      4 RES4   0.0000
    91 C39      8.5580  10.7894   4.2734   C.ar      4 RES4   0.0000
    92 H30      8.7293  10.7307   3.3612   H         4 RES4   0.0000
    93 C40      9.3939  11.5217   5.0755   C.ar      4 RES4   0.0000
    94 H31     10.1268  11.9563   4.7029   H         4 RES4   0.0000
    95 O10      6.5147   9.8259   9.5738   O.3       5 RES5   0.0000
    96 H32      7.1581   9.2509   9.5200   H         5 RES5   0.0000
    97 H33      5.8554   9.5239   9.4172   H         5 RES5   0.0000
    98 O11      6.0921  10.7939  12.1432   O.3       6 RES6   0.0000
    99 H34      6.2663  10.5083  11.4356   H         6 RES6   0.0000
   100 H35      5.2855  10.9910  12.1720   H         6 RES6   0.0000
   101 O12      4.1233   2.2084   5.9873   O.3       7 RES7   0.0000
   102 H36      3.5341   2.0762   5.4201   H         7 RES7   0.0000
   103 H37      4.3626   1.4183   6.4252   H         7 RES7   0.0000
   104 O13      8.5907   9.7719   0.7638   O.3       8 RES8   0.0000
   105 H38      8.1638   9.6464   1.4247   H         8 RES8   0.0000
   106 H39      9.2856   9.7728   1.0150   H         8 RES8   0.0000
   107 O14     -3.7687  -2.7025   2.0400   O.3       9 RES9   0.0000
   108 H40     -3.4490  -2.7051   2.7631   H         9 RES9   0.0000
   109 H41     -3.2535  -2.3193   1.5872   H         9 RES9   0.0000
@<TRIPOS>BOND
     1     1    22    1
     2     2     3    1
     3     4     2    2
     4     5     4    1
     5     6     4    1
     6     7     6    1
     7     8     7   ar
     8     9     8    1
     9    10     8   ar
    10    11    10    1
    11    12    10   ar
    12    13    12    1
    13    14    12   ar
    14    15    14    1
    15    16    15    1
    16    17    16    1
    17    18    16    2
    18    19    18    1
    19    20     2    1
    20    21    20    1
    21    22     6    2
    22    23     1    1
    23    24     1    1
    24    25    18    1
    25    26    25    1
    26    27    28    1
    27    29    27    2
    28    30    29    1
    29    31    29    1
    30    32    31    1
    31    33    32   ar
    32    34    33    1
    33    35    33   ar
    34    36    35    1
    35    37    35   ar
    36    38    37    1
    37    39    37   ar
    38    40    39    1
    39    41    40    1
    40    42    41    1
    41    43    41    2
    42    44    43    1
    43    45    27    1
    44    46    45    1
    45    47     1    1
    46    48     1    1
    47    49     1    1
    48    50    43    1
    49    51    50    1
    50     7    23   ar
    51    14    23   ar
    52    15    24    2
    53    20    22    1
    54    24    25    1
    55    31    47    2
    56    32    48   ar
    57    39    48   ar
    58    40    49    2
    59    45    47    1
    60    49    50    1
    61    52    56    2
    62    53    55    1
    63    54    56    1
    64    55    59   ar
    65    56    61    1
    66    57    58    1
    67    59    57   ar
    68    60    59    1
    69    61    57   ar
    70    62    61   ar
    71    63    62    1
    72    64    55   ar
    73    65    64    1
    74    62    64   ar
    75    66    67    1
    76    68    70    1
    77    69    71    2
    78    70    75   ar
    79    71    66    1
    80    72    73    1
    81    74    71    1
    82    75    76    1
    83    77    70   ar
    84    78    77    1
    85    79    74   ar
    86    80    79    1
    87    72    74   ar
    88    72    77   ar
    89    75    79   ar
    90    81    85    2
    91    82    85    1
    92    83    84    1
    93    84    86   ar
    94    85    90    1
    95    86    87    1
    96    88    86   ar
    97    89    88    1
    98    90    88   ar
    99    91    90   ar
   100    92    91    1
   101    93    84   ar
   102    94    93    1
   103    91    93   ar
   104    95    96    1
   105    97    95    1
   106    98    99    1
   107   100    98    1
   108   101   102    1
   109   103   101    1
   110   104   105    1
   111   106   104    1
   112   107   108    1
   113   109   107    1
@<TRIPOS>SUBSTRUCTURE
     1 RES1        1 GROUP             0 ****  ****    0  
     2 RES2       52 GROUP             0 ****  ****    0  
     3 RES3       66 GROUP             0 ****  ****    0  
     4 RES4       81 GROUP             0 ****  ****    0  
     5 RES5       95 GROUP             0 ****  ****    0  
     6 RES6       98 GROUP             0 ****  ****    0  
     7 RES7      101 GROUP             0 ****  ****    0  
     8 RES8      104 GROUP             0 ****  ****    0  
     9 RES9      107 GROUP             0 ****  ****    0  
@<TRIPOS>CRYSIN
    9.9614   13.5770   17.2710  103.0190   94.1030  111.2800     2     1
