@<TRIPOS>MOLECULE
LALYAC10
   109   113     9     0     0
SMALL
USER_CHARGES
****
Generated from the CSD

@<TRIPOS>ATOM
     1 Fe1     -1.4696   7.9840   3.6806   Fe        1 RES1   2.0000
     2 N1      -0.1220   8.2475   6.4725   N.pl3     1 RES1   0.0000
     3 H1       0.4680   9.0522   6.1994   H         1 RES1   0.0000
     4 N2      -0.9727   7.7056   5.5890   N.2       1 RES1   0.0000
     5 N3      -2.7576   6.6439   4.2220   N.ar      1 RES1   0.0000
     6 N4      -2.4700   7.7419   2.0055   N.2       1 RES1   0.0000
     7 N5      -2.4360   8.2212   0.7507   N.pl3     1 RES1   0.0000
     8 H2      -1.7326   8.8649   0.4150   H         1 RES1   0.0000
     9 N6      -3.4936   9.8977   5.0581   N.pl3     1 RES1   0.0000
    10 H3      -4.1694   9.1737   5.3923   H         1 RES1   0.0000
    11 N7      -2.4848   9.5962   4.2313   N.2       1 RES1   0.0000
    12 N8      -0.3462   9.3814   2.9540   N.ar      1 RES1   0.0000
    13 N9       0.0607   6.9192   2.9562   N.2       1 RES1   0.0000
    14 N10      0.4846   5.6464   2.9384   N.pl3     1 RES1   0.0000
    15 H4       0.0141   4.9163   3.5024   H         1 RES1   0.0000
    16 C1      -0.3113   7.7421   7.7086   C.2       1 RES1   0.0000
    17 H5       0.2764   8.0673   8.5289   H         1 RES1   0.0000
    18 C2      -1.3390   6.8055   7.6332   C.2       1 RES1   0.0000
    19 H6      -1.7605   6.2251   8.4337   H         1 RES1   0.0000
    20 C3      -1.7308   6.8250   6.2821   C.2       1 RES1   0.0000
    21 C4      -2.7825   6.2044   5.4989   C.ar      1 RES1   0.0000
    22 C5      -3.7676   5.3317   5.9399   C.ar      1 RES1   0.0000
    23 H7      -3.7784   5.0087   6.9770   H         1 RES1   0.0000
    24 C6      -4.7267   4.8875   5.0266   C.ar      1 RES1   0.0000
    25 H8      -5.4938   4.2052   5.3332   H         1 RES1   0.0000
    26 C7      -4.6976   5.3507   3.7003   C.ar      1 RES1   0.0000
    27 H9      -5.4315   5.0177   2.9824   H         1 RES1   0.0000
    28 C8      -3.6963   6.2421   3.3433   C.ar      1 RES1   0.0000
    29 C9      -3.5036   6.8704   2.0532   C.2       1 RES1   0.0000
    30 C10     -4.1293   6.7994   0.7948   C.2       1 RES1   0.0000
    31 H10     -4.9536   6.1886   0.5118   H         1 RES1   0.0000
    32 C11     -3.4177   7.6777  -0.0116   C.2       1 RES1   0.0000
    33 H11     -3.5098   7.9492  -1.0286   H         1 RES1   0.0000
    34 C12     -3.5756  11.2268   5.2686   C.2       1 RES1   0.0000
    35 H12     -4.3419  11.6604   5.8713   H         1 RES1   0.0000
    36 C13     -2.5699  11.8361   4.5430   C.2       1 RES1   0.0000
    37 H13     -2.3771  12.8879   4.4785   H         1 RES1   0.0000
    38 C14     -1.9101  10.7787   3.9116   C.2       1 RES1   0.0000
    39 C15     -0.7491  10.6676   3.0493   C.ar      1 RES1   0.0000
    40 C16     -0.1087  11.6769   2.3556   C.ar      1 RES1   0.0000
    41 H14     -0.4756  12.7046   2.4164   H         1 RES1   0.0000
    42 C17      0.9986  11.3496   1.5680   C.ar      1 RES1   0.0000
    43 H15      1.5212  12.0979   1.0105   H         1 RES1   0.0000
    44 C18      1.4123  10.0271   1.4746   C.ar      1 RES1   0.0000
    45 H16      2.2735   9.7502   0.8695   H         1 RES1   0.0000
    46 C19      0.7149   9.0512   2.1922   C.ar      1 RES1   0.0000
    47 C20      0.9640   7.6321   2.2416   C.2       1 RES1   0.0000
    48 C21      1.9772   6.7811   1.7604   C.2       1 RES1   0.0000
    49 H17      2.8377   7.0612   1.1992   H         1 RES1   0.0000
    50 C22      1.6370   5.5253   2.2293   C.2       1 RES1   0.0000
    51 H18      2.1339   4.5799   2.1408   H         1 RES1   0.0000
    52 N11      6.4779  13.1315   1.1367   N.ar      2 RES2   1.0000
    53 O1       3.9927   9.3668   3.1401   O.co2     2 RES2   0.0000
    54 O2       3.1593  11.1580   4.2375   O.co2     2 RES2  -1.0000
    55 O3       7.3100  13.8989   0.5036   O.3       2 RES2  -1.0000
    56 C23      3.8727  10.6275   3.3691   C.2       2 RES2   0.0000
    57 C24      4.7318  11.4942   2.5214   C.ar      2 RES2   0.0000
    58 C25      5.6764  10.9489   1.6548   C.ar      2 RES2   0.0000
    59 H19      5.7516   9.8687   1.5158   H         2 RES2   0.0000
    60 C26      4.6538  12.8742   2.6433   C.ar      2 RES2   0.0000
    61 H20      3.9203  13.3279   3.2810   H         2 RES2   0.0000
    62 C27      5.5211  13.6783   1.9330   C.ar      2 RES2   0.0000
    63 H21      5.5219  14.7691   1.9571   H         2 RES2   0.0000
    64 C28      6.5476  11.7843   0.9699   C.ar      2 RES2   0.0000
    65 H22      7.3412  11.4491   0.3068   H         2 RES2   0.0000
    66 N12      1.7141   4.7814   8.3586   N.ar      3 RES3   1.0000
    67 O4       4.5919   8.2668   6.2097   O.2       3 RES3   0.0000
    68 O5       2.9507   7.8525   4.7120   O.3       3 RES3   0.0000
    69 H23      3.4363   8.6369   3.9683   H         3 RES3   0.0000
    70 O6       1.1254   3.9302   9.1506   O.3       3 RES3  -1.0000
    71 C29      3.5646   7.6764   5.8329   C.2       3 RES3   0.0000
    72 C30      2.9259   6.6517   6.7140   C.ar      3 RES3   0.0000
    73 C31      3.2734   6.5484   8.0563   C.ar      3 RES3   0.0000
    74 H24      4.0223   7.2013   8.4830   H         3 RES3   0.0000
    75 C32      1.9701   5.7664   6.2151   C.ar      3 RES3   0.0000
    76 H25      1.6659   5.8202   5.1823   H         3 RES3   0.0000
    77 C33      1.3812   4.8345   7.0387   C.ar      3 RES3   0.0000
    78 H26      0.6281   4.1246   6.7194   H         3 RES3   0.0000
    79 C34      2.6662   5.6186   8.8599   C.ar      3 RES3   0.0000
    80 H27      2.8749   5.4969   9.9085   H         3 RES3   0.0000
    81 N13     -0.5512  11.7346  -6.4530   N.ar      4 RES4   1.0000
    82 O7      -2.9028   9.3439  -2.7765   O.co2     4 RES4   0.0000
    83 O8      -4.2297   8.9781  -4.5374   O.co2     4 RES4  -1.0000
    84 O9       0.2278  12.5065  -7.1994   O.3       4 RES4  -1.0000
    85 C35     -3.1948   9.4651  -3.9838   C.2       4 RES4   0.0000
    86 C36     -2.2566  10.2571  -4.8619   C.ar      4 RES4   0.0000
    87 C37     -2.4519  10.3370  -6.2371   C.ar      4 RES4   0.0000
    88 H28     -3.2759   9.8497  -6.7112   H         4 RES4   0.0000
    89 C38     -1.1671  10.9288  -4.3102   C.ar      4 RES4   0.0000
    90 H29     -0.9651  10.9046  -3.2580   H         4 RES4   0.0000
    91 C39     -0.3206  11.6637  -5.1121   C.ar      4 RES4   0.0000
    92 H30      0.5233  12.2401  -4.7804   H         4 RES4   0.0000
    93 C40     -1.5867  11.0776  -7.0234   C.ar      4 RES4   0.0000
    94 H31     -1.6851  11.1637  -8.0810   H         4 RES4   0.0000
    95 O10     -2.0405  14.3978   6.9754   O.3       5 RES5   0.0000
    96 H32     -2.9075  13.9916   7.2083   H         5 RES5   0.0000
    97 H33     -1.3526  13.7255   7.0935   H         5 RES5   0.0000
    98 O11     -2.4652  15.4292   4.4605   O.3       6 RES6   0.0000
    99 H34     -2.2887  15.0870   5.3628   H         6 RES6   0.0000
   100 H35     -3.3832  15.6719   4.4703   H         6 RES6   0.0000
   101 O12      1.1061  10.4985   5.8565   O.3       7 RES7   0.0000
   102 H36      1.8017  10.7016   5.2561   H         7 RES7   0.0000
   103 H37      0.8042  11.2834   6.3192   H         7 RES7   0.0000
   104 O13     -1.0623   9.9277  -0.8645   O.3       8 RES8   0.0000
   105 H38     -1.6435   9.7462  -1.6126   H         8 RES8   0.0000
   106 H39     -0.1680   9.9322  -1.2205   H         8 RES8   0.0000
   107 O14      8.9951  15.3043   2.1031   O.3       9 RES9   0.0000
   108 H40      8.3919  14.8089   1.5421   H         9 RES9   0.0000
   109 H41      8.5798  15.3453   2.9463   H         9 RES9   0.0000
@<TRIPOS>BOND
     1     1     4    1
     2     2     3    1
     3     4     2    1
     4     5     1    1
     5     6     1    1
     6     7     6    1
     7     8     7    1
     8     9    10    1
     9    11     1    1
    10    12     1    1
    11    13     1    1
    12    14    13    1
    13    15    14    1
    14    16     2    1
    15    17    16    1
    16    18    16    2
    17    19    18    1
    18    20     4    2
    19    21     5   ar
    20    22    21   ar
    21    23    22    1
    22    24    22   ar
    23    25    24    1
    24    26    24   ar
    25    27    26    1
    26    28     5   ar
    27    29     6    2
    28    30    29    1
    29    31    30    1
    30    32     7    1
    31    33    32    1
    32    34     9    1
    33    35    34    1
    34    36    34    2
    35    37    36    1
    36    38    11    2
    37    39    12   ar
    38    40    39   ar
    39    41    40    1
    40    42    40   ar
    41    43    42    1
    42    44    42   ar
    43    45    44    1
    44    46    12   ar
    45    47    13    2
    46    48    47    1
    47    49    48    1
    48    50    14    1
    49    51    50    1
    50     9    11    1
    51    18    20    1
    52    20    21    1
    53    26    28   ar
    54    28    29    1
    55    30    32    2
    56    36    38    1
    57    38    39    1
    58    44    46   ar
    59    46    47    1
    60    48    50    2
    61    52    55    1
    62    53    56    2
    63    54    56    1
    64    56    57    1
    65    57    58   ar
    66    58    59    1
    67    60    57   ar
    68    61    60    1
    69    62    52   ar
    70    63    62    1
    71    64    52   ar
    72    65    64    1
    73    58    64   ar
    74    60    62   ar
    75    66    70    1
    76    67    71    2
    77    68    69    1
    78    71    68    1
    79    72    71    1
    80    73    72   ar
    81    74    73    1
    82    75    72   ar
    83    76    75    1
    84    77    66   ar
    85    78    77    1
    86    79    66   ar
    87    80    79    1
    88    73    79   ar
    89    75    77   ar
    90    81    84    1
    91    82    85    2
    92    83    85    1
    93    85    86    1
    94    86    87   ar
    95    87    88    1
    96    89    86   ar
    97    90    89    1
    98    91    81   ar
    99    92    91    1
   100    93    81   ar
   101    94    93    1
   102    87    93   ar
   103    89    91   ar
   104    95    96    1
   105    97    95    1
   106    98    99    1
   107   100    98    1
   108   101   102    1
   109   103   101    1
   110   104   105    1
   111   106   104    1
   112   107   108    1
   113   109   107    1
@<TRIPOS>SUBSTRUCTURE
     1 RES1        1 GROUP             0 ****  ****    0  
     2 RES2       52 GROUP             0 ****  ****    0  
     3 RES3       66 GROUP             0 ****  ****    0  
     4 RES4       81 GROUP             0 ****  ****    0  
     5 RES5       95 GROUP             0 ****  ****    0  
     6 RES6       98 GROUP             0 ****  ****    0  
     7 RES7      101 GROUP             0 ****  ****    0  
     8 RES8      104 GROUP             0 ****  ****    0  
     9 RES9      107 GROUP             0 ****  ****    0  
@<TRIPOS>CRYSIN
    9.9719   13.5419   17.0957   76.7160   85.8580  110.3860     2     1
