@<TRIPOS>MOLECULE
LASTOR
   119   128     1     0     0
SMALL
NO_CHARGES
****
Generated from the CSD

@<TRIPOS>ATOM
     1 Fe1     20.5119   1.7885   4.3383   Fe        1 RES1   0.0000
     2 O1      21.8452   0.8837   3.2317   O.3       1 RES1   0.0000
     3 O2      22.0508   2.4280   5.3656   O.3       1 RES1   0.0000
     4 N1      20.5704   0.1987   5.3522   N.2       1 RES1   0.0000
     5 N2      20.8043   3.3556   3.3103   N.2       1 RES1   0.0000
     6 N3      19.1068   1.2360   3.1415   N.2       1 RES1   0.0000
     7 N4      18.5319   2.0051   6.4551   N.2       1 RES1   0.0000
     8 N5      19.2735   2.5841   5.5845   N.2       1 RES1   0.0000
     9 N6      18.4385   1.9441   2.3127   N.2       1 RES1   0.0000
    10 C1      24.0859   3.6847   4.9762   C.ar      1 RES1   0.0000
    11 C2      22.4190  -0.0549   3.9369   C.ar      1 RES1   0.0000
    12 C3      18.7118   3.2801   2.1121   C.ar      1 RES1   0.0000
    13 C4      22.7583   3.2532   4.6253   C.ar      1 RES1   0.0000
    14 C5      22.1344   3.7737   3.4523   C.ar      1 RES1   0.0000
    15 C6      19.8640   4.0053   2.5600   C.ar      1 RES1   0.0000
    16 C7      24.7258   4.5075   4.0605   C.ar      1 RES1   0.0000
    17 H1      25.5912   4.7769   4.2627   H         1 RES1   0.0000
    18 C8      18.5728   0.6399   6.6472   C.ar      1 RES1   0.0000
    19 C9      22.4145  -1.3444   6.0223   C.ar      1 RES1   0.0000
    20 H2      22.0160  -1.5517   6.8377   H         1 RES1   0.0000
    21 C10     19.5657  -0.2682   6.1459   C.ar      1 RES1   0.0000
    22 C11     19.9505   5.3449   2.1823   C.ar      1 RES1   0.0000
    23 H3      20.6633   5.8556   2.4898   H         1 RES1   0.0000
    24 C12     24.7327   3.2398   6.2980   C.3       1 RES1   0.0000
    25 C13     22.8585   4.5806   2.5700   C.ar      1 RES1   0.0000
    26 H4      22.4600   4.8646   1.7796   H         1 RES1   0.0000
    27 C14     21.7791  -0.4364   5.1584   C.ar      1 RES1   0.0000
    28 C15     18.3497  -2.0502   7.2906   C.ar      1 RES1   0.0000
    29 H5      18.2586  -2.9546   7.4878   H         1 RES1   0.0000
    30 C16     17.7804   3.9054   1.2399   C.ar      1 RES1   0.0000
    31 H6      17.0517   3.4239   0.9191   H         1 RES1   0.0000
    32 C17     25.0059   5.7727   1.8832   C.3       1 RES1   0.0000
    33 C18     19.0306   4.0151   5.5845   C.ar      1 RES1   0.0000
    34 C19     24.1497  -1.6504   4.4014   C.ar      1 RES1   0.0000
    35 H7      24.9126  -2.1099   4.1391   H         1 RES1   0.0000
    36 C20     24.1770   4.9682   2.8557   C.ar      1 RES1   0.0000
    37 C21     23.6123  -0.7387   3.5141   C.ar      1 RES1   0.0000
    38 C22     23.6168  -1.9368   5.6847   C.ar      1 RES1   0.0000
    39 C23     19.0055   5.9385   1.3635   C.ar      1 RES1   0.0000
    40 H8      19.0852   6.8392   1.1446   H         1 RES1   0.0000
    41 C24     19.5315  -1.1287   2.5967   C.ar      1 RES1   0.0000
    42 H9      20.3809  -0.9056   2.2926   H         1 RES1   0.0000
    43 C25     20.0599   4.9097   5.7984   C.ar      1 RES1   0.0000
    44 H10     20.9161   4.5965   5.9822   H         1 RES1   0.0000
    45 C26     18.6844  -0.1548   3.0813   C.ar      1 RES1   0.0000
    46 C27     24.3865  -2.8498   6.6339   C.3       1 RES1   0.0000
    47 C28     23.8628   3.7408   7.4443   C.3       1 RES1   0.0000
    48 H11     23.8833   4.7001   7.4677   H         1 RES1   0.0000
    49 H12     24.1953   3.3922   8.2748   H         1 RES1   0.0000
    50 H13     22.9587   3.4434   7.3140   H         1 RES1   0.0000
    51 C29     19.3881  -1.6321   6.4885   C.ar      1 RES1   0.0000
    52 H14     19.9893  -2.2635   6.1626   H         1 RES1   0.0000
    53 C30     26.1468   3.8505   6.4868   C.3       1 RES1   0.0000
    54 H15     26.7229   3.5446   5.7833   H         1 RES1   0.0000
    55 H16     26.5021   3.5750   7.3357   H         1 RES1   0.0000
    56 H17     26.0876   4.8086   6.4601   H         1 RES1   0.0000
    57 C31     17.4365  -1.1445   7.8086   C.ar      1 RES1   0.0000
    58 H18     16.7511  -1.4395   8.3634   H         1 RES1   0.0000
    59 C32     17.7485   4.4673   5.3489   C.ar      1 RES1   0.0000
    60 H19     17.0448   3.8712   5.2302   H         1 RES1   0.0000
    61 C33     17.9466   5.2096   0.8689   C.ar      1 RES1   0.0000
    62 H20     17.3454   5.6045   0.2807   H         1 RES1   0.0000
    63 C34     24.8556   1.7077   6.3181   C.3       1 RES1   0.0000
    64 H21     23.9812   1.3152   6.2362   H         1 RES1   0.0000
    65 H22     25.2541   1.4298   7.1469   H         1 RES1   0.0000
    66 H23     25.4044   1.4200   5.5862   H         1 RES1   0.0000
    67 C35     17.4115  -0.5034   3.5175   C.ar      1 RES1   0.0000
    68 H24     16.8399   0.1463   3.8550   H         1 RES1   0.0000
    69 C36     24.2431  -0.4498   2.1389   C.3       1 RES1   0.0000
    70 C37     18.5523   6.7466   5.4792   C.ar      1 RES1   0.0000
    71 H25     18.3907   7.6608   5.4291   H         1 RES1   0.0000
    72 C38     17.5458   0.1694   7.5078   C.ar      1 RES1   0.0000
    73 H26     16.9378   0.7740   7.8687   H         1 RES1   0.0000
    74 C39     17.8464  -2.8071   2.9727   C.ar      1 RES1   0.0000
    75 H27     17.5777  -3.6957   2.9276   H         1 RES1   0.0000
    76 C40     23.2411  -0.7740   1.0394   C.3       1 RES1   0.0000
    77 H28     22.9451  -1.6821   1.1329   H         1 RES1   0.0000
    78 H29     23.6578  -0.6594   0.1821   H         1 RES1   0.0000
    79 H30     22.4874  -0.1828   1.1095   H         1 RES1   0.0000
    80 C41     19.8207   6.2822   5.7416   C.ar      1 RES1   0.0000
    81 H31     20.5176   6.8831   5.8802   H         1 RES1   0.0000
    82 C42     16.9970  -1.8357   3.4489   C.ar      1 RES1   0.0000
    83 H32     16.1408  -2.0673   3.7263   H         1 RES1   0.0000
    84 C43     24.6370   1.0288   2.0537   C.3       1 RES1   0.0000
    85 H33     23.8651   1.5748   2.2107   H         1 RES1   0.0000
    86 H34     24.9877   1.2152   1.1797   H         1 RES1   0.0000
    87 H35     25.3065   1.2201   2.7154   H         1 RES1   0.0000
    88 C44     19.1034  -2.4329   2.5683   C.ar      1 RES1   0.0000
    89 H36     19.6887  -3.0887   2.2642   H         1 RES1   0.0000
    90 C45     25.9305   6.7454   2.5650   C.3       1 RES1   0.0000
    91 H37     25.4158   7.3463   3.1097   H         1 RES1   0.0000
    92 H38     26.4132   7.2464   1.9033   H         1 RES1   0.0000
    93 H39     26.5499   6.2639   3.1181   H         1 RES1   0.0000
    94 C46     17.5344   5.8580   5.2937   C.ar      1 RES1   0.0000
    95 H40     16.6782   6.1786   5.1266   H         1 RES1   0.0000
    96 C47     25.4955  -1.3249   1.8866   C.3       1 RES1   0.0000
    97 H41     26.1582  -1.1360   2.5550   H         1 RES1   0.0000
    98 H42     25.8531  -1.1299   1.0176   H         1 RES1   0.0000
    99 H43     25.2519  -2.2525   1.9317   H         1 RES1   0.0000
   100 C48     25.8622   4.8147   1.0594   C.3       1 RES1   0.0000
   101 H44     26.5544   4.4490   1.6125   H         1 RES1   0.0000
   102 H45     26.2561   5.2900   0.3242   H         1 RES1   0.0000
   103 H46     25.3111   4.1028   0.7235   H         1 RES1   0.0000
   104 C49     24.1338   6.5784   0.9191   C.3       1 RES1   0.0000
   105 H47     23.5030   5.9933   0.4929   H         1 RES1   0.0000
   106 H48     24.6917   6.9892   0.2523   H         1 RES1   0.0000
   107 H49     23.6624   7.2585   1.4053   H         1 RES1   0.0000
   108 C50     23.8696  -2.8339   7.9991   C.3       1 RES1   0.0000
   109 H50     24.2886  -3.5299   8.5087   H         1 RES1   0.0000
   110 H51     22.9200  -2.9766   7.9824   H         1 RES1   0.0000
   111 H52     24.0563  -1.9832   8.4018   H         1 RES1   0.0000
   112 C51     24.2977  -4.2491   6.1292   C.3       1 RES1   0.0000
   113 H53     23.7284  -4.7622   6.7091   H         1 RES1   0.0000
   114 H54     25.1744  -4.6404   6.1142   H         1 RES1   0.0000
   115 H55     23.9334  -4.2466   5.2419   H         1 RES1   0.0000
   116 C52     25.8075  -2.5097   6.6389   C.3       1 RES1   0.0000
   117 H56     25.9077  -1.5565   6.6840   H         1 RES1   0.0000
   118 H57     26.2174  -2.8364   5.8351   H         1 RES1   0.0000
   119 H58     26.2288  -2.9120   7.4009   H         1 RES1   0.0000
@<TRIPOS>BOND
     1     1     2    1
     2     2    11    1
     3     3     1    1
     4     4     1    1
     5     5     1    1
     6     6     1    1
     7     7     8    2
     8     8     1    1
     9     9     6    2
    10    10    13   ar
    11    11    27   ar
    12    12     9    1
    13    13     3    1
    14    14     5    1
    15    15     5    1
    16    16    10   ar
    17    17    16    1
    18    18     7    1
    19    19    20    1
    20    21     4    1
    21    22    15   ar
    22    23    22    1
    23    24    10    1
    24    25    14   ar
    25    26    25    1
    26    27     4    1
    27    28    29    1
    28    30    12   ar
    29    31    30    1
    30    32    36    1
    31    33     8    1
    32    34    35    1
    33    36    16   ar
    34    37    11   ar
    35    38    19   ar
    36    39    22   ar
    37    40    39    1
    38    41    42    1
    39    43    33   ar
    40    44    43    1
    41    45     6    1
    42    46    38    1
    43    47    24    1
    44    48    47    1
    45    49    47    1
    46    50    47    1
    47    51    21   ar
    48    52    51    1
    49    53    24    1
    50    54    53    1
    51    55    53    1
    52    56    53    1
    53    57    28   ar
    54    58    57    1
    55    59    33   ar
    56    60    59    1
    57    61    30   ar
    58    62    61    1
    59    63    24    1
    60    64    63    1
    61    65    63    1
    62    66    63    1
    63    67    45   ar
    64    68    67    1
    65    69    37    1
    66    70    71    1
    67    72    18   ar
    68    73    72    1
    69    74    75    1
    70    76    69    1
    71    77    76    1
    72    78    76    1
    73    79    76    1
    74    80    43   ar
    75    81    80    1
    76    82    67   ar
    77    83    82    1
    78    84    69    1
    79    85    84    1
    80    86    84    1
    81    87    84    1
    82    88    41   ar
    83    89    88    1
    84    90    32    1
    85    91    90    1
    86    92    90    1
    87    93    90    1
    88    94    59   ar
    89    95    94    1
    90    96    69    1
    91    97    96    1
    92    98    96    1
    93    99    96    1
    94   100    32    1
    95   101   100    1
    96   102   100    1
    97   103   100    1
    98   104    32    1
    99   105   104    1
   100   106   104    1
   101   107   104    1
   102   108    46    1
   103   109   108    1
   104   110   108    1
   105   111   108    1
   106   112    46    1
   107   113   112    1
   108   114   112    1
   109   115   112    1
   110   116    46    1
   111   117   116    1
   112   118   116    1
   113   119   116    1
   114    12    15   ar
   115    13    14   ar
   116    18    21   ar
   117    19    27   ar
   118    25    36   ar
   119    28    51   ar
   120    34    37   ar
   121    34    38   ar
   122    39    61   ar
   123    41    45   ar
   124    57    72   ar
   125    70    80   ar
   126    70    94   ar
   127    74    82   ar
   128    74    88   ar
@<TRIPOS>SUBSTRUCTURE
     1 RES1        1 GROUP             0 ****  ****    0  
@<TRIPOS>CRYSIN
   22.7720   12.1890   16.7100   90.0000   90.0000   90.0000    29     1
