@<TRIPOS>MOLECULE
LAWKIH
   119   132     1     0     0
SMALL
NO_CHARGES
****
Generated from the CSD

@<TRIPOS>ATOM
     1 Fe1      5.2200  20.3494  10.9185   Fe        1 RES1   0.0000
     2 N1       3.2681  20.3494  10.9185   N.2       1 RES1   0.0000
     3 N2       5.2200  20.3494   8.9820   N.2       1 RES1   0.0000
     4 C1       2.4455  19.9680   9.8846   C.2       1 RES1   0.0000
     5 C2       4.1947  19.9411   8.1615   C.2       1 RES1   0.0000
     6 C3       1.0643  20.0969  10.2905   C.2       1 RES1   0.0000
     7 H1       0.3007  19.8704   9.7742   H         1 RES1   0.0000
     8 C4       4.6003  20.0776   6.7832   C.2       1 RES1   0.0000
     9 H2       4.0925  19.8331   6.0183   H         1 RES1   0.0000
    10 C5       2.8853  19.6783   8.5875   C.2       1 RES1   0.0000
    11 C6       1.8985  19.3082   7.5300   C.ar      1 RES1   0.0000
    12 C7       0.9358  20.2173   7.1028   C.ar      1 RES1   0.0000
    13 H3       0.8561  21.0564   7.5410   H         1 RES1   0.0000
    14 C8       0.0901  19.9178   6.0456   C.ar      1 RES1   0.0000
    15 H4      -0.5596  20.5541   5.7737   H         1 RES1   0.0000
    16 C9       0.1753  18.7022   5.3774   C.ar      1 RES1   0.0000
    17 C10      1.1343  17.7938   5.8072   C.ar      1 RES1   0.0000
    18 H5       1.2124  16.9563   5.3661   H         1 RES1   0.0000
    19 C11      1.9805  18.0829   6.8682   C.ar      1 RES1   0.0000
    20 H6       2.6225  17.4400   7.1480   H         1 RES1   0.0000
    21 C12     -0.7430  18.3845   4.2183   C.3       1 RES1   0.0000
    22 H7      -1.3475  19.1401   4.0646   H         1 RES1   0.0000
    23 H8      -0.2088  18.2238   3.4124   H         1 RES1   0.0000
    24 H9      -1.2681  17.5842   4.4285   H         1 RES1   0.0000
    25 C13      5.2200  18.2736  10.9185   C.3       1 RES1   0.0000
    26 N3       4.4818  17.4175  11.6848   N.pl3     1 RES1   0.0000
    27 C14      4.7590  16.0947  11.3995   C.2       1 RES1   0.0000
    28 H10      4.3681  15.3330  11.8094   H         1 RES1   0.0000
    29 C15      3.5034  17.7556  12.7123   C.3       1 RES1   0.0000
    30 H11      3.1334  16.9331  13.0935   H         1 RES1   0.0000
    31 H12      3.9394  18.2773  13.4196   H         1 RES1   0.0000
    32 H13      2.7812  18.2843  12.3132   H         1 RES1   0.0000
    33 C2A      6.2453  20.7578   8.1615   C.2       1 RES1   0.0000
    34 C4A      5.8397  20.6213   6.7832   C.2       1 RES1   0.0000
    35 H2A      6.3475  20.8657   6.0183   H         1 RES1   0.0000
    36 C5A      7.5547  21.0206   8.5875   C.2       1 RES1   0.0000
    37 C6A      8.5415  21.3906   7.5300   C.ar      1 RES1   0.0000
    38 C7A      9.5042  20.4815   7.1028   C.ar      1 RES1   0.0000
    39 H3A      9.5839  19.6424   7.5410   H         1 RES1   0.0000
    40 C8A     10.3499  20.7811   6.0456   C.ar      1 RES1   0.0000
    41 H4A     10.9996  20.1448   5.7737   H         1 RES1   0.0000
    42 C9A     10.2647  21.9967   5.3774   C.ar      1 RES1   0.0000
    43 C10A     9.3057  22.9051   5.8072   C.ar      1 RES1   0.0000
    44 H5A      9.2276  23.7426   5.3661   H         1 RES1   0.0000
    45 C11A     8.4595  22.6160   6.8682   C.ar      1 RES1   0.0000
    46 H6A      7.8175  23.2588   7.1480   H         1 RES1   0.0000
    47 C12A    11.1830  22.3144   4.2183   C.3       1 RES1   0.0000
    48 H7A     11.7875  21.5588   4.0646   H         1 RES1   0.0000
    49 H8A     10.6488  22.4751   3.4124   H         1 RES1   0.0000
    50 H9A     11.7081  23.1146   4.4285   H         1 RES1   0.0000
    51 N1A      7.1719  20.3494  10.9185   N.2       1 RES1   0.0000
    52 C1A      7.9945  20.7308   9.8846   C.2       1 RES1   0.0000
    53 C3A      9.3757  20.6020  10.2905   C.2       1 RES1   0.0000
    54 H1A     10.1393  20.8285   9.7742   H         1 RES1   0.0000
    55 N2B      5.2200  20.3494  12.8550   N.2       1 RES1   0.0000
    56 C2C      4.1947  20.7578  13.6755   C.2       1 RES1   0.0000
    57 C4C      4.6003  20.6213  15.0538   C.2       1 RES1   0.0000
    58 H2C      4.0925  20.8657  15.8187   H         1 RES1   0.0000
    59 C5C      2.8853  21.0206  13.2495   C.2       1 RES1   0.0000
    60 C6C      1.8985  21.3906  14.3070   C.ar      1 RES1   0.0000
    61 C7C      0.9358  20.4815  14.7342   C.ar      1 RES1   0.0000
    62 H3C      0.8561  19.6424  14.2960   H         1 RES1   0.0000
    63 C8C      0.0901  20.7811  15.7914   C.ar      1 RES1   0.0000
    64 H4C     -0.5596  20.1448  16.0633   H         1 RES1   0.0000
    65 C9C      0.1753  21.9967  16.4596   C.ar      1 RES1   0.0000
    66 C10C     1.1343  22.9051  16.0298   C.ar      1 RES1   0.0000
    67 H5C      1.2124  23.7426  16.4709   H         1 RES1   0.0000
    68 C11C     1.9805  22.6160  14.9688   C.ar      1 RES1   0.0000
    69 H6C      2.6225  23.2588  14.6890   H         1 RES1   0.0000
    70 C12C    -0.7430  22.3144  17.6187   C.3       1 RES1   0.0000
    71 H7C     -1.3475  21.5588  17.7724   H         1 RES1   0.0000
    72 H8C     -0.2088  22.4751  18.4246   H         1 RES1   0.0000
    73 H9C     -1.2681  23.1146  17.4085   H         1 RES1   0.0000
    74 C1C      2.4455  20.7308  11.9524   C.2       1 RES1   0.0000
    75 C3C      1.0643  20.6020  11.5465   C.2       1 RES1   0.0000
    76 H1C      0.3007  20.8285  12.0628   H         1 RES1   0.0000
    77 C2B      6.2453  19.9411  13.6755   C.2       1 RES1   0.0000
    78 C4B      5.8397  20.0776  15.0538   C.2       1 RES1   0.0000
    79 H2B      6.3475  19.8331  15.8187   H         1 RES1   0.0000
    80 C5B      7.5547  19.6783  13.2495   C.2       1 RES1   0.0000
    81 C6B      8.5415  19.3082  14.3070   C.ar      1 RES1   0.0000
    82 C7B      9.5042  20.2173  14.7342   C.ar      1 RES1   0.0000
    83 H3B      9.5839  21.0564  14.2960   H         1 RES1   0.0000
    84 C8B     10.3499  19.9178  15.7914   C.ar      1 RES1   0.0000
    85 H4B     10.9996  20.5541  16.0633   H         1 RES1   0.0000
    86 C9B     10.2647  18.7022  16.4596   C.ar      1 RES1   0.0000
    87 C10B     9.3057  17.7938  16.0298   C.ar      1 RES1   0.0000
    88 H5B      9.2276  16.9563  16.4709   H         1 RES1   0.0000
    89 C11B     8.4595  18.0829  14.9688   C.ar      1 RES1   0.0000
    90 H6B      7.8175  17.4400  14.6890   H         1 RES1   0.0000
    91 C12B    11.1830  18.3845  17.6187   C.3       1 RES1   0.0000
    92 H7B     11.7875  19.1401  17.7724   H         1 RES1   0.0000
    93 H8B     10.6488  18.2238  18.4246   H         1 RES1   0.0000
    94 H9B     11.7081  17.5842  17.4085   H         1 RES1   0.0000
    95 C1B      7.9945  19.9680  11.9524   C.2       1 RES1   0.0000
    96 C3B      9.3757  20.0969  11.5465   C.2       1 RES1   0.0000
    97 H1B     10.1393  19.8704  12.0628   H         1 RES1   0.0000
    98 N3B      5.9582  17.4175  10.1522   N.pl3     1 RES1   0.0000
    99 C14B     5.6810  16.0947  10.4375   C.2       1 RES1   0.0000
   100 H10B     6.0719  15.3330  10.0276   H         1 RES1   0.0000
   101 C15B     6.9366  17.7556   9.1247   C.3       1 RES1   0.0000
   102 H11B     7.3066  16.9331   8.7435   H         1 RES1   0.0000
   103 H12B     6.5006  18.2773   8.4174   H         1 RES1   0.0000
   104 H13B     7.6588  18.2843   9.5238   H         1 RES1   0.0000
   105 C13A     5.2200  22.4253  10.9185   C.3       1 RES1   0.0000
   106 N3A      5.9582  23.2814  11.6848   N.pl3     1 RES1   0.0000
   107 C14A     5.6810  24.6042  11.3995   C.2       1 RES1   0.0000
   108 H10A     6.0719  25.3659  11.8094   H         1 RES1   0.0000
   109 C15A     6.9366  22.9432  12.7123   C.3       1 RES1   0.0000
   110 H11A     7.3066  23.7658  13.0935   H         1 RES1   0.0000
   111 H12A     6.5006  22.4216  13.4196   H         1 RES1   0.0000
   112 H13A     7.6588  22.4146  12.3132   H         1 RES1   0.0000
   113 N3C      4.4818  23.2814  10.1522   N.pl3     1 RES1   0.0000
   114 C14C     4.7590  24.6042  10.4375   C.2       1 RES1   0.0000
   115 H10C     4.3681  25.3659  10.0276   H         1 RES1   0.0000
   116 C15C     3.5034  22.9432   9.1247   C.3       1 RES1   0.0000
   117 H11C     3.1334  23.7658   8.7435   H         1 RES1   0.0000
   118 H12C     3.9394  22.4216   8.4174   H         1 RES1   0.0000
   119 H13C     2.7812  22.4146   9.5238   H         1 RES1   0.0000
@<TRIPOS>BOND
     1     1     2    1
     2     2     4    1
     3     3     1    1
     4     4     6    1
     5     5     3    2
     6     6     7    1
     7     8     5    1
     8     9     8    1
     9    10     4    2
    10    11    10    1
    11    12    11   ar
    12    13    12    1
    13    14    12   ar
    14    15    14    1
    15    16    14   ar
    16    17    16   ar
    17    18    17    1
    18    19    11   ar
    19    20    19    1
    20    21    16    1
    21    22    21    1
    22    23    21    1
    23    24    21    1
    24    25     1    1
    25    26    25    1
    26    27    26    1
    27    28    27    1
    28    29    26    1
    29    30    29    1
    30    31    29    1
    31    32    29    1
    32    33     3    1
    33    34     8    2
    34    35    34    1
    35    36    33    2
    36    37    36    1
    37    38    37   ar
    38    39    38    1
    39    40    38   ar
    40    41    40    1
    41    42    40   ar
    42    43    42   ar
    43    44    43    1
    44    45    37   ar
    45    46    45    1
    46    47    42    1
    47    48    47    1
    48    49    47    1
    49    50    47    1
    50    51     1    1
    51    52    36    1
    52    53    52    2
    53    54    53    1
    54    55     1    1
    55    56    55    2
    56    57    56    1
    57    58    57    1
    58    59    56    1
    59    60    59    1
    60    61    60   ar
    61    62    61    1
    62    63    61   ar
    63    64    63    1
    64    65    63   ar
    65    66    65   ar
    66    67    66    1
    67    68    60   ar
    68    69    68    1
    69    70    65    1
    70    71    70    1
    71    72    70    1
    72    73    70    1
    73    74     2    1
    74    75     6    2
    75    76    75    1
    76    77    55    1
    77    78    57    2
    78    79    78    1
    79    80    77    2
    80    81    80    1
    81    82    81   ar
    82    83    82    1
    83    84    82   ar
    84    85    84    1
    85    86    84   ar
    86    87    86   ar
    87    88    87    1
    88    89    81   ar
    89    90    89    1
    90    91    86    1
    91    92    91    1
    92    93    91    1
    93    94    91    1
    94    95    51    1
    95    96    53    1
    96    97    96    1
    97    98    25    1
    98    99    27    2
    99   100    99    1
   100   101    98    1
   101   102   101    1
   102   103   101    1
   103   104   101    1
   104   105     1    1
   105   106   105    1
   106   107   106    1
   107   108   107    1
   108   109   106    1
   109   110   109    1
   110   111   109    1
   111   112   109    1
   112   113   105    1
   113   114   107    2
   114   115   114    1
   115   116   113    1
   116   117   116    1
   117   118   116    1
   118   119   116    1
   119     5    10    1
   120    17    19   ar
   121    33    34    1
   122    43    45   ar
   123    51    52    1
   124    59    74    2
   125    66    68   ar
   126    74    75    1
   127    77    78    1
   128    80    95    1
   129    87    89   ar
   130    95    96    2
   131    98    99    1
   132   113   114    1
@<TRIPOS>SUBSTRUCTURE
     1 RES1        1 GROUP             0 ****  ****    0  
