@<TRIPOS>MOLECULE
LEHKAK
   102   108     2     0     0
SMALL
NO_CHARGES
****
Generated from the CSD

@<TRIPOS>ATOM
     1 In1      7.2767   1.4407  12.8054   In        1 RES1   0.0000
     2 Cl1      5.2243   2.2024  11.7792   Cl        1 RES1   0.0000
     3 Cl2      7.6390  -0.8366  12.1725   Cl        1 RES1   0.0000
     4 Fe1      8.1608   2.3773  15.0633   Fe        1 RES1   0.0000
     5 C1       7.2647   3.7399  14.3612   C.1       1 RES1   0.0000
     6 O1       6.6931   4.6381  13.9349   O.2       1 RES1   0.0000
     7 C2       8.2746   2.9369  16.7164   C.1       1 RES1   0.0000
     8 O2       8.3294   3.3070  17.8028   O.2       1 RES1   0.0000
     9 C3       8.7541   0.7054  15.3170   C.1       1 RES1   0.0000
    10 O3       9.1459  -0.3431  15.5130   O.2       1 RES1   0.0000
    11 Si1      6.1332   1.5419  15.7949   Si        1 RES1   0.0000
    12 O4       5.1002   2.7194  16.1594   O.3       1 RES1   0.0000
    13 C4       3.7630   2.6689  16.5341   C.3       1 RES1   0.0000
    14 O5       6.1672   0.4598  17.0258   O.3       1 RES1   0.0000
    15 C5       6.1617   0.6056  18.3873   C.3       1 RES1   0.0000
    16 O6       5.5835   0.5999  14.5675   O.3       1 RES1   0.0000
    17 C6       4.4323  -0.2131  14.5228   C.3       1 RES1   0.0000
    18 P1      10.2049   3.2128  14.5073   P.3       1 RES1   0.0000
    19 C7      11.2257   3.5761  16.0012   C.ar      1 RES1   0.0000
    20 C8      11.4394   2.5702  16.8951   C.ar      1 RES1   0.0000
    21 C9      12.2508   2.7665  18.0091   C.ar      1 RES1   0.0000
    22 C10     12.8361   3.9641  18.2360   C.ar      1 RES1   0.0000
    23 C11     12.6293   4.9700  17.3387   C.ar      1 RES1   0.0000
    24 C12     11.8506   4.7973  16.2453   C.ar      1 RES1   0.0000
    25 C13     10.1120   4.8007  13.5945   C.ar      1 RES1   0.0000
    26 C14      9.5395   5.8952  14.2512   C.ar      1 RES1   0.0000
    27 C15      9.4001   7.1007  13.5979   C.ar      1 RES1   0.0000
    28 C16      9.8156   7.2028  12.2811   C.ar      1 RES1   0.0000
    29 C17     10.3750   6.1273  11.6348   C.ar      1 RES1   0.0000
    30 C18     10.5183   4.9263  12.2949   C.ar      1 RES1   0.0000
    31 C19     11.4316   2.2036  13.5670   C.ar      1 RES1   0.0000
    32 C20     11.1168   0.9431  13.0788   C.ar      1 RES1   0.0000
    33 C21     12.0900   0.1738  12.4840   C.ar      1 RES1   0.0000
    34 C22     13.3790   0.6695  12.3499   C.ar      1 RES1   0.0000
    35 C23     13.6947   1.8952  12.8106   C.ar      1 RES1   0.0000
    36 C24     12.7342   2.6622  13.4260   C.ar      1 RES1   0.0000
    37 P2       8.4515   2.6319   9.6403   P.3       1 RES1   0.0000
    38 O7       8.4419   2.2282  11.0846   O.2       1 RES1   0.0000
    39 C25      7.8838   1.3367   8.5266   C.ar      1 RES1   0.0000
    40 C26      6.8077   0.5439   8.8877   C.ar      1 RES1   0.0000
    41 C27      6.3782  -0.4732   8.0281   C.ar      1 RES1   0.0000
    42 C28      7.0465  -0.7155   6.8419   C.ar      1 RES1   0.0000
    43 C29      8.1097   0.0336   6.4913   C.ar      1 RES1   0.0000
    44 C30      8.5339   1.0866   7.3302   C.ar      1 RES1   0.0000
    45 C31      7.4836   4.1346   9.3106   C.ar      1 RES1   0.0000
    46 C32      7.3741   5.0833  10.3042   C.ar      1 RES1   0.0000
    47 C33      6.7961   6.2899  10.0188   C.ar      1 RES1   0.0000
    48 C34      6.2905   6.5490   8.8120   C.ar      1 RES1   0.0000
    49 C35      6.3595   5.6182   7.8287   C.ar      1 RES1   0.0000
    50 C36      6.9547   4.3768   8.0487   C.ar      1 RES1   0.0000
    51 C37     10.1479   2.9818   9.1077   C.ar      1 RES1   0.0000
    52 C38     11.1377   2.1890   9.5959   C.ar      1 RES1   0.0000
    53 C39     12.4428   2.3381   9.1524   C.ar      1 RES1   0.0000
    54 C40     12.7060   3.3081   8.2035   C.ar      1 RES1   0.0000
    55 C41     11.7421   4.1211   7.7393   C.ar      1 RES1   0.0000
    56 C42     10.4559   3.9765   8.1966   C.ar      1 RES1   0.0000
    57 H1       3.4385   3.5548  16.6785   H         1 RES1   0.0000
    58 H2       3.2507   2.2596  15.8465   H         1 RES1   0.0000
    59 H3       3.6724   2.1688  17.3352   H         1 RES1   0.0000
    60 H4       6.1899  -0.2501  18.7964   H         1 RES1   0.0000
    61 H5       6.9244   1.1079  18.6520   H         1 RES1   0.0000
    62 H6       5.3744   1.0597  18.6520   H         1 RES1   0.0000
    63 H7       4.3773  -0.6414  13.6736   H         1 RES1   0.0000
    64 H8       4.4845  -0.8736  15.2036   H         1 RES1   0.0000
    65 H9       3.6596   0.3196  14.6569   H         1 RES1   0.0000
    66 H10     11.0307   1.7236  16.7542   H         1 RES1   0.0000
    67 H11     12.3945   2.0499  18.6142   H         1 RES1   0.0000
    68 H12     13.3793   4.1010  18.9993   H         1 RES1   0.0000
    69 H13     13.0423   5.8122  17.4831   H         1 RES1   0.0000
    70 H14     11.7274   5.5173  15.6368   H         1 RES1   0.0000
    71 H15      9.2451   5.8066  15.1486   H         1 RES1   0.0000
    72 H16      9.0232   7.8509  14.0449   H         1 RES1   0.0000
    73 H17      9.7117   8.0259  11.8170   H         1 RES1   0.0000
    74 H18     10.6638   6.2114  10.7340   H         1 RES1   0.0000
    75 H19     10.9008   4.1817  11.8445   H         1 RES1   0.0000
    76 H20     10.2283   0.6112  13.1510   H         1 RES1   0.0000
    77 H21     11.8804  -0.6964  12.1642   H         1 RES1   0.0000
    78 H22     14.0449   0.1391  11.9236   H         1 RES1   0.0000
    79 H23     14.5784   2.2260  12.7075   H         1 RES1   0.0000
    80 H24     12.9659   3.5212  13.7561   H         1 RES1   0.0000
    81 H25      6.3624   0.6908   9.7163   H         1 RES1   0.0000
    82 H26      5.6230  -1.0003   8.2653   H         1 RES1   0.0000
    83 H27      6.7544  -1.4152   6.2712   H         1 RES1   0.0000
    84 H28      8.5727  -0.1413   5.6833   H         1 RES1   0.0000
    85 H29      9.2732   1.6260   7.0757   H         1 RES1   0.0000
    86 H30      7.7000   4.9005  11.1775   H         1 RES1   0.0000
    87 H31      6.7521   6.9549  10.6996   H         1 RES1   0.0000
    88 H32      5.8821   7.3900   8.6401   H         1 RES1   0.0000
    89 H33      5.9963   5.8089   6.9760   H         1 RES1   0.0000
    90 H34      6.9962   3.7208   7.3680   H         1 RES1   0.0000
    91 H35     10.9334   1.5273  10.2492   H         1 RES1   0.0000
    92 H36     13.1383   1.7864   9.4893   H         1 RES1   0.0000
    93 H37     13.5907   3.4034   7.8734   H         1 RES1   0.0000
    94 H38     11.9486   4.7906   7.1032   H         1 RES1   0.0000
    95 H39      9.7740   4.5607   7.8906   H         1 RES1   0.0000
    96 C43      3.1101   3.7130  21.5642   C.ar      2 RES2   0.0000
    97 C44      2.5812   4.9600  21.2547   C.ar      2 RES2   0.0000
    98 C45      3.2323   5.7875  20.3918   C.ar      2 RES2   0.0000
    99 C46      4.3800   5.3435  19.7557   C.ar      2 RES2   0.0000
   100 C47      5.0029   4.1783  20.1889   C.ar      2 RES2   0.0000
   101 C48      4.3123   3.3205  20.9900   C.ar      2 RES2   0.0000
   102 Cl3      2.3953   2.5994  22.5819   Cl        2 RES2   0.0000
@<TRIPOS>BOND
     1     1     2    1
     2     3     1    1
     3     4     1    1
     4     5     4    1
     5     6     5    3
     6     7     4    1
     7     8     7    3
     8     9     4    1
     9    10     9    3
    10    11     4    1
    11    12    11    1
    12    13    12    1
    13    14    11    1
    14    15    14    1
    15    16     1    1
    16    17    16    1
    17    18     4    1
    18    19    18    1
    19    20    19   ar
    20    21    20   ar
    21    22    21   ar
    22    23    22   ar
    23    24    19   ar
    24    25    18    1
    25    26    25   ar
    26    27    26   ar
    27    28    27   ar
    28    29    28   ar
    29    30    25   ar
    30    31    18    1
    31    32    31   ar
    32    33    32   ar
    33    34    33   ar
    34    35    34   ar
    35    36    31   ar
    36    37    38    2
    37    38     1    1
    38    39    37    1
    39    40    39   ar
    40    41    40   ar
    41    42    41   ar
    42    43    42   ar
    43    44    39   ar
    44    45    37    1
    45    46    45   ar
    46    47    46   ar
    47    48    47   ar
    48    49    48   ar
    49    50    45   ar
    50    51    37    1
    51    52    51   ar
    52    53    52   ar
    53    54    53   ar
    54    55    54   ar
    55    56    51   ar
    56    57    13    1
    57    58    13    1
    58    59    13    1
    59    60    15    1
    60    61    15    1
    61    62    15    1
    62    63    17    1
    63    64    17    1
    64    65    17    1
    65    66    20    1
    66    67    21    1
    67    68    22    1
    68    69    23    1
    69    70    24    1
    70    71    26    1
    71    72    27    1
    72    73    28    1
    73    74    29    1
    74    75    30    1
    75    76    32    1
    76    77    33    1
    77    78    34    1
    78    79    35    1
    79    80    36    1
    80    81    40    1
    81    82    41    1
    82    83    42    1
    83    84    43    1
    84    85    44    1
    85    86    46    1
    86    87    47    1
    87    88    48    1
    88    89    49    1
    89    90    50    1
    90    91    52    1
    91    92    53    1
    92    93    54    1
    93    94    55    1
    94    95    56    1
    95    11    16    1
    96    23    24   ar
    97    29    30   ar
    98    35    36   ar
    99    43    44   ar
   100    49    50   ar
   101    55    56   ar
   102    96    97   ar
   103    97    98   ar
   104    98    99   ar
   105    99   100   ar
   106   100   101   ar
   107   101    96   ar
   108   102    96    1
@<TRIPOS>SUBSTRUCTURE
     1 RES1        1 GROUP             0 ****  ****    0  
     2 RES2       96 GROUP             0 ****  ****    0  
@<TRIPOS>CRYSIN
   12.5000   11.2140   34.8710   90.0000   99.6100   90.0000    14     1
