@<TRIPOS>MOLECULE
LEHVAZ
   109   121     3     0     0
SMALL
NO_CHARGES
****
Generated from the CSD

@<TRIPOS>ATOM
     1 Fe1      4.7503   8.0127   8.0410   Fe        1 RES1   0.0000
     2 K1       6.4308   5.8110  11.3301   K         1 RES1   0.0000
     3 K2       6.4205   5.8013   4.8121   K         1 RES1   0.0000
     4 S1       6.8253   6.9826   8.0226   S.3       1 RES1   0.0000
     5 S2       5.1925   5.7390   8.0560   S.3       1 RES1   0.0000
     6 O1       1.8383   8.1280   8.0555   O.2       1 RES1   0.0000
     7 O2       5.3998  10.8513   8.0822   O.2       1 RES1   0.0000
     8 O3       8.5722   7.4506  12.5058   O.3       1 RES1   0.0000
     9 O4       6.2887   7.1525  14.1476   O.3       1 RES1   0.0000
    10 O5       4.3040   5.2962  13.3792   O.3       1 RES1   0.0000
    11 O6       5.1139   3.0709  11.9001   O.3       1 RES1   0.0000
    12 O7       7.4260   3.3281  10.3029   O.3       1 RES1   0.0000
    13 O8       9.3581   5.2027  11.0302   O.3       1 RES1   0.0000
    14 O9       9.3939   6.3624   4.2483   O.3       1 RES1   0.0000
    15 O10      8.5599   4.1956   5.8482   O.3       1 RES1   0.0000
    16 O11      6.2674   2.7884   5.1196   O.3       1 RES1   0.0000
    17 O12      4.2876   4.1303   3.6547   O.3       1 RES1   0.0000
    18 O13      5.1692   6.2446   1.9654   O.3       1 RES1   0.0000
    19 O14      7.4627   7.7019   2.7180   O.3       1 RES1   0.0000
    20 N1       4.7640   8.1390  11.1293   N.1       1 RES1   0.0000
    21 N2       4.6188   8.0549   4.9520   N.1       1 RES1   0.0000
    22 C1       2.9894   8.0758   8.0563   C.1       1 RES1   0.0000
    23 C2       5.1505   9.7314   8.0538   C.1       1 RES1   0.0000
    24 C3       4.7650   8.0563   9.9730   C.1       1 RES1   0.0000
    25 C4       4.6961   8.0242   6.1015   C.1       1 RES1   0.0000
    26 C5       8.4126   8.1258  13.7416   C.3       1 RES1   0.0000
    27 H1       8.9138   8.9793  13.7285   H         1 RES1   0.0000
    28 H2       8.7654   7.5681  14.4800   H         1 RES1   0.0000
    29 C6       6.9529   8.3906  13.9508   C.3       1 RES1   0.0000
    30 H3       6.8252   8.9716  14.7419   H         1 RES1   0.0000
    31 H4       6.5772   8.8532  13.1604   H         1 RES1   0.0000
    32 C7       4.9018   7.3540  14.3908   C.3       1 RES1   0.0000
    33 H5       4.4848   7.8100  13.6173   H         1 RES1   0.0000
    34 H6       4.7772   7.9218  15.1922   H         1 RES1   0.0000
    35 C8       4.2609   6.0131  14.6049   C.3       1 RES1   0.0000
    36 H7       4.7477   5.5134  15.3074   H         1 RES1   0.0000
    37 H8       3.3225   6.1292  14.8975   H         1 RES1   0.0000
    38 C9       3.6553   4.0378  13.4816   C.3       1 RES1   0.0000
    39 H9       2.7060   4.1641  13.7337   H         1 RES1   0.0000
    40 H10      4.0924   3.4858  14.1780   H         1 RES1   0.0000
    41 C10      3.7478   3.3569  12.1551   C.3       1 RES1   0.0000
    42 H11      3.2209   2.5190  12.1648   H         1 RES1   0.0000
    43 H12      3.3857   3.9453  11.4451   H         1 RES1   0.0000
    44 C11      5.2909   2.3878  10.6545   C.3       1 RES1   0.0000
    45 H13      4.9636   2.9522   9.9100   H         1 RES1   0.0000
    46 H14      4.7742   1.5434  10.6557   H         1 RES1   0.0000
    47 C12      6.7341   2.0971  10.4727   C.3       1 RES1   0.0000
    48 H15      7.0850   1.6187  11.2650   H         1 RES1   0.0000
    49 H16      6.8658   1.5228   9.6775   H         1 RES1   0.0000
    50 C13      8.8070   3.1265  10.0507   C.3       1 RES1   0.0000
    51 H17      8.9276   2.5483   9.2561   H         1 RES1   0.0000
    52 H18      9.2347   2.6859  10.8271   H         1 RES1   0.0000
    53 C14      9.4278   4.4740   9.8114   C.3       1 RES1   0.0000
    54 H19     10.3709   4.3695   9.5289   H         1 RES1   0.0000
    55 H20      8.9377   4.9537   9.0976   H         1 RES1   0.0000
    56 C15     10.0233   6.4657  10.9343   C.3       1 RES1   0.0000
    57 H21      9.5901   7.0253  10.2415   H         1 RES1   0.0000
    58 H22     10.9706   6.3321  10.6808   H         1 RES1   0.0000
    59 C16      9.9384   7.1337  12.2544   C.3       1 RES1   0.0000
    60 H23     10.2833   6.5337  12.9621   H         1 RES1   0.0000
    61 H24     10.4834   7.9605  12.2526   H         1 RES1   0.0000
    62 C17     10.0023   6.0433   5.5027   C.3       1 RES1   0.0000
    63 H25      9.5292   6.5094   6.2366   H         1 RES1   0.0000
    64 H26     10.9477   6.3379   5.5046   H         1 RES1   0.0000
    65 C18      9.9285   4.5699   5.7050   C.3       1 RES1   0.0000
    66 H27     10.3276   4.1022   4.9289   H         1 RES1   0.0000
    67 H28     10.4355   4.3149   6.5164   H         1 RES1   0.0000
    68 C19      8.4114   2.8103   6.1135   C.3       1 RES1   0.0000
    69 H29      8.9352   2.5584   6.9152   H         1 RES1   0.0000
    70 H30      8.7397   2.2787   5.3453   H         1 RES1   0.0000
    71 C20      6.9522   2.5410   6.3430   C.3       1 RES1   0.0000
    72 H31      6.8187   1.6018   6.6251   H         1 RES1   0.0000
    73 H32      6.6040   3.1348   7.0548   H         1 RES1   0.0000
    74 C21      4.8824   2.4675   5.2288   C.3       1 RES1   0.0000
    75 H33      4.4572   3.0277   5.9258   H         1 RES1   0.0000
    76 H34      4.7717   1.5168   5.4805   H         1 RES1   0.0000
    77 C22      4.2428   2.7263   3.9002   C.3       1 RES1   0.0000
    78 H35      4.7298   2.2408   3.1880   H         1 RES1   0.0000
    79 H36      3.3041   2.4120   3.9076   H         1 RES1   0.0000
    80 C23      3.6670   4.4635   2.4187   C.3       1 RES1   0.0000
    81 H37      2.7118   4.2046   2.4405   H         1 RES1   0.0000
    82 H38      4.1054   3.9735   1.6785   H         1 RES1   0.0000
    83 C24      3.7913   5.9413   2.1969   C.3       1 RES1   0.0000
    84 H39      3.2474   6.2142   1.4158   H         1 RES1   0.0000
    85 H40      3.4642   6.4325   2.9919   H         1 RES1   0.0000
    86 C25      5.3380   7.6210   1.6516   C.3       1 RES1   0.0000
    87 H41      4.9771   8.1829   2.3826   H         1 RES1   0.0000
    88 H42      4.8511   7.8418   0.8183   H         1 RES1   0.0000
    89 C26      6.8076   7.8860   1.4754   C.3       1 RES1   0.0000
    90 H43      7.1830   7.2653   0.8018   H         1 RES1   0.0000
    91 H44      6.9467   8.8127   1.1558   H         1 RES1   0.0000
    92 C27      8.8533   8.0105   2.6429   C.3       1 RES1   0.0000
    93 H45      8.9762   8.9586   2.3872   H         1 RES1   0.0000
    94 H46      9.2891   7.4432   1.9585   H         1 RES1   0.0000
    95 C28      9.4648   7.7576   3.9808   C.3       1 RES1   0.0000
    96 H47     10.4088   8.0564   3.9838   H         1 RES1   0.0000
    97 H48      8.9756   8.2623   4.6782   H         1 RES1   0.0000
    98 N3       9.0219   1.9668  14.9497   N.1       2 RES2   0.0000
    99 C29      8.5175   2.8776  14.5030   C.1       2 RES2   0.0000
   100 C30      7.8472   4.0269  13.9129   C.3       2 RES2   0.0000
   101 H49      8.4025   4.3960  13.1949   H         2 RES2   0.0000
   102 H50      7.7046   4.7104  14.6003   H         2 RES2   0.0000
   103 H51      6.9823   3.7471  13.5460   H         2 RES2   0.0000
   104 N4       9.0511   2.2981   0.8192   N.1       3 RES3   0.0000
   105 C31      8.4833   3.0623   1.4441   C.1       3 RES3   0.0000
   106 C32      7.7585   4.0084   2.2511   C.3       3 RES3   0.0000
   107 H52      8.3749   4.6949   2.5814   H         3 RES3   0.0000
   108 H53      7.3493   3.5437   3.0104   H         3 RES3   0.0000
   109 H54      7.0588   4.4303   1.7101   H         3 RES3   0.0000
@<TRIPOS>BOND
     1     1     4    1
     2     2     4    1
     3     3     4    1
     4     4     5    1
     5     5     1    1
     6     6    22    3
     7     7    23    3
     8     8     2    1
     9     9     2    1
    10    10     2    1
    11    11     2    1
    12    12     2    1
    13    13     2    1
    14    14     3    1
    15    15     3    1
    16    16     3    1
    17    17     3    1
    18    18     3    1
    19    19     3    1
    20    20    24    3
    21    21    25    3
    22    22     1    1
    23    23     1    1
    24    24     1    1
    25    25     1    1
    26    26     8    1
    27    27    26    1
    28    28    26    1
    29    29     9    1
    30    30    29    1
    31    31    29    1
    32    32     9    1
    33    33    32    1
    34    34    32    1
    35    35    10    1
    36    36    35    1
    37    37    35    1
    38    38    10    1
    39    39    38    1
    40    40    38    1
    41    41    11    1
    42    42    41    1
    43    43    41    1
    44    44    11    1
    45    45    44    1
    46    46    44    1
    47    47    12    1
    48    48    47    1
    49    49    47    1
    50    50    12    1
    51    51    50    1
    52    52    50    1
    53    53    13    1
    54    54    53    1
    55    55    53    1
    56    56    13    1
    57    57    56    1
    58    58    56    1
    59    59     8    1
    60    60    59    1
    61    61    59    1
    62    62    14    1
    63    63    62    1
    64    64    62    1
    65    65    15    1
    66    66    65    1
    67    67    65    1
    68    68    15    1
    69    69    68    1
    70    70    68    1
    71    71    16    1
    72    72    71    1
    73    73    71    1
    74    74    16    1
    75    75    74    1
    76    76    74    1
    77    77    17    1
    78    78    77    1
    79    79    77    1
    80    80    17    1
    81    81    80    1
    82    82    80    1
    83    83    18    1
    84    84    83    1
    85    85    83    1
    86    86    18    1
    87    87    86    1
    88    88    86    1
    89    89    19    1
    90    90    89    1
    91    91    89    1
    92    92    19    1
    93    93    92    1
    94    94    92    1
    95    95    14    1
    96    96    95    1
    97    97    95    1
    98     2     5    1
    99     3     5    1
   100    26    29    1
   101    32    35    1
   102    38    41    1
   103    44    47    1
   104    50    53    1
   105    56    59    1
   106    62    65    1
   107    68    71    1
   108    74    77    1
   109    80    83    1
   110    86    89    1
   111    92    95    1
   112    98    99    3
   113    99   100    1
   114   100   101    1
   115   102   100    1
   116   103   100    1
   117   104   105    3
   118   105   106    1
   119   106   107    1
   120   108   106    1
   121   109   106    1
@<TRIPOS>SUBSTRUCTURE
     1 RES1        1 GROUP             0 ****  ****    0  
     2 RES2       98 GROUP             0 ****  ****    0  
     3 RES3      104 GROUP             0 ****  ****    0  
@<TRIPOS>CRYSIN
    8.4853    8.5289   16.0766   78.4935   87.4017   75.0264     1     1
