@<TRIPOS>MOLECULE
LEKZAG
   144   150     6     0     0
SMALL
USER_CHARGES
****
Generated from the CSD

@<TRIPOS>ATOM
     1 Fe1     11.4821  10.8614   4.3238   Fe        1 RES1   2.0000
     2 N1      11.6812   9.7576   2.6499   N.ar      1 RES1   0.0000
     3 N2      10.7248  12.4077   6.8915   N.pl3     1 RES1   0.0000
     4 N3      12.7720  12.3550   6.2564   N.pl3     1 RES1   0.0000
     5 N4      11.8351   8.0897   4.1997   N.pl3     1 RES1   0.0000
     6 N5       9.5173  10.6035   4.1688   N.ar      1 RES1   0.0000
     7 N6      13.4288  11.1777   4.4331   N.ar      1 RES1   0.0000
     8 N7       9.7063  12.5264   2.9709   N.pl3     1 RES1   0.0000
     9 N8      11.8288   8.4793   6.2936   N.pl3     1 RES1   0.0000
    10 N9      11.5512  13.5723   2.7481   N.pl3     1 RES1   0.0000
    11 C1       8.7812   9.5776   4.6503   C.ar      1 RES1   0.0000
    12 H1       9.2207   8.9316   5.1901   H         1 RES1   0.0000
    13 C2       8.8585  11.5047   3.4043   C.ar      1 RES1   0.0000
    14 C3      15.7367  10.9505   3.7759   C.ar      1 RES1   0.0000
    15 C4      14.3920  10.6818   3.6274   C.ar      1 RES1   0.0000
    16 H2      14.1275  10.1130   2.9142   H         1 RES1   0.0000
    17 C5      11.7254   9.1111   5.1106   C.3       1 RES1   0.0000
    18 C6      11.0299  12.4706   3.3064   C.3       1 RES1   0.0000
    19 C7       6.7765   6.9960   4.3355   C.ar      1 RES1   0.0000
    20 C8      11.8212   8.4245   2.8375   C.ar      1 RES1   0.0000
    21 C9      11.7543  10.2074   1.3793   C.ar      1 RES1   0.0000
    22 H3      11.6462  11.1383   1.2281   H         1 RES1   0.0000
    23 C10     11.9794   9.3906   0.2822   C.ar      1 RES1   0.0000
    24 C11     11.5119  11.8955   5.9211   C.3       1 RES1   0.0000
    25 C12      7.4331   9.4054   4.4110   C.ar      1 RES1   0.0000
    26 C13     13.8426  11.9694   5.4516   C.ar      1 RES1   0.0000
    27 C14      6.7039   8.2405   4.9823   C.ar      1 RES1   0.0000
    28 C15      6.0720   5.9184   4.8541   C.ar      1 RES1   0.0000
    29 H4       6.1041   5.0846   4.4007   H         1 RES1   0.0000
    30 C16     16.1175  11.8144   4.7991   C.ar      1 RES1   0.0000
    31 H5      17.0308  12.0507   4.9088   H         1 RES1   0.0000
    32 C17      6.8021  10.3651   3.6098   C.ar      1 RES1   0.0000
    33 H6       5.8743  10.2908   3.4225   H         1 RES1   0.0000
    34 C18     12.7525  13.1188   7.4255   C.2       1 RES1   0.0000
    35 H7      13.4927  13.5303   7.8555   H         1 RES1   0.0000
    36 C19     16.7168  10.3103   2.8352   C.ar      1 RES1   0.0000
    37 C20     17.0372   8.9526   2.9660   C.ar      1 RES1   0.0000
    38 C21     15.1621  12.3263   5.6535   C.ar      1 RES1   0.0000
    39 H8      15.4053  12.9086   6.3630   H         1 RES1   0.0000
    40 C22      7.5204  11.4065   3.0978   C.ar      1 RES1   0.0000
    41 H9       7.1029  12.0531   2.5399   H         1 RES1   0.0000
    42 C23     17.2888  11.0689   1.7989   C.ar      1 RES1   0.0000
    43 C24     11.4743  13.1469   7.8122   C.2       1 RES1   0.0000
    44 H10     11.1328  13.5911   8.5793   H         1 RES1   0.0000
    45 C25      5.9541   8.3772   6.1626   C.ar      1 RES1   0.0000
    46 C26     12.2190  10.0145  -1.0578   C.ar      1 RES1   0.0000
    47 C27     18.1680  10.4497   0.9294   C.ar      1 RES1   0.0000
    48 H11     18.5500  10.9587   0.2236   H         1 RES1   0.0000
    49 C28     12.0086   7.1106   6.1271   C.2       1 RES1   0.0000
    50 H12     12.1083   6.4709   6.8218   H         1 RES1   0.0000
    51 C29      9.2915  12.2008   7.0093   C.3       1 RES1   0.0000
    52 H13      8.8336  12.6621   6.2754   H         1 RES1   0.0000
    53 H14      8.9786  12.5585   7.8658   H         1 RES1   0.0000
    54 H15      9.0952  11.2414   6.9642   H         1 RES1   0.0000
    55 C30      5.3174   6.0274   6.0232   C.ar      1 RES1   0.0000
    56 C31     11.9823   7.5223   1.7980   C.ar      1 RES1   0.0000
    57 H16     12.0367   6.5889   1.9644   H         1 RES1   0.0000
    58 C32     13.5441  10.2574  -1.4444   C.ar      1 RES1   0.0000
    59 C33     10.5788  14.3021   2.0775   C.2       1 RES1   0.0000
    60 H17     10.7147  15.1141   1.6052   H         1 RES1   0.0000
    61 C34     17.9359   8.3853   2.0748   C.ar      1 RES1   0.0000
    62 H18     18.1609   7.4673   2.1714   H         1 RES1   0.0000
    63 C35     11.7386   9.1463   7.5978   C.3       1 RES1   0.0000
    64 H19     12.3734   9.8922   7.6278   H         1 RES1   0.0000
    65 H20     11.9539   8.5054   8.3076   H         1 RES1   0.0000
    66 H21     10.8289   9.4855   7.7290   H         1 RES1   0.0000
    67 C36     12.0158   6.8539   4.8089   C.2       1 RES1   0.0000
    68 H22     12.1230   6.0097   4.3859   H         1 RES1   0.0000
    69 C37     12.0611   8.0207   0.5135   C.ar      1 RES1   0.0000
    70 H23     12.1705   7.4246  -0.2181   H         1 RES1   0.0000
    71 C38     12.9502  13.9913   2.8002   C.3       1 RES1   0.0000
    72 H24     13.1669  14.2937   3.7072   H         1 RES1   0.0000
    73 H25     13.0956  14.7250   2.1677   H         1 RES1   0.0000
    74 H26     13.5268  13.2352   2.5621   H         1 RES1   0.0000
    75 C39      5.2873   7.2588   6.6615   C.ar      1 RES1   0.0000
    76 H27      4.7930   7.3428   7.4686   H         1 RES1   0.0000
    77 C40     16.4349   8.0989   4.0598   C.3       1 RES1   0.0000
    78 H28     16.5698   8.5354   4.9267   H         1 RES1   0.0000
    79 H29     16.8690   7.2206   4.0647   H         1 RES1   0.0000
    80 H30     15.4747   7.9879   3.8961   H         1 RES1   0.0000
    81 C41      9.4163  13.6572   2.2165   C.2       1 RES1   0.0000
    82 H31      8.5701  13.9171   1.8718   H         1 RES1   0.0000
    83 C42     18.5125   9.1121   1.0519   C.ar      1 RES1   0.0000
    84 C43     13.7780  10.8708  -2.6685   C.ar      1 RES1   0.0000
    85 H32     14.6746  11.0216  -2.9435   H         1 RES1   0.0000
    86 C44     11.1489  10.4115  -1.8639   C.ar      1 RES1   0.0000
    87 C45      7.6103   6.8196   3.0862   C.3       1 RES1   0.0000
    88 H33      7.3767   7.5148   2.4368   H         1 RES1   0.0000
    89 H34      7.4328   5.9369   2.6979   H         1 RES1   0.0000
    90 H35      8.5604   6.8906   3.3144   H         1 RES1   0.0000
    91 C46      9.7277  10.2359  -1.4191   C.3       1 RES1   0.0000
    92 H36      9.5520   9.2859  -1.2514   H         1 RES1   0.0000
    93 H37      9.1233  10.5596  -2.1202   H         1 RES1   0.0000
    94 H38      9.5765  10.7460  -0.5967   H         1 RES1   0.0000
    95 C47     14.7066   9.9295  -0.5238   C.3       1 RES1   0.0000
    96 H39     14.6241  10.4482   0.3034   H         1 RES1   0.0000
    97 H40     15.5493  10.1552  -0.9692   H         1 RES1   0.0000
    98 H41     14.6947   8.9725  -0.3119   H         1 RES1   0.0000
    99 C48     12.7458  11.2704  -3.5010   C.ar      1 RES1   0.0000
   100 C49      5.8701   9.6948   6.8864   C.3       1 RES1   0.0000
   101 H42      5.2955  10.3084   6.3822   H         1 RES1   0.0000
   102 H43      6.7672  10.0804   6.9680   H         1 RES1   0.0000
   103 H44      5.4924   9.5537   7.7795   H         1 RES1   0.0000
   104 C50     16.9302  12.5290   1.6166   C.3       1 RES1   0.0000
   105 H45     15.9567  12.6207   1.5512   H         1 RES1   0.0000
   106 H46     17.3462  12.8687   0.7971   H         1 RES1   0.0000
   107 H47     17.2553  13.0442   2.3852   H         1 RES1   0.0000
   108 C51     11.4447  11.0365  -3.0899   C.ar      1 RES1   0.0000
   109 H48     10.7293  11.3078  -3.6529   H         1 RES1   0.0000
   110 C52     19.5005   8.4964   0.0922   C.3       1 RES1   0.0000
   111 H49     19.2177   8.6768  -0.8285   H         1 RES1   0.0000
   112 H50     19.5397   7.5286   0.2388   H         1 RES1   0.0000
   113 H51     20.3877   8.8858   0.2432   H         1 RES1   0.0000
   114 C53      4.5675   4.8356   6.5572   C.3       1 RES1   0.0000
   115 H52      4.4006   4.9561   7.5160   H         1 RES1   0.0000
   116 H53      5.1000   4.0243   6.4188   H         1 RES1   0.0000
   117 H54      3.7125   4.7490   6.0861   H         1 RES1   0.0000
   118 C54     13.0511  11.9904  -4.7987   C.3       1 RES1   0.0000
   119 H55     13.0746  12.9570  -4.6374   H         1 RES1   0.0000
   120 H56     12.3562  11.7855  -5.4575   H         1 RES1   0.0000
   121 H57     13.9219  11.6953  -5.1388   H         1 RES1   0.0000
   122 P1       9.9576  14.7856  -5.2959   P.3       2 RES2  -1.0000
   123 F1      11.4495  14.7595  -5.8391   F         2 RES2   0.0000
   124 F2       9.8109  13.2237  -5.5673   F         2 RES2   0.0000
   125 F3       8.4425  14.8239  -4.7640   F         2 RES2   0.0000
   126 F4       9.4193  15.0645  -6.7639   F         2 RES2   0.0000
   127 F5      10.0995  16.3371  -5.0295   F         2 RES2   0.0000
   128 F6      10.4981  14.4808  -3.8303   F         2 RES2   0.0000
   129 P2      10.2117  11.1918  11.2504   P.3       3 RES3  -1.0000
   130 F7       9.9574   9.7560  11.9055   F         3 RES3   0.0000
   131 F8       9.3008  11.8583  12.3826   F         3 RES3   0.0000
   132 F9       8.9248  10.9848  10.3195   F         3 RES3   0.0000
   133 F10     11.4862  11.3859  12.2016   F         3 RES3   0.0000
   134 F11     10.4195  12.6327  10.6059   F         3 RES3   0.0000
   135 F12     11.1299  10.5341  10.1451   F         3 RES3   0.0000
   136 O1       7.3150  12.6410  -0.3804   O.3       4 RES4   0.0000
   137 H58      7.9424  13.0937  -0.7794   H         4 RES4   0.0000
   138 H59      6.7759  13.2466  -0.0660   H         4 RES4   0.0000
   139 O2       9.4542  14.2771  -1.1931   O.3       5 RES5   0.0000
   140 H60      9.5525  14.3136  -2.0567   H         5 RES5   0.0000
   141 H61     10.2083  13.9543  -0.9018   H         5 RES5   0.0000
   142 O3      12.1740  13.1885  -0.2824   O.3       6 RES6   0.0000
   143 H62     12.8857  13.2541   0.2134   H         6 RES6   0.0000
   144 H63     12.4621  12.8558  -1.0334   H         6 RES6   0.0000
@<TRIPOS>BOND
     1     1     2    1
     2     2    20   ar
     3     3    24    1
     4     4    24    1
     5     5    17    1
     6     6     1    1
     7     7     1    1
     8     8    13    1
     9     9    17    1
    10    10    18    1
    11    11     6   ar
    12    12    11    1
    13    13     6   ar
    14    14    15   ar
    15    15     7   ar
    16    16    15    1
    17    17     1    1
    18    18     1    1
    19    19    27   ar
    20    20     5    1
    21    21     2   ar
    22    22    21    1
    23    23    21   ar
    24    24     1    1
    25    25    11   ar
    26    26     4    1
    27    27    25    1
    28    28    19   ar
    29    29    28    1
    30    30    14   ar
    31    31    30    1
    32    32    25   ar
    33    33    32    1
    34    34     4    1
    35    35    34    1
    36    36    14    1
    37    37    36   ar
    38    38    26   ar
    39    39    38    1
    40    40    13   ar
    41    41    40    1
    42    42    36   ar
    43    43     3    1
    44    44    43    1
    45    45    27   ar
    46    46    23    1
    47    47    42   ar
    48    48    47    1
    49    49     9    1
    50    50    49    1
    51    51     3    1
    52    52    51    1
    53    53    51    1
    54    54    51    1
    55    55    28   ar
    56    56    20   ar
    57    57    56    1
    58    58    46   ar
    59    59    10    1
    60    60    59    1
    61    61    37   ar
    62    62    61    1
    63    63     9    1
    64    64    63    1
    65    65    63    1
    66    66    63    1
    67    67     5    1
    68    68    67    1
    69    69    23   ar
    70    70    69    1
    71    71    10    1
    72    72    71    1
    73    73    71    1
    74    74    71    1
    75    75    45   ar
    76    76    75    1
    77    77    37    1
    78    78    77    1
    79    79    77    1
    80    80    77    1
    81    81     8    1
    82    82    81    1
    83    83    47   ar
    84    84    58   ar
    85    85    84    1
    86    86    46   ar
    87    87    19    1
    88    88    87    1
    89    89    87    1
    90    90    87    1
    91    91    86    1
    92    92    91    1
    93    93    91    1
    94    94    91    1
    95    95    58    1
    96    96    95    1
    97    97    95    1
    98    98    95    1
    99    99    84   ar
   100   100    45    1
   101   101   100    1
   102   102   100    1
   103   103   100    1
   104   104    42    1
   105   105   104    1
   106   106   104    1
   107   107   104    1
   108   108    86   ar
   109   109   108    1
   110   110    83    1
   111   111   110    1
   112   112   110    1
   113   113   110    1
   114   114    55    1
   115   115   114    1
   116   116   114    1
   117   117   114    1
   118   118    99    1
   119   119   118    1
   120   120   118    1
   121   121   118    1
   122     7    26   ar
   123     8    18    1
   124    30    38   ar
   125    32    40   ar
   126    34    43    2
   127    49    67    2
   128    55    75   ar
   129    56    69   ar
   130    59    81    2
   131    61    83   ar
   132    99   108   ar
   133   122   123    1
   134   124   122    1
   135   125   122    1
   136   126   122    1
   137   127   122    1
   138   128   122    1
   139   129   130    1
   140   131   129    1
   141   132   129    1
   142   133   129    1
   143   134   129    1
   144   135   129    1
   145   136   137    1
   146   138   136    1
   147   139   140    1
   148   141   139    1
   149   142   143    1
   150   144   142    1
@<TRIPOS>SUBSTRUCTURE
     1 RES1        1 GROUP             0 ****  ****    0  
     2 RES2      122 GROUP             0 ****  ****    0  
     3 RES3      129 GROUP             0 ****  ****    0  
     4 RES4      136 GROUP             0 ****  ****    0  
     5 RES5      139 GROUP             0 ****  ****    0  
     6 RES6      142 GROUP             0 ****  ****    0  
@<TRIPOS>CRYSIN
   13.7392   14.5195   15.7361   88.1270   68.3960   86.2090     2     1
