@<TRIPOS>MOLECULE
LENGOE
   112   129     1     0     0
SMALL
NO_CHARGES
****
Generated from the CSD

@<TRIPOS>ATOM
     1 Fe1      2.7046   8.1008   8.3760   Fe        1 RES1   0.0000
     2 K1       3.3008   5.3378  11.3663   K         1 RES1   0.0000
     3 S1       1.2235   7.8247  10.0972   S.3       1 RES1   0.0000
     4 S2       3.5097   5.9639   8.1718   S.3       1 RES1   0.0000
     5 S3       4.3245   8.4555   9.9888   S.3       1 RES1   0.0000
     6 S4       1.9487  10.2482   8.1592   S.3       1 RES1   0.0000
     7 P1       1.0141   7.4350   7.1344   P.3       1 RES1   0.0000
     8 P2       4.3199   8.6753   6.9784   P.3       1 RES1   0.0000
     9 O1       5.6343   3.5500  10.9960   O.3       1 RES1   0.0000
    10 O2       5.8796   5.8910  12.4490   O.3       1 RES1   0.0000
    11 O3       3.6692   6.6637  13.9307   O.3       1 RES1   0.0000
    12 O4       1.1354   5.8302  13.0325   O.3       1 RES1   0.0000
    13 O5       0.7832   3.6412  11.4409   O.3       1 RES1   0.0000
    14 O6       3.0931   2.7522  10.1522   O.3       1 RES1   0.0000
    15 C1      -0.5353   7.7942   7.9879   C.ar      1 RES1   0.0000
    16 C2      -1.8017   7.8284   7.4084   C.ar      1 RES1   0.0000
    17 H1      -1.8925   7.7751   6.4643   H         1 RES1   0.0000
    18 C3      -2.9304   7.9402   8.2065   C.ar      1 RES1   0.0000
    19 H2      -3.7951   7.9572   7.8133   H         1 RES1   0.0000
    20 C4      -2.7858   8.0281   9.5926   C.ar      1 RES1   0.0000
    21 H3      -3.5591   8.0975  10.1399   H         1 RES1   0.0000
    22 C5      -1.5360   8.0152  10.1799   C.ar      1 RES1   0.0000
    23 H4      -1.4543   8.0937  11.1232   H         1 RES1   0.0000
    24 C6      -0.3855   7.8864   9.3843   C.ar      1 RES1   0.0000
    25 C7       1.0535   5.6209   7.0055   C.ar      1 RES1   0.0000
    26 C8       0.0088   4.8515   6.4837   C.ar      1 RES1   0.0000
    27 H5      -0.8209   5.2614   6.2686   H         1 RES1   0.0000
    28 C9       0.1825   3.4922   6.2804   C.ar      1 RES1   0.0000
    29 H6      -0.5277   2.9633   5.9360   H         1 RES1   0.0000
    30 C10      1.4138   2.9078   6.5876   C.ar      1 RES1   0.0000
    31 H7       1.5503   1.9848   6.4088   H         1 RES1   0.0000
    32 C11      2.4332   3.6474   7.1452   C.ar      1 RES1   0.0000
    33 H8       3.2573   3.2291   7.3649   H         1 RES1   0.0000
    34 C12      2.2553   5.0247   7.3909   C.ar      1 RES1   0.0000
    35 C13      0.8286   7.9550   5.3935   C.ar      1 RES1   0.0000
    36 C14      0.5287   9.2797   5.0724   C.ar      1 RES1   0.0000
    37 H9       0.3405   9.9017   5.7654   H         1 RES1   0.0000
    38 C15      0.5029   9.6963   3.7460   C.ar      1 RES1   0.0000
    39 H10      0.3135  10.6041   3.5395   H         1 RES1   0.0000
    40 C16      0.7517   8.7962   2.7253   C.ar      1 RES1   0.0000
    41 H11      0.7116   9.0820   1.8201   H         1 RES1   0.0000
    42 C17      1.0581   7.4841   3.0208   C.ar      1 RES1   0.0000
    43 H12      1.2334   6.8679   2.3193   H         1 RES1   0.0000
    44 C18      1.1105   7.0626   4.3460   C.ar      1 RES1   0.0000
    45 H13      1.3394   6.1622   4.5441   H         1 RES1   0.0000
    46 C19      5.9039   8.2462   7.7519   C.ar      1 RES1   0.0000
    47 C20      7.1075   8.0411   7.0841   C.ar      1 RES1   0.0000
    48 H14      7.1342   8.0880   6.1356   H         1 RES1   0.0000
    49 C21      8.2679   7.7689   7.7929   C.ar      1 RES1   0.0000
    50 H15      9.0894   7.6359   7.3348   H         1 RES1   0.0000
    51 C22      8.2175   7.6928   9.1790   C.ar      1 RES1   0.0000
    52 H16      9.0108   7.5059   9.6670   H         1 RES1   0.0000
    53 C23      7.0262   7.8855   9.8594   C.ar      1 RES1   0.0000
    54 H17      7.0082   7.8288  10.8075   H         1 RES1   0.0000
    55 C24      5.8445   8.1642   9.1524   C.ar      1 RES1   0.0000
    56 C25      4.3230  10.4819   6.7902   C.ar      1 RES1   0.0000
    57 C26      5.3377  11.2094   6.1752   C.ar      1 RES1   0.0000
    58 H18      6.1171  10.7613   5.8681   H         1 RES1   0.0000
    59 C27      5.2232  12.5842   6.0050   C.ar      1 RES1   0.0000
    60 H19      5.9198  13.0787   5.5894   H         1 RES1   0.0000
    61 C28      4.0715  13.2246   6.4537   C.ar      1 RES1   0.0000
    62 H20      3.9766  14.1607   6.3229   H         1 RES1   0.0000
    63 C29      3.0631  12.5203   7.0868   C.ar      1 RES1   0.0000
    64 H21      2.2880  12.9759   7.3933   H         1 RES1   0.0000
    65 C30      3.1818  11.1285   7.2786   C.ar      1 RES1   0.0000
    66 C31      4.4266   8.0528   5.2635   C.ar      1 RES1   0.0000
    67 C32      4.7194   6.7081   5.0278   C.ar      1 RES1   0.0000
    68 H22      4.9154   6.1324   5.7578   H         1 RES1   0.0000
    69 C33      4.7257   6.2053   3.7275   C.ar      1 RES1   0.0000
    70 H23      4.9049   5.2842   3.5786   H         1 RES1   0.0000
    71 C34      4.4739   7.0352   2.6565   C.ar      1 RES1   0.0000
    72 H24      4.5073   6.6949   1.7703   H         1 RES1   0.0000
    73 C35      4.1723   8.3661   2.8792   C.ar      1 RES1   0.0000
    74 H25      3.9918   8.9386   2.1428   H         1 RES1   0.0000
    75 C36      4.1309   8.8742   4.1776   C.ar      1 RES1   0.0000
    76 H26      3.9001   9.7844   4.3223   H         1 RES1   0.0000
    77 C37      6.8229   4.3158  10.9512   C.3       1 RES1   0.0000
    78 H27      6.7704   4.9800  10.2189   H         1 RES1   0.0000
    79 H28      7.5997   3.7260  10.7824   H         1 RES1   0.0000
    80 C38      6.9868   5.0177  12.2714   C.3       1 RES1   0.0000
    81 H29      7.0185   4.3553  13.0066   H         1 RES1   0.0000
    82 H30      7.8315   5.5339  12.2792   H         1 RES1   0.0000
    83 C39      6.0180   6.7045  13.5998   C.3       1 RES1   0.0000
    84 H31      6.8099   7.2912  13.5057   H         1 RES1   0.0000
    85 H32      6.1440   6.1374  14.4014   H         1 RES1   0.0000
    86 C40      4.7805   7.5364  13.7513   C.3       1 RES1   0.0000
    87 H33      4.8695   8.1364  14.5337   H         1 RES1   0.0000
    88 H34      4.6464   8.0939  12.9443   H         1 RES1   0.0000
    89 C41      2.4733   7.3884  14.1948   C.3       1 RES1   0.0000
    90 H35      2.3043   8.0338  13.4635   H         1 RES1   0.0000
    91 H36      2.5687   7.8955  15.0398   H         1 RES1   0.0000
    92 C42      1.3297   6.4380  14.3032   C.3       1 RES1   0.0000
    93 H37      1.5262   5.7465  14.9840   H         1 RES1   0.0000
    94 H38      0.5107   6.9221  14.5769   H         1 RES1   0.0000
    95 C43     -0.1520   5.2524  12.8948   C.3       1 RES1   0.0000
    96 H39     -0.8484   5.9500  12.9882   H         1 RES1   0.0000
    97 H40     -0.2954   4.5720  13.5995   H         1 RES1   0.0000
    98 C44     -0.2411   4.6171  11.5432   C.3       1 RES1   0.0000
    99 H41     -1.1274   4.1920  11.4261   H         1 RES1   0.0000
   100 H42     -0.1279   5.3027  10.8381   H         1 RES1   0.0000
   101 C45      0.7331   2.9226  10.2155   C.3       1 RES1   0.0000
   102 H43      0.7736   3.5512   9.4517   H         1 RES1   0.0000
   103 H44     -0.1132   2.4124  10.1556   H         1 RES1   0.0000
   104 C46      1.8985   1.9882  10.1723   C.3       1 RES1   0.0000
   105 H45      1.8880   1.3983  10.9671   H         1 RES1   0.0000
   106 H46      1.8466   1.4210   9.3626   H         1 RES1   0.0000
   107 C47      4.2424   1.9246   9.9672   C.3       1 RES1   0.0000
   108 H47      4.1219   1.3575   9.1646   H         1 RES1   0.0000
   109 H48      4.3589   1.3316  10.7513   H         1 RES1   0.0000
   110 C48      5.4496   2.7873   9.8008   C.3       1 RES1   0.0000
   111 H49      6.2466   2.2245   9.6323   H         1 RES1   0.0000
   112 H50      5.3277   3.3940   9.0280   H         1 RES1   0.0000
@<TRIPOS>BOND
     1     1     3    1
     2     2     3    1
     3     3    24    1
     4     4     1    1
     5     5     1    1
     6     6     1    1
     7     7     1    1
     8     8     1    1
     9     9     2    1
    10    10     2    1
    11    11     2    1
    12    12     2    1
    13    13     2    1
    14    14     2    1
    15    15     7    1
    16    16    15   ar
    17    17    16    1
    18    18    16   ar
    19    19    18    1
    20    20    18   ar
    21    21    20    1
    22    22    20   ar
    23    23    22    1
    24    24    15   ar
    25    25     7    1
    26    26    25   ar
    27    27    26    1
    28    28    26   ar
    29    29    28    1
    30    30    28   ar
    31    31    30    1
    32    32    30   ar
    33    33    32    1
    34    34     4    1
    35    35     7    1
    36    36    35   ar
    37    37    36    1
    38    38    36   ar
    39    39    38    1
    40    40    38   ar
    41    41    40    1
    42    42    40   ar
    43    43    42    1
    44    44    35   ar
    45    45    44    1
    46    46     8    1
    47    47    46   ar
    48    48    47    1
    49    49    47   ar
    50    50    49    1
    51    51    49   ar
    52    52    51    1
    53    53    51   ar
    54    54    53    1
    55    55     5    1
    56    56     8    1
    57    57    56   ar
    58    58    57    1
    59    59    57   ar
    60    60    59    1
    61    61    59   ar
    62    62    61    1
    63    63    61   ar
    64    64    63    1
    65    65     6    1
    66    66     8    1
    67    67    66   ar
    68    68    67    1
    69    69    67   ar
    70    70    69    1
    71    71    69   ar
    72    72    71    1
    73    73    71   ar
    74    74    73    1
    75    75    66   ar
    76    76    75    1
    77    77     9    1
    78    78    77    1
    79    79    77    1
    80    80    10    1
    81    81    80    1
    82    82    80    1
    83    83    10    1
    84    84    83    1
    85    85    83    1
    86    86    11    1
    87    87    86    1
    88    88    86    1
    89    89    11    1
    90    90    89    1
    91    91    89    1
    92    92    12    1
    93    93    92    1
    94    94    92    1
    95    95    12    1
    96    96    95    1
    97    97    95    1
    98    98    13    1
    99    99    98    1
   100   100    98    1
   101   101    13    1
   102   102   101    1
   103   103   101    1
   104   104    14    1
   105   105   104    1
   106   106   104    1
   107   107    14    1
   108   108   107    1
   109   109   107    1
   110   110     9    1
   111   111   110    1
   112   112   110    1
   113     2     4    1
   114     2     5    1
   115    22    24   ar
   116    25    34   ar
   117    32    34   ar
   118    42    44   ar
   119    46    55   ar
   120    53    55   ar
   121    56    65   ar
   122    63    65   ar
   123    73    75   ar
   124    77    80    1
   125    83    86    1
   126    89    92    1
   127    95    98    1
   128   101   104    1
   129   107   110    1
@<TRIPOS>SUBSTRUCTURE
     1 RES1        1 GROUP             0 ****  ****    0  
@<TRIPOS>CRYSIN
   21.9028   18.8869   22.5379   90.0000   90.0000   90.0000    61     1
