@<TRIPOS>MOLECULE
LERCUH
    47    44     3     0     0
SMALL
USER_CHARGES
****
Generated from the CSD

@<TRIPOS>ATOM
     1 Fe1      4.5912  13.3944  14.9938   Fe        1 RES1  -2.0000
     2 N1       3.8386  13.1025  16.4038   N.2       1 RES1   0.0000
     3 O1       3.3498  12.8634  17.4130   O.2       1 RES1   0.0000
     4 C1       2.9889  13.6505  13.9665   C.1       1 RES1   0.0000
     5 N2       1.9999  13.7856  13.3743   N.1       1 RES1   0.0000
     6 C2       6.3329  13.1692  15.7863   C.1       1 RES1   0.0000
     7 N3       7.3490  12.9922  16.3261   N.1       1 RES1   0.0000
     8 C3       5.5569  13.7002  13.3509   C.1       1 RES1   0.0000
     9 N4       6.1275  13.8834  12.3741   N.1       1 RES1   0.0000
    10 C4       4.6498  11.5374  14.4341   C.1       1 RES1   0.0000
    11 N5       4.6781  10.4320  14.1326   N.1       1 RES1   0.0000
    12 C5       4.6935  15.3165  15.2573   C.1       1 RES1   0.0000
    13 N6       4.7476  16.4484  15.4090   N.1       1 RES1   0.0000
    14 N7       8.1547  17.3551  12.8959   N.4       2 RES2   1.0000
    15 C6       6.7003  17.1889  12.4861   C.3       2 RES2   0.0000
    16 C7       6.1082  18.2975  11.6375   C.3       2 RES2   0.0000
    17 C8       4.6623  17.9761  11.2891   C.3       2 RES2   0.0000
    18 C9       4.4923  16.8070  10.4027   C.3       2 RES2   0.0000
    19 C10      9.0708  17.4591  11.6863   C.3       2 RES2   0.0000
    20 C11      9.0361  16.2807  10.7366   C.3       2 RES2   0.0000
    21 C12      9.8809  16.5710   9.4837   C.2       2 RES2   0.0000
    22 C13     11.2039  16.8427   9.6588   C.2       2 RES2   0.0000
    23 C14      8.4902  16.1332  13.7372   C.3       2 RES2   0.0000
    24 C15      9.8841  16.0819  14.3167   C.3       2 RES2   0.0000
    25 C16     10.1443  14.7964  15.0281   C.3       2 RES2   0.0000
    26 C17     11.4341  14.7281  15.7430   C.3       2 RES2   0.0000
    27 C18      8.3826  18.6313  13.6812   C.3       2 RES2   0.0000
    28 C19      7.6211  18.7338  14.9865   C.3       2 RES2   0.0000
    29 C20      7.7463  20.0939  15.5931   C.3       2 RES2   0.0000
    30 C21      7.1494  20.2259  16.9273   C.3       2 RES2   0.0000
    31 N8       0.8518  10.0035  11.8578   N.4       3 RES3   1.0000
    32 C22      1.2825  10.1665  13.2931   C.3       3 RES3   0.0000
    33 C23      0.3655   9.5268  14.3330   C.3       3 RES3   0.0000
    34 C24      0.8022   9.8917  15.7376   C.2       3 RES3   0.0000
    35 C25      1.9375   9.3265  16.1510   C.2       3 RES3   0.0000
    36 C26     -0.5662  10.4910  11.6393   C.3       3 RES3   0.0000
    37 C27     -0.8492  11.8961  12.1250   C.3       3 RES3   0.0000
    38 C28     -2.2364  12.3122  11.8199   C.3       3 RES3   0.0000
    39 C29     -2.5762  13.6521  12.3633   C.3       3 RES3   0.0000
    40 C30      1.7712  10.8450  10.9876   C.3       3 RES3   0.0000
    41 C31      3.2026  10.3978  10.9009   C.3       3 RES3   0.0000
    42 C32      4.0479  11.4412  10.2041   C.3       3 RES3   0.0000
    43 C33      5.5012  11.0748  10.1246   C.3       3 RES3   0.0000
    44 C34      0.9354   8.5238  11.4913   C.3       3 RES3   0.0000
    45 C35      0.5614   8.1434  10.1138   C.3       3 RES3   0.0000
    46 C36      0.9686   6.6980   9.7834   C.3       3 RES3   0.0000
    47 C37      2.3804   6.5070   9.6227   C.3       3 RES3   0.0000
@<TRIPOS>BOND
     1     1     2    1
     2     2     3    2
     3     4     1    1
     4     5     4    3
     5     6     1    1
     6     7     6    3
     7     8     1    1
     8     9     8    3
     9    10     1    1
    10    11    10    3
    11    12     1    1
    12    13    12    3
    13    14    15    1
    14    15    16    1
    15    16    17    1
    16    17    18    1
    17    19    14    1
    18    20    19    1
    19    21    20    1
    20    22    21    1
    21    23    14    1
    22    24    23    1
    23    25    24    1
    24    26    25    1
    25    27    14    1
    26    28    27    1
    27    29    28    1
    28    30    29    1
    29    31    32    1
    30    32    33    1
    31    33    34    1
    32    34    35    1
    33    36    31    1
    34    37    36    1
    35    38    37    1
    36    39    38    1
    37    40    31    1
    38    41    40    1
    39    42    41    1
    40    43    42    1
    41    44    31    1
    42    45    44    1
    43    46    45    1
    44    47    46    1
@<TRIPOS>SUBSTRUCTURE
     1 RES1        1 GROUP             0 ****  ****    0  
     2 RES2       14 GROUP             0 ****  ****    0  
     3 RES3       31 GROUP             0 ****  ****    0  
@<TRIPOS>CRYSIN
   15.7552   15.5261   18.5898   90.0000  103.7910   90.0000   231     1
