@<TRIPOS>MOLECULE
LERFAQ
   102   110     1     0     0
SMALL
NO_CHARGES
****
Generated from the CSD

@<TRIPOS>ATOM
     1 Sn1      0.6292   0.3390  13.3859   Sn        1 RES1   0.0000
     2 Sn2      3.2210  -2.0039  14.7865   Sn        1 RES1   0.0000
     3 Fe1      3.1139   0.4550  14.0149   Fe        1 RES1   0.0000
     4 Cl1      5.0148  -2.0829  16.4034   Cl        1 RES1   0.0000
     5 Cl2      0.1776  -1.8433  12.4588   Cl        1 RES1   0.0000
     6 P1       5.2570   0.9503  14.5428   P.3       1 RES1   0.0000
     7 P2       3.4019   2.6339  13.4595   P.3       1 RES1   0.0000
     8 O1       2.1020   0.7772  16.7563   O.2       1 RES1   0.0000
     9 O2       3.5815  -0.6561  11.3492   O.2       1 RES1   0.0000
    10 C1       2.4813   0.6615  15.6824   C.1       1 RES1   0.0000
    11 C2       3.4059  -0.1877  12.4044   C.1       1 RES1   0.0000
    12 C3       5.2124   2.6219  13.7899   C.3       1 RES1   0.0000
    13 C4      -0.1580   1.5279  11.7792   C.ar      1 RES1   0.0000
    14 C5      -1.2072   2.3025  11.9181   C.ar      1 RES1   0.0000
    15 C6      -1.6991   3.1010  10.8987   C.ar      1 RES1   0.0000
    16 C7      -1.1129   3.1715   9.7515   C.ar      1 RES1   0.0000
    17 C8      -0.0926   2.4089   9.5225   C.ar      1 RES1   0.0000
    18 C9       0.4165   1.5971  10.5457   C.ar      1 RES1   0.0000
    19 C10     -0.8621   0.4272  14.9521   C.ar      1 RES1   0.0000
    20 C11     -1.3442  -0.7160  15.5360   C.ar      1 RES1   0.0000
    21 C12     -2.2542  -0.6681  16.5874   C.ar      1 RES1   0.0000
    22 C13     -2.6815   0.5191  17.0774   C.ar      1 RES1   0.0000
    23 C14     -2.2255   1.6729  16.5160   C.ar      1 RES1   0.0000
    24 C15     -1.3123   1.6144  15.4421   C.ar      1 RES1   0.0000
    25 C16      1.6681  -2.8242  16.0316   C.ar      1 RES1   0.0000
    26 C17      1.5160  -2.4103  17.3421   C.ar      1 RES1   0.0000
    27 C18      0.4746  -2.9040  18.1325   C.ar      1 RES1   0.0000
    28 C19     -0.4112  -3.7931  17.6049   C.ar      1 RES1   0.0000
    29 C20     -0.2629  -4.2136  16.3339   C.ar      1 RES1   0.0000
    30 C21      0.7764  -3.7452  15.5322   C.ar      1 RES1   0.0000
    31 C22      3.8876  -3.6240  13.5121   C.ar      1 RES1   0.0000
    32 C23      3.1559  -4.0433  12.4363   C.ar      1 RES1   0.0000
    33 C24      3.5553  -5.1359  11.6722   C.ar      1 RES1   0.0000
    34 C25      4.6789  -5.8333  11.9876   C.ar      1 RES1   0.0000
    35 C26      5.4430  -5.4101  13.0239   C.ar      1 RES1   0.0000
    36 C27      5.0306  -4.3268  13.8031   C.ar      1 RES1   0.0000
    37 C28      5.7364   1.2843  16.2795   C.ar      1 RES1   0.0000
    38 C29      6.8242   0.6508  16.8784   C.ar      1 RES1   0.0000
    39 C30      7.1433   0.9489  18.1926   C.ar      1 RES1   0.0000
    40 C31      6.4040   1.8473  18.9023   C.ar      1 RES1   0.0000
    41 C32      5.3398   2.4595  18.3296   C.ar      1 RES1   0.0000
    42 C33      5.0046   2.1800  17.0210   C.ar      1 RES1   0.0000
    43 C34      6.7142   0.1517  13.7881   C.ar      1 RES1   0.0000
    44 C35      7.9220   0.8039  13.8143   C.ar      1 RES1   0.0000
    45 C36      9.0486   0.2196  13.2229   C.ar      1 RES1   0.0000
    46 C37      8.9488  -0.9915  12.6278   C.ar      1 RES1   0.0000
    47 C38      7.7454  -1.6516  12.6278   C.ar      1 RES1   0.0000
    48 C39      6.6445  -1.0647  13.2173   C.ar      1 RES1   0.0000
    49 C40      3.2523   3.2953  11.7585   C.ar      1 RES1   0.0000
    50 C41      3.9896   2.7244  10.7409   C.ar      1 RES1   0.0000
    51 C42      3.8970   3.2381   9.4474   C.ar      1 RES1   0.0000
    52 C43      3.0518   4.2629   9.1639   C.ar      1 RES1   0.0000
    53 C44      2.2937   4.8059  10.1495   C.ar      1 RES1   0.0000
    54 C45      2.3898   4.3294  11.4713   C.ar      1 RES1   0.0000
    55 C46      2.7381   3.9661  14.5184   C.ar      1 RES1   0.0000
    56 C47      3.3726   5.1945  14.5710   C.ar      1 RES1   0.0000
    57 C48      2.9095   6.1900  15.3839   C.ar      1 RES1   0.0000
    58 C49      1.7893   5.9930  16.1480   C.ar      1 RES1   0.0000
    59 C50      1.1352   4.7926  16.1124   C.ar      1 RES1   0.0000
    60 C51      1.6104   3.7811  15.2900   C.ar      1 RES1   0.0000
    61 H1       5.5099   3.3339  14.3982   H         1 RES1   0.0000
    62 H2       5.7646   2.7177  12.9977   H         1 RES1   0.0000
    63 H3      -1.4505   3.7877   9.0287   H         1 RES1   0.0000
    64 H4       0.3465   2.4289   8.6326   H         1 RES1   0.0000
    65 H5       1.2177   1.0461  10.3636   H         1 RES1   0.0000
    66 H6      -1.0418  -1.5944  15.2018   H         1 RES1   0.0000
    67 H7      -2.5981  -1.4893  17.0192   H         1 RES1   0.0000
    68 H8      -3.3047   0.5763  17.8509   H         1 RES1   0.0000
    69 H9      -2.5296   2.5700  16.8615   H         1 RES1   0.0000
    70 H10     -0.9877   2.4675  15.0384   H         1 RES1   0.0000
    71 H11      2.1723  -1.7768  17.7326   H         1 RES1   0.0000
    72 H12      0.3830  -2.5806  19.0806   H         1 RES1   0.0000
    73 H13     -1.1406  -4.1178  18.1757   H         1 RES1   0.0000
    74 H14     -0.9249  -4.8538  15.9828   H         1 RES1   0.0000
    75 H15      0.9224  -4.0539  14.4752   H         1 RES1   0.0000
    76 H16      2.3353  -3.5468  12.1885   H         1 RES1   0.0000
    77 H17      3.0112  -5.4261  10.8911   H         1 RES1   0.0000
    78 H18      4.9366  -6.6119  11.4656   H         1 RES1   0.0000
    79 H19      6.2850  -5.8693  13.2549   H         1 RES1   0.0000
    80 H20      5.5799  -4.0459  14.6048   H         1 RES1   0.0000
    81 H21      7.3653   0.0080  16.3621   H         1 RES1   0.0000
    82 H22      7.9132   0.5097  18.6244   H         1 RES1   0.0000
    83 H23      6.6326   2.0496  19.8391   H         1 RES1   0.0000
    84 H24      4.8143   3.1090  18.8572   H         1 RES1   0.0000
    85 H25      4.2249   2.6392  16.6136   H         1 RES1   0.0000
    86 H26      7.9924   1.7089  14.2612   H         1 RES1   0.0000
    87 H27      9.9225   0.6788  13.2811   H         1 RES1   0.0000
    88 H28      9.7284  -1.3895  12.1979   H         1 RES1   0.0000
    89 H29      7.6762  -2.5660  12.2260   H         1 RES1   0.0000
    90 H30      5.7776  -1.5465  13.2117   H         1 RES1   0.0000
    91 H31      4.5755   1.9391  10.9456   H         1 RES1   0.0000
    92 H32      4.4744   2.8188   8.7452   H         1 RES1   0.0000
    93 H33      3.0313   4.5676   8.2345   H         1 RES1   0.0000
    94 H34      1.6623   5.5299   9.9167   H         1 RES1   0.0000
    95 H35      1.8284   4.7260  12.2035   H         1 RES1   0.0000
    96 H36      4.1909   5.3342  14.0453   H         1 RES1   0.0000
    97 H37      3.3657   7.0657  15.4346   H         1 RES1   0.0000
    98 H38      1.4382   6.7064  16.7488   H         1 RES1   0.0000
    99 H39      0.3383   4.6209  16.6568   H         1 RES1   0.0000
   100 H40      1.1426   2.8934  15.2675   H         1 RES1   0.0000
   101 H41     -1.7023   2.2878  12.7855   H         1 RES1   0.0000
   102 H42     -2.4563   3.6946  11.0845   H         1 RES1   0.0000
@<TRIPOS>BOND
     1     1     3    1
     2     2     3    1
     3     3     6    1
     4     4     2    1
     5     5     1    1
     6     6    12    1
     7     7     3    1
     8     8    10    3
     9     9    11    3
    10    10     3    1
    11    11     3    1
    12    12     7    1
    13    13     1    1
    14    14    13   ar
    15    15    14   ar
    16    16    15   ar
    17    17    16   ar
    18    18    13   ar
    19    19     1    1
    20    20    19   ar
    21    21    20   ar
    22    22    21   ar
    23    23    22   ar
    24    24    19   ar
    25    25     2    1
    26    26    25   ar
    27    27    26   ar
    28    28    27   ar
    29    29    28   ar
    30    30    25   ar
    31    31     2    1
    32    32    31   ar
    33    33    32   ar
    34    34    33   ar
    35    35    34   ar
    36    36    31   ar
    37    37     6    1
    38    38    37   ar
    39    39    38   ar
    40    40    39   ar
    41    41    40   ar
    42    42    37   ar
    43    43     6    1
    44    44    43   ar
    45    45    44   ar
    46    46    45   ar
    47    47    46   ar
    48    48    43   ar
    49    49     7    1
    50    50    49   ar
    51    51    50   ar
    52    52    51   ar
    53    53    52   ar
    54    54    49   ar
    55    55     7    1
    56    56    55   ar
    57    57    56   ar
    58    58    57   ar
    59    59    58   ar
    60    60    55   ar
    61    61    12    1
    62    62    12    1
    63    63    16    1
    64    64    17    1
    65    65    18    1
    66    66    20    1
    67    67    21    1
    68    68    22    1
    69    69    23    1
    70    70    24    1
    71    71    26    1
    72    72    27    1
    73    73    28    1
    74    74    29    1
    75    75    30    1
    76    76    32    1
    77    77    33    1
    78    78    34    1
    79    79    35    1
    80    80    36    1
    81    81    38    1
    82    82    39    1
    83    83    40    1
    84    84    41    1
    85    85    42    1
    86    86    44    1
    87    87    45    1
    88    88    46    1
    89    89    47    1
    90    90    48    1
    91    91    50    1
    92    92    51    1
    93    93    52    1
    94    94    53    1
    95    95    54    1
    96    96    56    1
    97    97    57    1
    98    98    58    1
    99    99    59    1
   100   100    60    1
   101   101    14    1
   102   102    15    1
   103    17    18   ar
   104    23    24   ar
   105    29    30   ar
   106    35    36   ar
   107    41    42   ar
   108    47    48   ar
   109    53    54   ar
   110    59    60   ar
@<TRIPOS>SUBSTRUCTURE
     1 RES1        1 GROUP             0 ****  ****    0  
@<TRIPOS>CRYSIN
   19.0710   13.3090   20.8480   90.0000  115.7700   90.0000    14     2
