@<TRIPOS>MOLECULE
LESNAZ
   166   172     2     0     0
SMALL
NO_CHARGES
****
Generated from the CSD

@<TRIPOS>ATOM
     1 Fe1      5.8655   7.1785   5.0430   Fe        1 RES1   0.0000
     2 O1       1.5160   4.9077   4.2009   O.2       1 RES1   0.0000
     3 O2       1.1677   6.7824   3.0029   O.3       1 RES1   0.0000
     4 O3       3.3474   7.3881  -2.6684   O.2       1 RES1   0.0000
     5 O4       1.5537   6.0341  -2.6450   O.3       1 RES1   0.0000
     6 N1       5.1349   9.9550   4.1114   N.1       1 RES1   0.0000
     7 N2       8.8772   7.5520   5.0683   N.1       1 RES1   0.0000
     8 N3       6.1641   4.3354   5.9785   N.1       1 RES1   0.0000
     9 N4       6.4562   8.4811   7.6744   N.1       1 RES1   0.0000
    10 N5       3.0332   6.7308   6.1146   N.2       1 RES1   0.0000
    11 N6       2.7809   4.9229   1.1825   N.3       1 RES1   0.0000
    12 N7       2.9804   8.1653   0.9530   N.3       1 RES1   0.0000
    13 N8       6.4061   6.5669   2.0966   N.2       1 RES1   0.0000
    14 C1       5.4154   8.8818   4.4576   C.1       1 RES1   0.0000
    15 C2       4.6106  11.1952   3.7847   C.ar      1 RES1   0.0000
    16 C3       5.4842  12.2563   3.5241   C.ar      1 RES1   0.0000
    17 C4       4.9365  13.4768   3.1312   C.ar      1 RES1   0.0000
    18 C5       3.5691  13.6058   3.0534   C.ar      1 RES1   0.0000
    19 C6       2.7250  12.5493   3.3452   C.ar      1 RES1   0.0000
    20 C7       3.2343  11.3197   3.6952   C.ar      1 RES1   0.0000
    21 C8       6.9896  12.0757   3.6252   C.3       1 RES1   0.0000
    22 C9       2.3225  10.1509   3.9870   C.3       1 RES1   0.0000
    23 C10      7.7309   7.4321   4.9127   C.1       1 RES1   0.0000
    24 C11     10.2465   7.7433   5.2356   C.ar      1 RES1   0.0000
    25 C12     10.7675   9.0230   4.9672   C.ar      1 RES1   0.0000
    26 C13     12.1489   9.2112   5.2278   C.ar      1 RES1   0.0000
    27 C14     12.8939   8.1623   5.6673   C.ar      1 RES1   0.0000
    28 C15     12.3626   6.9357   5.9318   C.ar      1 RES1   0.0000
    29 C16     10.9747   6.6913   5.6712   C.ar      1 RES1   0.0000
    30 C17      9.9126  10.1311   4.4810   C.3       1 RES1   0.0000
    31 C18     10.3735   5.3403   5.9863   C.3       1 RES1   0.0000
    32 C19      6.0472   5.4284   5.6090   C.1       1 RES1   0.0000
    33 C20      6.2858   2.9996   6.4336   C.ar      1 RES1   0.0000
    34 C21      5.8363   1.9795   5.5779   C.ar      1 RES1   0.0000
    35 C22      6.0135   0.6770   6.1030   C.ar      1 RES1   0.0000
    36 C23      6.5578   0.4493   7.3049   C.ar      1 RES1   0.0000
    37 C24      6.9660   1.5013   8.1217   C.ar      1 RES1   0.0000
    38 C25      6.8440   2.8296   7.6939   C.ar      1 RES1   0.0000
    39 C26      5.1946   2.2451   4.2826   C.3       1 RES1   0.0000
    40 C27      7.2609   3.9787   8.5613   C.3       1 RES1   0.0000
    41 C28      6.1122   7.9133   6.7526   C.1       1 RES1   0.0000
    42 C29      6.8812   9.2886   8.7713   C.ar      1 RES1   0.0000
    43 C30      6.8477  10.6746   8.6002   C.ar      1 RES1   0.0000
    44 C31      7.3323  11.3880   9.6932   C.ar      1 RES1   0.0000
    45 C32      7.7915  10.7763  10.8446   C.ar      1 RES1   0.0000
    46 C33      7.8219   9.3964  10.9457   C.ar      1 RES1   0.0000
    47 C34      7.3547   8.6086   9.9032   C.ar      1 RES1   0.0000
    48 C35      6.3989  11.3304   7.3516   C.3       1 RES1   0.0000
    49 C36      7.3695   7.1361   9.9810   C.3       1 RES1   0.0000
    50 C37      3.3275   6.7399   7.4722   C.ar      1 RES1   0.0000
    51 C38      3.3667   7.9285   8.1995   C.ar      1 RES1   0.0000
    52 C39      3.5460   7.8481   9.5648   C.ar      1 RES1   0.0000
    53 C40      3.6711   6.6321  10.2261   C.ar      1 RES1   0.0000
    54 C41      3.5670   5.4936   9.4948   C.ar      1 RES1   0.0000
    55 C42      3.3593   5.5210   8.1295   C.ar      1 RES1   0.0000
    56 C43      3.1679   9.2613   7.5227   C.3       1 RES1   0.0000
    57 C44      3.1251   4.2246   7.3671   C.3       1 RES1   0.0000
    58 C45      3.8845   6.7733   5.1422   C.2       1 RES1   0.0000
    59 C46      3.3402   6.3756   3.8275   C.2       1 RES1   0.0000
    60 C47      1.9086   5.9096   3.6913   C.2       1 RES1   0.0000
    61 C48     -0.1369   6.2344   2.6528   C.3       1 RES1   0.0000
    62 C49      4.2000   6.3164   2.7812   C.2       1 RES1   0.0000
    63 C50      3.9206   5.8914   1.3381   C.3       1 RES1   0.0000
    64 C51      2.9485   3.5643   1.6998   C.3       1 RES1   0.0000
    65 C52      4.0675   2.7977   0.9841   C.3       1 RES1   0.0000
    66 C53      1.6555   2.7779   1.5714   C.3       1 RES1   0.0000
    67 C54      2.3072   5.1475  -0.0739   C.2       1 RES1   0.0000
    68 C55      2.7875   6.2618  -0.6729   C.2       1 RES1   0.0000
    69 C56      2.6227   6.6488  -2.0460   C.2       1 RES1   0.0000
    70 C57      1.4521   6.2223  -4.0803   C.3       1 RES1   0.0000
    71 C58      3.6484   7.0086   0.3423   C.3       1 RES1   0.0000
    72 C59      2.7920   9.3236   0.0156   C.3       1 RES1   0.0000
    73 C60      4.0980  10.1660   0.0194   C.3       1 RES1   0.0000
    74 C61      1.5991  10.1463   0.4784   C.3       1 RES1   0.0000
    75 C62      5.6311   6.6337   3.1079   C.2       1 RES1   0.0000
    76 C63      7.7911   6.7156   2.0732   C.ar      1 RES1   0.0000
    77 C64      8.5983   5.6151   2.4194   C.ar      1 RES1   0.0000
    78 C65      9.9750   5.7122   2.2560   C.ar      1 RES1   0.0000
    79 C66     10.5417   6.8659   1.7504   C.ar      1 RES1   0.0000
    80 C67      9.7461   7.9224   1.4003   C.ar      1 RES1   0.0000
    81 C68      8.3661   7.8465   1.5326   C.ar      1 RES1   0.0000
    82 C69      7.9796   4.3673   2.9601   C.3       1 RES1   0.0000
    83 C70      7.4887   8.9866   1.1008   C.3       1 RES1   0.0000
    84 H1       5.4903  14.1948   2.9251   H         1 RES1   0.0000
    85 H2       3.2024  14.4225   2.8006   H         1 RES1   0.0000
    86 H3       1.8025  12.6707   3.3102   H         1 RES1   0.0000
    87 H4       2.2318   8.0454   1.3614   H         1 RES1   0.0000
    88 H5       7.4262  12.9076   3.4268   H         1 RES1   0.0000
    89 H6       7.2758  11.4154   2.9990   H         1 RES1   0.0000
    90 H7       7.2210  11.7949   4.5160   H         1 RES1   0.0000
    91 H8       2.3310   9.9581   4.9283   H         1 RES1   0.0000
    92 H9       2.6229   9.3797   3.5046   H         1 RES1   0.0000
    93 H10      1.4275  10.3695   3.7186   H         1 RES1   0.0000
    94 H11     12.5421  10.0461   5.1033   H         1 RES1   0.0000
    95 H12     13.8081   8.2868   5.7879   H         1 RES1   0.0000
    96 H13     12.9010   6.2602   6.2780   H         1 RES1   0.0000
    97 H14     10.4404  10.9296   4.3993   H         1 RES1   0.0000
    98 H15      9.2004  10.2769   5.1072   H         1 RES1   0.0000
    99 H16      9.5505   9.9004   3.6252   H         1 RES1   0.0000
   100 H17      9.7003   5.4405   6.6514   H         1 RES1   0.0000
   101 H18     11.0572   4.7529   6.3130   H         1 RES1   0.0000
   102 H19      9.9997   4.9699   5.1850   H         1 RES1   0.0000
   103 H20      5.7374  -0.0501   5.5934   H         1 RES1   0.0000
   104 H21      6.6665  -0.4266   7.5966   H         1 RES1   0.0000
   105 H22      7.3243   1.3191   8.9619   H         1 RES1   0.0000
   106 H23      4.5455   2.9449   4.3837   H         1 RES1   0.0000
   107 H24      4.7703   1.4467   3.9714   H         1 RES1   0.0000
   108 H25      5.8587   2.5199   3.6447   H         1 RES1   0.0000
   109 H26      6.4931   4.5085   8.7791   H         1 RES1   0.0000
   110 H27      7.8979   4.5236   8.0906   H         1 RES1   0.0000
   111 H28      7.6530   3.6432   9.3703   H         1 RES1   0.0000
   112 H29      7.3470  12.3171   9.6465   H         1 RES1   0.0000
   113 H30      8.0825  11.2985  11.5564   H         1 RES1   0.0000
   114 H31      8.1552   8.9972  11.7158   H         1 RES1   0.0000
   115 H32      5.5004  11.0510   7.1532   H         1 RES1   0.0000
   116 H33      6.9723  11.0814   6.6320   H         1 RES1   0.0000
   117 H34      6.4339  12.2837   7.4644   H         1 RES1   0.0000
   118 H35      7.7496   6.8644  10.8212   H         1 RES1   0.0000
   119 H36      7.9116   6.7839   9.2653   H         1 RES1   0.0000
   120 H37      6.4726   6.8006   9.8993   H         1 RES1   0.0000
   121 H38      3.5823   8.6344  10.0588   H         1 RES1   0.0000
   122 H39      3.8242   6.6003  11.1402   H         1 RES1   0.0000
   123 H40      3.6381   4.6709   9.9266   H         1 RES1   0.0000
   124 H41      2.2685   9.3236   7.1921   H         1 RES1   0.0000
   125 H42      3.7761   9.3509   6.7915   H         1 RES1   0.0000
   126 H43      3.3202   9.9672   8.1529   H         1 RES1   0.0000
   127 H44      2.9984   3.5066   7.9934   H         1 RES1   0.0000
   128 H45      3.8909   4.0379   6.8226   H         1 RES1   0.0000
   129 H46      2.3502   4.3157   6.8109   H         1 RES1   0.0000
   130 H47     -0.0203   5.3889   2.2094   H         1 RES1   0.0000
   131 H48     -0.5917   6.8462   2.0654   H         1 RES1   0.0000
   132 H49     -0.6540   6.1024   3.4502   H         1 RES1   0.0000
   133 H50      4.7250   5.4269   1.0230   H         1 RES1   0.0000
   134 H51      3.1785   3.6250   2.6489   H         1 RES1   0.0000
   135 H52      4.1923   1.9385   1.3964   H         1 RES1   0.0000
   136 H53      4.8870   3.2941   1.0463   H         1 RES1   0.0000
   137 H54      3.8356   2.6869   0.0583   H         1 RES1   0.0000
   138 H55      1.7118   1.9734   2.1005   H         1 RES1   0.0000
   139 H56      1.5140   2.5502   0.6535   H         1 RES1   0.0000
   140 H57      0.9216   3.3168   1.8826   H         1 RES1   0.0000
   141 H58      1.7002   4.5783  -0.4901   H         1 RES1   0.0000
   142 H59      0.5888   5.9354  -4.3798   H         1 RES1   0.0000
   143 H60      2.1428   5.7077  -4.5199   H         1 RES1   0.0000
   144 H61      1.5565   7.1528  -4.2904   H         1 RES1   0.0000
   145 H62      4.4886   7.2925  -0.0778   H         1 RES1   0.0000
   146 H63      2.6216   8.9866  -0.8869   H         1 RES1   0.0000
   147 H64      4.2814  10.4742   0.9102   H         1 RES1   0.0000
   148 H65      3.9915  10.9296  -0.5601   H         1 RES1   0.0000
   149 H66      4.8275   9.6256  -0.2917   H         1 RES1   0.0000
   150 H67      1.3087  10.7171  -0.2373   H         1 RES1   0.0000
   151 H68      1.8565  10.6867   1.2330   H         1 RES1   0.0000
   152 H69      0.8857   9.5588   0.7352   H         1 RES1   0.0000
   153 H70     10.5206   4.9957   2.4855   H         1 RES1   0.0000
   154 H71     11.4654   6.9251   1.6531   H         1 RES1   0.0000
   155 H72     10.1337   8.6997   1.0697   H         1 RES1   0.0000
   156 H73      7.4946   4.5737   3.7614   H         1 RES1   0.0000
   157 H74      8.6683   3.7282   3.1585   H         1 RES1   0.0000
   158 H75      7.3761   4.0075   2.3105   H         1 RES1   0.0000
   159 H76      6.9402   8.7072   0.3617   H         1 RES1   0.0000
   160 H77      8.0366   9.7273   0.8285   H         1 RES1   0.0000
   161 H78      6.9351   9.2598   1.8321   H         1 RES1   0.0000
   162 Cl1      9.0186  -1.6531  13.0928   Cl        2 RES2   0.0000
   163 Cl2      7.9975   0.8668  11.9562   Cl        2 RES2   0.0000
   164 C71      7.6509  -0.8455  12.4277   C.3       2 RES2   0.0000
   165 H79      6.9317  -0.8531  13.0811   H         2 RES2   0.0000
   166 H80      7.3458  -1.3328  11.6458   H         2 RES2   0.0000
@<TRIPOS>BOND
     1     1    14    1
     2     2    60    2
     3     3    60    1
     4     4    69    2
     5     5    69    1
     6     6    14    3
     7     7    23    3
     8     8    32    3
     9     9    41    3
    10    10    50    1
    11    11    63    1
    12    12    71    1
    13    13    75    2
    14    15     6    1
    15    16    15   ar
    16    17    16   ar
    17    18    17   ar
    18    19    18   ar
    19    20    15   ar
    20    21    16    1
    21    22    20    1
    22    23     1    1
    23    24     7    1
    24    25    24   ar
    25    26    25   ar
    26    27    26   ar
    27    28    27   ar
    28    29    24   ar
    29    30    25    1
    30    31    29    1
    31    32     1    1
    32    33     8    1
    33    34    33   ar
    34    35    34   ar
    35    36    35   ar
    36    37    36   ar
    37    38    33   ar
    38    39    34    1
    39    40    38    1
    40    41     1    1
    41    42     9    1
    42    43    42   ar
    43    44    43   ar
    44    45    44   ar
    45    46    45   ar
    46    47    42   ar
    47    48    43    1
    48    49    47    1
    49    50    51   ar
    50    51    52   ar
    51    52    53   ar
    52    53    54   ar
    53    54    55   ar
    54    55    50   ar
    55    56    51    1
    56    57    55    1
    57    58     1    1
    58    59    58    1
    59    60    59    1
    60    61     3    1
    61    62    59    2
    62    63    62    1
    63    64    11    1
    64    65    64    1
    65    66    64    1
    66    67    11    1
    67    68    67    2
    68    69    68    1
    69    70     5    1
    70    71    63    1
    71    72    12    1
    72    73    72    1
    73    74    72    1
    74    75     1    1
    75    76    13    1
    76    77    76   ar
    77    78    77   ar
    78    79    78   ar
    79    80    79   ar
    80    81    76   ar
    81    82    77    1
    82    83    81    1
    83    84    17    1
    84    85    18    1
    85    86    19    1
    86    87    12    1
    87    88    21    1
    88    89    21    1
    89    90    21    1
    90    91    22    1
    91    92    22    1
    92    93    22    1
    93    94    26    1
    94    95    27    1
    95    96    28    1
    96    97    30    1
    97    98    30    1
    98    99    30    1
    99   100    31    1
   100   101    31    1
   101   102    31    1
   102   103    35    1
   103   104    36    1
   104   105    37    1
   105   106    39    1
   106   107    39    1
   107   108    39    1
   108   109    40    1
   109   110    40    1
   110   111    40    1
   111   112    44    1
   112   113    45    1
   113   114    46    1
   114   115    48    1
   115   116    48    1
   116   117    48    1
   117   118    49    1
   118   119    49    1
   119   120    49    1
   120   121    52    1
   121   122    53    1
   122   123    54    1
   123   124    56    1
   124   125    56    1
   125   126    56    1
   126   127    57    1
   127   128    57    1
   128   129    57    1
   129   130    61    1
   130   131    61    1
   131   132    61    1
   132   133    63    1
   133   134    64    1
   134   135    65    1
   135   136    65    1
   136   137    65    1
   137   138    66    1
   138   139    66    1
   139   140    66    1
   140   141    67    1
   141   142    70    1
   142   143    70    1
   143   144    70    1
   144   145    71    1
   145   146    72    1
   146   147    73    1
   147   148    73    1
   148   149    73    1
   149   150    74    1
   150   151    74    1
   151   152    74    1
   152   153    78    1
   153   154    79    1
   154   155    80    1
   155   156    82    1
   156   157    82    1
   157   158    82    1
   158   159    83    1
   159   160    83    1
   160   161    83    1
   161    10    58    2
   162    19    20   ar
   163    28    29   ar
   164    37    38   ar
   165    46    47   ar
   166    62    75    1
   167    68    71    1
   168    80    81   ar
   169   162   164    1
   170   163   164    1
   171   164   165    1
   172   166   164    1
@<TRIPOS>SUBSTRUCTURE
     1 RES1        1 GROUP             0 ****  ****    0  
     2 RES2      162 GROUP             0 ****  ****    0  
@<TRIPOS>CRYSIN
   21.8510   15.1800   39.4840   90.0000   99.8900   90.0000    15     1
