@<TRIPOS>MOLECULE
LEZVIV
   114   120     1     0     0
SMALL
NO_CHARGES
****
Generated from the CSD

@<TRIPOS>ATOM
     1 Fe1     11.2175   3.0842  23.6772   Fe        1 RES1   0.0000
     2 S1      12.7267   4.7594  24.2511   S.3       1 RES1   0.0000
     3 C1      13.8847   3.9430  25.2300   C.2       1 RES1   0.0000
     4 C2      13.7030   2.4553  25.3600   C.3       1 RES1   0.0000
     5 C3      12.3518   2.1287  26.0716   C.2       1 RES1   0.0000
     6 C4      12.7179   1.8143  23.2217   C.2       1 RES1   0.0000
     7 C5       9.9225   4.3905  24.0705   C.1       1 RES1   0.0000
     8 C6      11.4132   3.7011  21.9936   C.1       1 RES1   0.0000
     9 C7      10.0116   1.8989  23.0556   C.1       1 RES1   0.0000
    10 C8      10.0454   1.9231  26.2414   C.3       1 RES1   0.0000
    11 C9       9.9235   2.7335  27.5417   C.3       1 RES1   0.0000
    12 C10     10.1074   0.4112  26.5050   C.3       1 RES1   0.0000
    13 C11     15.1480   1.4030  23.5865   C.3       1 RES1   0.0000
    14 C12     15.8797   2.6730  23.1134   C.3       1 RES1   0.0000
    15 C13     16.0178   0.7015  24.6593   C.3       1 RES1   0.0000
    16 C14     15.1257   5.8540  25.7754   C.ar      1 RES1   0.0000
    17 C15     15.0925   6.5797  26.9313   C.ar      1 RES1   0.0000
    18 C16     15.2848   7.9343  26.8807   C.ar      1 RES1   0.0000
    19 C17     15.5300   8.5875  25.7176   C.ar      1 RES1   0.0000
    20 C18     15.6022   7.8618  24.5004   C.ar      1 RES1   0.0000
    21 C19     15.3817   6.4587  24.5871   C.ar      1 RES1   0.0000
    22 C20     13.2897  -0.0242  21.7119   C.ar      1 RES1   0.0000
    23 C21     13.9223   0.0121  20.4910   C.ar      1 RES1   0.0000
    24 C22     14.5161  -1.2095  19.9348   C.ar      1 RES1   0.0000
    25 C23     14.4789  -2.3585  20.6174   C.ar      1 RES1   0.0000
    26 C24     13.7347  -2.3827  21.8600   C.ar      1 RES1   0.0000
    27 C25     13.1919  -1.2458  22.4054   C.ar      1 RES1   0.0000
    28 C26     14.0415   1.3425  19.7036   C.3       1 RES1   0.0000
    29 C27     12.4904  -1.3184  23.7093   C.2       1 RES1   0.0000
    30 C28      8.5738   6.5071  24.4245   C.ar      1 RES1   0.0000
    31 C29      7.4266   6.6039  25.1939   C.ar      1 RES1   0.0000
    32 C30      6.7905   7.8376  25.2733   C.ar      1 RES1   0.0000
    33 C31      7.3124   8.9382  24.7135   C.ar      1 RES1   0.0000
    34 C32      8.4316   8.8173  23.9261   C.ar      1 RES1   0.0000
    35 C33      9.1113   7.6199  23.7888   C.ar      1 RES1   0.0000
    36 C34      6.8510   5.3581  25.8729   C.3       1 RES1   0.0000
    37 C35     10.3276   7.4384  22.9833   C.3       1 RES1   0.0000
    38 C36     11.9423   4.3784  19.5591   C.ar      1 RES1   0.0000
    39 C37     11.1628   3.7978  18.5586   C.ar      1 RES1   0.0000
    40 C38     11.5866   4.1123  17.2294   C.ar      1 RES1   0.0000
    41 C39     12.7509   4.9348  17.0126   C.ar      1 RES1   0.0000
    42 C40     13.4715   5.4186  18.0385   C.ar      1 RES1   0.0000
    43 C41     13.0491   5.1767  19.3388   C.ar      1 RES1   0.0000
    44 C42      9.9708   2.9754  18.8548   C.3       1 RES1   0.0000
    45 C43     13.8830   5.6847  20.5091   C.3       1 RES1   0.0000
    46 C44      8.1249   0.5443  21.8817   C.ar      1 RES1   0.0000
    47 C45      6.8402   0.9555  22.1526   C.ar      1 RES1   0.0000
    48 C46      5.8559   0.2903  21.4663   C.ar      1 RES1   0.0000
    49 C47      6.0697  -0.5927  20.5091   C.ar      1 RES1   0.0000
    50 C48      7.3550  -1.0039  20.2743   C.ar      1 RES1   0.0000
    51 C49      8.4786  -0.4354  20.9136   C.ar      1 RES1   0.0000
    52 C50      6.5648   1.9594  23.2434   C.3       1 RES1   0.0000
    53 C51      9.8834  -0.8466  20.6933   C.3       1 RES1   0.0000
    54 N1      11.2623   2.2981  25.5226   N.2       1 RES1   0.0000
    55 N2      13.8065   1.7175  24.0922   N.pl3     1 RES1   0.0000
    56 N3      14.8642   4.4752  25.9163   N.2       1 RES1   0.0000
    57 N4      12.6047   1.1369  22.1128   N.2       1 RES1   0.0000
    58 N5       9.2212   5.2855  24.3089   N.1       1 RES1   0.0000
    59 N6      11.5799   4.0518  20.9136   N.1       1 RES1   0.0000
    60 N7       9.1990   1.1732  22.5499   N.1       1 RES1   0.0000
    61 H1      14.6882   2.5400  25.8260   H         1 RES1   0.0000
    62 H2      12.4181   1.5724  27.0541   H         1 RES1   0.0000
    63 H3       9.1124   2.1771  25.7899   H         1 RES1   0.0000
    64 H4      15.4574   0.7257  22.7919   H         1 RES1   0.0000
    65 H5      15.2257   5.8056  27.6681   H         1 RES1   0.0000
    66 H6      15.0231   8.2246  27.8848   H         1 RES1   0.0000
    67 H7      15.8593   9.6155  25.4648   H         1 RES1   0.0000
    68 H8      16.1426   7.8618  23.5504   H         1 RES1   0.0000
    69 H9      15.4609   5.8056  23.7310   H         1 RES1   0.0000
    70 H10     15.1997  -1.4514  19.1076   H         1 RES1   0.0000
    71 H11     14.9181  -3.3503  20.4802   H         1 RES1   0.0000
    72 H12     13.8398  -3.2656  22.4307   H         1 RES1   0.0000
    73 H13      5.7569   7.9827  25.5731   H         1 RES1   0.0000
    74 H14      6.5726   9.6760  25.1036   H         1 RES1   0.0000
    75 H15      9.0247   9.1922  23.0808   H         1 RES1   0.0000
    76 H16     11.7257   3.5076  16.3264   H         1 RES1   0.0000
    77 H17     13.2986   5.2009  16.1096   H         1 RES1   0.0000
    78 H18     13.9014   6.2894  17.5906   H         1 RES1   0.0000
    79 H19      4.8484   0.2419  21.9250   H         1 RES1   0.0000
    80 H20      5.0081  -0.3628  20.5885   H         1 RES1   0.0000
    81 H21      7.7298  -1.5723  19.4688   H         1 RES1   0.0000
    82 H22     10.8297   2.5400  28.1016   H         1 RES1   0.0000
    83 H23     10.2269   3.7978  27.6320   H         1 RES1   0.0000
    84 H24      8.9493   2.2981  27.7042   H         1 RES1   0.0000
    85 H25     10.5634  -0.1209  25.6093   H         1 RES1   0.0000
    86 H26     11.1971   0.2419  26.4400   H         1 RES1   0.0000
    87 H27      9.1519   0.2419  26.9818   H         1 RES1   0.0000
    88 H28     15.4694   3.6285  23.5504   H         1 RES1   0.0000
    89 H29     16.6629   3.1447  23.7310   H         1 RES1   0.0000
    90 H30     16.8106   2.4190  22.6474   H         1 RES1   0.0000
    91 H31     15.0814   0.9676  25.1397   H         1 RES1   0.0000
    92 H32     15.2102   0.0000  24.4534   H         1 RES1   0.0000
    93 H33     17.0442   0.8467  24.3089   H         1 RES1   0.0000
    94 H34     12.9364   1.4514  19.6855   H         1 RES1   0.0000
    95 H35     14.9988   1.8143  19.7939   H         1 RES1   0.0000
    96 H36     14.5437   1.3305  18.7464   H         1 RES1   0.0000
    97 H37     11.5199  -1.3304  24.2006   H         1 RES1   0.0000
    98 H40      6.3408   4.4752  25.4287   H         1 RES1   0.0000
    99 H41      5.7930   5.6847  25.8260   H         1 RES1   0.0000
   100 H43     11.1163   7.0151  23.5865   H         1 RES1   0.0000
   101 H44     10.4449   6.3862  23.0447   H         1 RES1   0.0000
   102 H45     10.2473   8.1037  22.1417   H         1 RES1   0.0000
   103 H46     10.3692   2.1771  19.5772   H         1 RES1   0.0000
   104 H47      9.1757   2.5400  19.3966   H         1 RES1   0.0000
   105 H48     10.4224   2.0562  18.4575   H         1 RES1   0.0000
   106 H49     12.8403   5.9266  20.6969   H         1 RES1   0.0000
   107 H50     14.9215   5.3218  20.4079   H         1 RES1   0.0000
   108 H51     14.6330   6.1685  19.9023   H         1 RES1   0.0000
   109 H52      6.5588   1.0886  23.8755   H         1 RES1   0.0000
   110 H53      6.9864   2.9028  22.9725   H         1 RES1   0.0000
   111 H54      5.4941   2.0562  23.5143   H         1 RES1   0.0000
   112 H55     10.0859   0.1935  20.4802   H         1 RES1   0.0000
   113 H56      9.5896  -1.9110  20.8053   H         1 RES1   0.0000
   114 H57     10.4585  -1.6933  20.2273   H         1 RES1   0.0000
@<TRIPOS>BOND
     1     1     2    1
     2     2     3    1
     3     3     4    1
     4     4     5    1
     5     5    54    2
     6     6     1    1
     7     7     1    1
     8     8     1    1
     9     9     1    1
    10    10    11    1
    11    11    82    1
    12    12    10    1
    13    13    14    1
    14    14    88    1
    15    15    13    1
    16    16    17   ar
    17    17    18   ar
    18    18    19   ar
    19    19    20   ar
    20    20    21   ar
    21    21    16   ar
    22    22    23   ar
    23    23    24   ar
    24    24    25   ar
    25    25    26   ar
    26    26    27   ar
    27    27    22   ar
    28    28    23    1
    29    29    27    1
    30    30    31   ar
    31    31    32   ar
    32    32    33   ar
    33    33    34   ar
    34    34    35   ar
    35    35    30   ar
    36    36    31    1
    37    37    35    1
    38    38    39   ar
    39    39    40   ar
    40    40    41   ar
    41    41    42   ar
    42    42    43   ar
    43    43    38   ar
    44    44    39    1
    45    45    43    1
    46    46    47   ar
    47    47    48   ar
    48    48    49   ar
    49    49    50   ar
    50    50    51   ar
    51    51    46   ar
    52    52    47    1
    53    53    51    1
    54    54     1    1
    55    55     4    1
    56    56     3    2
    57    57     6    2
    58    58     7    3
    59    59     8    3
    60    60     9    3
    61    61     4    1
    62    62     5    1
    63    63    10    1
    64    64    13    1
    65    65    17    1
    66    66    18    1
    67    67    19    1
    68    68    20    1
    69    69    21    1
    70    70    24    1
    71    71    25    1
    72    72    26    1
    73    73    32    1
    74    74    33    1
    75    75    34    1
    76    76    40    1
    77    77    41    1
    78    78    42    1
    79    79    48    1
    80    80    49    1
    81    81    50    1
    82    83    11    1
    83    84    11    1
    84    85    12    1
    85    86    12    1
    86    87    12    1
    87    89    14    1
    88    90    14    1
    89    91    15    1
    90    92    15    1
    91    93    15    1
    92    94    28    1
    93    95    28    1
    94    96    28    1
    95    97    29    1
    96    98    36    1
    97    99    36    1
    98   100    37    1
    99   101    37    1
   100   102    37    1
   101   103    44    1
   102   104    44    1
   103   105    44    1
   104   106    45    1
   105   107    45    1
   106   108    45    1
   107   109    52    1
   108   110    52    1
   109   111    52    1
   110   112    53    1
   111   113    53    1
   112   114    53    1
   113     6    55    1
   114    10    54    1
   115    13    55    1
   116    16    56    1
   117    22    57    1
   118    30    58    1
   119    38    59    1
   120    46    60    1
@<TRIPOS>SUBSTRUCTURE
     1 RES1        1 GROUP             0 ****  ****    0  
