@<TRIPOS>MOLECULE
LICNOB
   114   126     1     0     0
SMALL
NO_CHARGES
****
Generated from the CSD

@<TRIPOS>ATOM
     1 Fe1      1.8477   0.4126   6.2525   Fe        1 RES1   0.0000
     2 Cl1      5.4912  -1.0672   0.5353   Cl        1 RES1   0.0000
     3 Cl2     -0.9590  -2.5917  11.8385   Cl        1 RES1   0.0000
     4 Na1     -2.7016   5.7745   6.7709   Na        1 RES1   0.0000
     5 O1       2.7791   2.0672   6.8269   O.3       1 RES1   0.0000
     6 O2       0.3049   1.5616   5.8470   O.3       1 RES1   0.0000
     7 O3       3.5264  -0.5519   6.0224   O.3       1 RES1   0.0000
     8 O4       0.6319  -1.1319   6.3773   O.3       1 RES1   0.0000
     9 O5      -3.2689   3.5581   6.3064   O.2       1 RES1   0.0000
    10 O6       6.0558   4.5762   6.3357   O.2       1 RES1   0.0000
    11 O7      -2.3780   6.4850   8.9230   O.2       1 RES1   0.0000
    12 O8      -2.5527   7.4222   5.2138   O.2       1 RES1   0.0000
    13 N1       1.3372   0.9840   3.1803   N.2       1 RES1   0.0000
    14 N2       2.5383   0.5703   9.3032   N.2       1 RES1   0.0000
    15 N3      -1.9200   1.9848   7.2425   N.am      1 RES1   0.0000
    16 N4       3.9774   4.0632   5.5439   N.am      1 RES1   0.0000
    17 N5       2.0720   0.5195   4.1259   N.2       1 RES1   0.0000
    18 N6       1.8112   0.1148   8.3548   N.2       1 RES1   0.0000
    19 C1       3.5949   2.2557   7.8280   C.ar      1 RES1   0.0000
    20 C2       3.4790   1.5353   9.0425   C.ar      1 RES1   0.0000
    21 C3       4.3456   1.8077  10.1659   C.ar      1 RES1   0.0000
    22 C4       4.2343   1.1295  11.3962   C.ar      1 RES1   0.0000
    23 C5       5.1062   1.3959  12.4211   C.ar      1 RES1   0.0000
    24 C6       6.1281   2.3485  12.2724   C.ar      1 RES1   0.0000
    25 C7       6.2476   3.0412  11.1028   C.ar      1 RES1   0.0000
    26 C8       5.3621   2.7889  10.0200   C.ar      1 RES1   0.0000
    27 C9       5.4780   3.4783   8.7933   C.ar      1 RES1   0.0000
    28 C10      4.6551   3.2470   7.7202   C.ar      1 RES1   0.0000
    29 C11      4.9571   4.0276   6.4708   C.2       1 RES1   0.0000
    30 C12      4.0028   4.6763   4.2719   C.ar      1 RES1   0.0000
    31 C13      4.8662   5.7221   3.9321   C.ar      1 RES1   0.0000
    32 C14      4.8052   6.2672   2.6556   C.ar      1 RES1   0.0000
    33 C15      3.8985   5.8043   1.7252   C.ar      1 RES1   0.0000
    34 C16      3.0300   4.7765   2.0621   C.ar      1 RES1   0.0000
    35 C17      3.0716   4.2140   3.3254   C.ar      1 RES1   0.0000
    36 C18     -0.3541   1.8804   4.7729   C.ar      1 RES1   0.0000
    37 C19      0.1507   1.6244   3.4648   C.ar      1 RES1   0.0000
    38 C20     -0.6020   2.0150   2.2960   C.ar      1 RES1   0.0000
    39 C21     -0.1548   1.7548   0.9783   C.ar      1 RES1   0.0000
    40 C22     -0.9246   2.1214  -0.1105   C.ar      1 RES1   0.0000
    41 C23     -2.1629   2.7590   0.0630   C.ar      1 RES1   0.0000
    42 C24     -2.6131   3.0291   1.3245   C.ar      1 RES1   0.0000
    43 C25     -1.8513   2.6628   2.4624   C.ar      1 RES1   0.0000
    44 C26     -2.3340   2.9029   3.7788   C.ar      1 RES1   0.0000
    45 C27     -1.6477   2.5212   4.8993   C.ar      1 RES1   0.0000
    46 C28     -2.3332   2.7467   6.2140   C.2       1 RES1   0.0000
    47 C29     -2.3955   1.9526   8.5817   C.ar      1 RES1   0.0000
    48 C30     -2.9457   3.0499   9.2261   C.ar      1 RES1   0.0000
    49 C31     -3.3144   2.9470  10.5623   C.ar      1 RES1   0.0000
    50 C32     -3.1225   1.7621  11.2620   C.ar      1 RES1   0.0000
    51 C33     -2.5666   0.6730  10.6224   C.ar      1 RES1   0.0000
    52 C34     -2.2216   0.7589   9.2769   C.ar      1 RES1   0.0000
    53 C35      0.2699  -1.4928   7.5961   C.ar      1 RES1   0.0000
    54 C36     -0.7251  -2.4633   7.8439   C.ar      1 RES1   0.0000
    55 C37     -1.0973  -2.7785   9.1351   C.ar      1 RES1   0.0000
    56 C38     -0.4660  -2.1562  10.2200   C.ar      1 RES1   0.0000
    57 C39      0.5162  -1.2036  10.0345   C.ar      1 RES1   0.0000
    58 C40      0.8762  -0.8719   8.7184   C.ar      1 RES1   0.0000
    59 C41      3.9846  -0.6896   4.7877   C.ar      1 RES1   0.0000
    60 C42      3.2557  -0.1234   3.7083   C.ar      1 RES1   0.0000
    61 C43      3.6980  -0.2448   2.3866   C.ar      1 RES1   0.0000
    62 C44      4.8648  -0.9381   2.1549   C.ar      1 RES1   0.0000
    63 C45      5.5974  -1.5227   3.1995   C.ar      1 RES1   0.0000
    64 C46      5.1548  -1.4074   4.5059   C.ar      1 RES1   0.0000
    65 C47     -1.0250   6.6917  10.8580   C.3       1 RES1   0.0000
    66 C48     -2.0479   7.1656   9.8796   C.2       1 RES1   0.0000
    67 C49     -2.6740   8.5031  10.1145   C.3       1 RES1   0.0000
    68 C50     -1.3896   9.1980   6.2745   C.3       1 RES1   0.0000
    69 C51     -2.1240   8.5676   5.1375   C.2       1 RES1   0.0000
    70 C52     -2.2959   9.3751   3.8887   C.3       1 RES1   0.0000
    71 H1      -1.2625   1.4277   7.0615   H         1 RES1   0.0000
    72 H2       3.5491   0.4828  11.5173   H         1 RES1   0.0000
    73 H3       3.2290   3.6532   5.7587   H         1 RES1   0.0000
    74 H4       5.0187   0.9280  13.2438   H         1 RES1   0.0000
    75 H5       6.7330   2.5120  12.9859   H         1 RES1   0.0000
    76 H6       6.9285   3.6976  11.0120   H         1 RES1   0.0000
    77 H7       6.1590   4.1344   8.7064   H         1 RES1   0.0000
    78 H8       5.4882   6.0553   4.5664   H         1 RES1   0.0000
    79 H9       5.3989   6.9712   2.4201   H         1 RES1   0.0000
    80 H10      3.8695   6.1878   0.8567   H         1 RES1   0.0000
    81 H11      2.4054   4.4565   1.4226   H         1 RES1   0.0000
    82 H12      2.4691   3.5161   3.5531   H         1 RES1   0.0000
    83 H13     -0.6108   1.9388  -0.9883   H         1 RES1   0.0000
    84 H14      0.6816   1.3247   0.8409   H         1 RES1   0.0000
    85 H15     -2.6863   3.0014  -0.6922   H         1 RES1   0.0000
    86 H16     -3.4473   3.4688   1.4410   H         1 RES1   0.0000
    87 H17     -3.1678   3.3466   3.8847   H         1 RES1   0.0000
    88 H18     -3.0705   3.8661   8.7577   H         1 RES1   0.0000
    89 H19     -3.7012   3.6953  11.0014   H         1 RES1   0.0000
    90 H20     -3.3723   1.7027  12.1766   H         1 RES1   0.0000
    91 H21     -2.4213  -0.1343  11.1015   H         1 RES1   0.0000
    92 H22     -1.8658  -0.0008   8.8314   H         1 RES1   0.0000
    93 H23     -1.1419  -2.9051   7.1141   H         1 RES1   0.0000
    94 H24     -1.7826  -3.4185   9.2881   H         1 RES1   0.0000
    95 H25      0.9360  -0.7842  10.7764   H         1 RES1   0.0000
    96 H26      3.2077   0.1397   1.6700   H         1 RES1   0.0000
    97 H27      6.3980  -1.9976   3.0096   H         1 RES1   0.0000
    98 H28      5.6445  -1.8149   5.2112   H         1 RES1   0.0000
    99 H29     -1.4673   6.1976  11.5805   H         1 RES1   0.0000
   100 H30     -0.5493   7.4615  11.2331   H         1 RES1   0.0000
   101 H31     -0.3861   6.1021  10.4040   H         1 RES1   0.0000
   102 H32     -2.1509   9.1937   9.6552   H         1 RES1   0.0000
   103 H33     -2.6917   8.6932  11.0751   H         1 RES1   0.0000
   104 H34     -3.5897   8.5018   9.7658   H         1 RES1   0.0000
   105 H35     -0.7420   9.8465   5.9258   H         1 RES1   0.0000
   106 H36     -0.9158   8.5049   6.7812   H         1 RES1   0.0000
   107 H37     -2.0268   9.6552   6.8627   H         1 RES1   0.0000
   108 H38     -1.5282   9.2282   3.2965   H         1 RES1   0.0000
   109 H39     -2.3538  10.3247   4.1190   H         1 RES1   0.0000
   110 H40     -3.1177   9.0984   3.4307   H         1 RES1   0.0000
   111 Na1A    -5.5816   3.7203   6.3887   Na        1 RES1   0.0000
   112 Na1A     8.2349   3.7203   6.3887   Na        1 RES1   0.0000
   113 O5A     -5.0143   5.9368   6.8533   O.2       1 RES1   0.0000
   114 O6A     -0.5225   4.9187   6.8239   O.2       1 RES1   0.0000
@<TRIPOS>BOND
     1     1     5    1
     2     2    62    1
     3     3    56    1
     4     4     9    1
     5     5    19    1
     6     6     1    1
     7     7     1    1
     8     8     1    1
     9     9    46    2
    10    10    29    2
    11    11     4    1
    12    12     4    1
    13    13    17    2
    14    14    18    2
    15    15    46   am
    16    16    29   am
    17    17     1    1
    18    18     1    1
    19    19    20   ar
    20    20    14    1
    21    21    20   ar
    22    22    21   ar
    23    23    22   ar
    24    24    23   ar
    25    25    24   ar
    26    26    21   ar
    27    27    26   ar
    28    28    19   ar
    29    29    28    1
    30    30    16    1
    31    31    30   ar
    32    32    31   ar
    33    33    32   ar
    34    34    33   ar
    35    35    30   ar
    36    36     6    1
    37    37    13    1
    38    38    37   ar
    39    39    38   ar
    40    40    39   ar
    41    41    40   ar
    42    42    41   ar
    43    43    38   ar
    44    44    43   ar
    45    45    36   ar
    46    46    45    1
    47    47    15    1
    48    48    47   ar
    49    49    48   ar
    50    50    49   ar
    51    51    50   ar
    52    52    47   ar
    53    53     8    1
    54    54    53   ar
    55    55    54   ar
    56    56    55   ar
    57    57    56   ar
    58    58    18    1
    59    59     7    1
    60    60    17    1
    61    61    60   ar
    62    62    61   ar
    63    63    62   ar
    64    64    59   ar
    65    65    66    1
    66    66    11    2
    67    67    66    1
    68    68    69    1
    69    69    12    2
    70    70    69    1
    71    71    15    1
    72    72    22    1
    73    73    16    1
    74    74    23    1
    75    75    24    1
    76    76    25    1
    77    77    27    1
    78    78    31    1
    79    79    32    1
    80    80    33    1
    81    81    34    1
    82    82    35    1
    83    83    40    1
    84    84    39    1
    85    85    41    1
    86    86    42    1
    87    87    44    1
    88    88    48    1
    89    89    49    1
    90    90    50    1
    91    91    51    1
    92    92    52    1
    93    93    54    1
    94    94    55    1
    95    95    57    1
    96    96    61    1
    97    97    63    1
    98    98    64    1
    99    99    65    1
   100   100    65    1
   101   101    65    1
   102   102    67    1
   103   103    67    1
   104   104    67    1
   105   105    68    1
   106   106    68    1
   107   107    68    1
   108   108    70    1
   109   109    70    1
   110   110    70    1
   111   111     9   un
   112   112    10   un
   113   113     4   un
   114   114     4   un
   115    25    26   ar
   116    27    28   ar
   117    34    35   ar
   118    36    37   ar
   119    42    43   ar
   120    44    45   ar
   121    51    52   ar
   122    53    58   ar
   123    57    58   ar
   124    59    60   ar
   125    63    64   ar
   126   111   113   un
@<TRIPOS>SUBSTRUCTURE
     1 RES1        1 GROUP             0 ****  ****    0  
@<TRIPOS>CRYSIN
   13.8165   13.8623   14.1524   98.8719  105.3882  109.0641     2     1
