@<TRIPOS>MOLECULE
LIGFOA
   120   127     3     0     0
SMALL
USER_CHARGES
****
Generated from the CSD

@<TRIPOS>ATOM
     1 B1       8.2595   1.8974   3.0228   B         1 RES1  -1.0000
     2 C1       9.7399   2.6134   2.8483   C.ar      1 RES1   0.0000
     3 C2      10.4196   2.6209   1.6196   C.ar      1 RES1   0.0000
     4 H1      10.0578   2.1177   0.8996   H         1 RES1   0.0000
     5 C3      11.5975   3.3300   1.4058   C.ar      1 RES1   0.0000
     6 H2      12.0160   3.3095   0.5533   H         1 RES1   0.0000
     7 C4      12.1607   4.0663   2.4364   C.ar      1 RES1   0.0000
     8 H3      12.9507   4.5742   2.2936   H         1 RES1   0.0000
     9 C5      11.5482   4.0465   3.6778   C.ar      1 RES1   0.0000
    10 H4      11.9334   4.5275   4.4009   H         1 RES1   0.0000
    11 C6      10.3705   3.3261   3.8757   C.ar      1 RES1   0.0000
    12 H5       9.9804   3.3186   4.7419   H         1 RES1   0.0000
    13 C7       8.0054   1.5964   4.6229   C.ar      1 RES1   0.0000
    14 C8       8.3195   0.3659   5.2190   C.ar      1 RES1   0.0000
    15 H6       8.6315  -0.3403   4.6654   H         1 RES1   0.0000
    16 C9       8.1945   0.1339   6.5864   C.ar      1 RES1   0.0000
    17 H7       8.4285  -0.7141   6.9450   H         1 RES1   0.0000
    18 C10      7.7308   1.1332   7.4264   C.ar      1 RES1   0.0000
    19 H8       7.6395   0.9777   8.3590   H         1 RES1   0.0000
    20 C11      7.4021   2.3659   6.8791   C.ar      1 RES1   0.0000
    21 H9       7.0796   3.0619   7.4398   H         1 RES1   0.0000
    22 C12      7.5432   2.5858   5.5121   C.ar      1 RES1   0.0000
    23 H10      7.3179   3.4404   5.1637   H         1 RES1   0.0000
    24 C13      7.1082   2.9164   2.4167   C.ar      1 RES1   0.0000
    25 C14      5.8010   2.9564   2.9225   C.ar      1 RES1   0.0000
    26 H11      5.5812   2.3908   3.6536   H         1 RES1   0.0000
    27 C15      4.8103   3.7853   2.4045   C.ar      1 RES1   0.0000
    28 H12      3.9395   3.7757   2.7839   H         1 RES1   0.0000
    29 C16      5.0885   4.6238   1.3387   C.ar      1 RES1   0.0000
    30 H13      4.4186   5.1973   0.9854   H         1 RES1   0.0000
    31 C17      6.3654   4.6094   0.7970   C.ar      1 RES1   0.0000
    32 H14      6.5739   5.1713   0.0599   H         1 RES1   0.0000
    33 C18      7.3428   3.7725   1.3318   C.ar      1 RES1   0.0000
    34 H15      8.2095   3.7827   0.9428   H         1 RES1   0.0000
    35 C19      8.2360   0.4811   2.1882   C.ar      1 RES1   0.0000
    36 C20      9.3683  -0.3499   2.1546   C.ar      1 RES1   0.0000
    37 H16     10.1498  -0.0676   2.6150   H         1 RES1   0.0000
    38 C21      9.4003  -1.5635   1.4816   C.ar      1 RES1   0.0000
    39 H17     10.1970  -2.0810   1.4745   H         1 RES1   0.0000
    40 C22      8.2721  -2.0213   0.8200   C.ar      1 RES1   0.0000
    41 H18      8.2834  -2.8541   0.3630   H         1 RES1   0.0000
    42 C23      7.1256  -1.2400   0.8376   C.ar      1 RES1   0.0000
    43 H19      6.3418  -1.5411   0.3933   H         1 RES1   0.0000
    44 C24      7.1176  -0.0127   1.5053   C.ar      1 RES1   0.0000
    45 H20      6.3224   0.5071   1.4957   H         1 RES1   0.0000
    46 C25      8.8105   8.9777   1.8772   C.3       2 RES2   0.0000
    47 H21      9.7226   9.2689   2.1286   H         2 RES2   0.0000
    48 H22      8.7126   9.0736   0.8967   H         2 RES2   0.0000
    49 C26      8.6028   7.5335   2.2765   C.3       2 RES2   0.0000
    50 H23      7.7157   7.2303   1.9582   H         2 RES2   0.0000
    51 H24      9.2917   6.9713   1.8412   H         2 RES2   0.0000
    52 C27     10.0873   7.4518   4.2548   C.3       2 RES2   0.0000
    53 H25     10.7102   7.2075   3.5252   H         2 RES2   0.0000
    54 H26     10.2122   6.8013   4.9906   H         2 RES2   0.0000
    55 C28     10.4341   8.8470   4.7594   C.3       2 RES2   0.0000
    56 H27     11.2945   8.8202   5.2483   H         2 RES2   0.0000
    57 H28     10.5345   9.4636   3.9914   H         2 RES2   0.0000
    58 C29      9.4680  10.8000   5.8872   C.3       2 RES2   0.0000
    59 H29      9.8628  11.2402   5.0932   H         2 RES2   0.0000
    60 H30     10.0538  10.9786   6.6651   H         2 RES2   0.0000
    61 C30      8.0801  11.3541   6.1481   C.3       2 RES2   0.0000
    62 H31      7.7278  10.9678   6.9888   H         2 RES2   0.0000
    63 H32      8.1378  12.3355   6.2649   H         2 RES2   0.0000
    64 C31      7.4139  11.8863   3.8333   C.3       2 RES2   0.0000
    65 H33      7.8522  12.7270   4.1182   H         2 RES2   0.0000
    66 H34      6.5536  12.1240   3.4050   H         2 RES2   0.0000
    67 C32      8.2997  11.1875   2.8112   C.3       2 RES2   0.0000
    68 H35      8.2967  11.6980   1.9629   H         2 RES2   0.0000
    69 H36      9.2306  11.1507   3.1462   H         2 RES2   0.0000
    70 C33      6.5827   9.8838   1.7296   C.3       2 RES2   0.0000
    71 H37      5.8927  10.4002   2.1961   H         2 RES2   0.0000
    72 H38      6.2534   8.9764   1.5606   H         2 RES2   0.0000
    73 H39      6.7956  10.3182   0.8773   H         2 RES2   0.0000
    74 C34      8.1488   6.0051   4.0651   C.3       2 RES2   0.0000
    75 H40      7.2148   5.9474   3.7741   H         2 RES2   0.0000
    76 H41      8.2001   5.8501   5.0314   H         2 RES2   0.0000
    77 H42      8.6793   5.3270   3.5968   H         2 RES2   0.0000
    78 C35      9.4676   8.6393   6.9643   C.3       2 RES2   0.0000
    79 H43      9.2741   7.6866   6.8404   H         2 RES2   0.0000
    80 H44      8.8210   9.0249   7.5917   H         2 RES2   0.0000
    81 H45     10.3735   8.7447   7.3228   H         2 RES2   0.0000
    82 C36      5.7593  11.3208   5.5127   C.3       2 RES2   0.0000
    83 H46      5.5566  10.7429   6.2779   H         2 RES2   0.0000
    84 H47      5.1238  11.1392   4.7890   H         2 RES2   0.0000
    85 H48      5.6860  12.2596   5.7838   H         2 RES2   0.0000
    86 C37      4.7487   7.9827   4.8404   C.3       2 RES2   0.0000
    87 H49      4.2221   8.8213   4.9800   H         2 RES2   0.0000
    88 C38      3.8101   6.9480   4.2362   C.3       2 RES2   0.0000
    89 H50      4.2321   6.0561   4.3158   H         2 RES2   0.0000
    90 H51      3.7057   7.1435   3.2713   H         2 RES2   0.0000
    91 C39      2.4236   6.8871   4.8714   C.3       2 RES2   0.0000
    92 H52      2.0092   7.7831   4.7971   H         2 RES2   0.0000
    93 H53      1.8684   6.2600   4.3437   H         2 RES2   0.0000
    94 C40      2.3712   6.4570   6.3325   C.3       2 RES2   0.0000
    95 H54      1.4249   6.3157   6.5870   H         2 RES2   0.0000
    96 H55      2.7246   7.1933   6.8920   H         2 RES2   0.0000
    97 C41      3.1609   5.1774   6.6487   C.3       2 RES2   0.0000
    98 H56      2.6189   4.6157   7.2576   H         2 RES2   0.0000
    99 H57      3.2869   4.6699   5.8080   H         2 RES2   0.0000
   100 C42      4.5333   5.4054   7.2897   C.3       2 RES2   0.0000
   101 H58      4.8874   4.5218   7.5615   H         2 RES2   0.0000
   102 H59      4.3938   5.9295   8.1178   H         2 RES2   0.0000
   103 C43      5.6214   6.1096   6.4732   C.3       2 RES2   0.0000
   104 H60      5.7015   5.6483   5.6010   H         2 RES2   0.0000
   105 H61      6.4840   5.9988   6.9464   H         2 RES2   0.0000
   106 C44      5.4085   7.6091   6.2066   C.3       2 RES2   0.0000
   107 H62      4.8235   7.9670   6.9344   H         2 RES2   0.0000
   108 Fe1      7.3795   8.8890   4.6190   Fe        2 RES2   1.0000
   109 N1       7.8034   9.8182   2.5694   N.3       2 RES2   0.0000
   110 N2       8.6831   7.3560   3.7511   N.3       2 RES2   0.0000
   111 N3       9.3674   9.3396   5.6565   N.3       2 RES2   0.0000
   112 N4       7.1410  11.0484   5.0385   N.3       2 RES2   0.0000
   113 O1       5.7734   8.2739   3.9151   O.3       2 RES2   0.0000
   114 O2       6.6624   8.2916   6.2821   O.3       2 RES2   0.0000
   115 C45      5.9891   9.7782   9.2477   C.3       3 RES3   0.0000
   116 H63      5.6150   9.7922  10.1533   H         3 RES3   0.0000
   117 H64      5.2652   9.8721   8.5937   H         3 RES3   0.0000
   118 H65      6.6213  10.5198   9.1438   H         3 RES3   0.0000
   119 O3       6.6572   8.5596   9.0352   O.3       3 RES3   0.0000
   120 H66      6.7875   8.4514   8.2125   H         3 RES3   0.0000
@<TRIPOS>BOND
     1     1     2    1
     2     2     3   ar
     3     3     4    1
     4     5     3   ar
     5     6     5    1
     6     7     5   ar
     7     8     7    1
     8     9     7   ar
     9    10     9    1
    10    11     2   ar
    11    12    11    1
    12    13     1    1
    13    14    13   ar
    14    15    14    1
    15    16    14   ar
    16    17    16    1
    17    18    16   ar
    18    19    18    1
    19    20    18   ar
    20    21    20    1
    21    22    13   ar
    22    23    22    1
    23    24     1    1
    24    25    24   ar
    25    26    25    1
    26    27    25   ar
    27    28    27    1
    28    29    27   ar
    29    30    29    1
    30    31    29   ar
    31    32    31    1
    32    33    24   ar
    33    34    33    1
    34    35     1    1
    35    36    35   ar
    36    37    36    1
    37    38    36   ar
    38    39    38    1
    39    40    38   ar
    40    41    40    1
    41    42    40   ar
    42    43    42    1
    43    44    35   ar
    44    45    44    1
    45     9    11   ar
    46    20    22   ar
    47    31    33   ar
    48    42    44   ar
    49    46    47    1
    50    48    46    1
    51    49    46    1
    52    50    49    1
    53    51    49    1
    54    52    53    1
    55    54    52    1
    56    55    52    1
    57    56    55    1
    58    57    55    1
    59    58    59    1
    60    60    58    1
    61    61    58    1
    62    62    61    1
    63    63    61    1
    64    64    65    1
    65    66    64    1
    66    67    64    1
    67    68    67    1
    68    69    67    1
    69    70    71    1
    70    72    70    1
    71    73    70    1
    72    74    75    1
    73    76    74    1
    74    77    74    1
    75    78    79    1
    76    80    78    1
    77    81    78    1
    78    82    83    1
    79    84    82    1
    80    85    82    1
    81    86    87    1
    82    88    86    1
    83    89    88    1
    84    90    88    1
    85    91    88    1
    86    92    91    1
    87    93    91    1
    88    94    91    1
    89    95    94    1
    90    96    94    1
    91    97    94    1
    92    98    97    1
    93    99    97    1
    94   100    97    1
    95   101   100    1
    96   102   100    1
    97   103   100    1
    98   104   103    1
    99   105   103    1
   100   106    86    1
   101   107   106    1
   102   108   109    1
   103   109    46    1
   104   110    49    1
   105   111    55    1
   106   112    61    1
   107   113    86    1
   108   114   106    1
   109    52   110    1
   110    58   111    1
   111    64   112    1
   112    67   109    1
   113    70   109    1
   114    74   110    1
   115    78   111    1
   116    82   112    1
   117   103   106    1
   118   108   110    1
   119   108   111    1
   120   108   112    1
   121   108   113    1
   122   108   114    1
   123   115   116    1
   124   117   115    1
   125   118   115    1
   126   119   115    1
   127   120   119    1
@<TRIPOS>SUBSTRUCTURE
     1 RES1        1 GROUP             0 ****  ****    0  
     2 RES2       46 GROUP             0 ****  ****    0  
     3 RES3      115 GROUP             0 ****  ****    0  
@<TRIPOS>CRYSIN
   11.4791   11.7860   17.1163   79.4640   88.8090   64.6040     2     1
