@<TRIPOS>MOLECULE
LIJROP
   105   112     2     0     0
SMALL
NO_CHARGES
****
Generated from the CSD

@<TRIPOS>ATOM
     1 Fe1     -3.5438  12.5002   9.7508   Fe        1 RES1   0.0000
     2 P1      -4.9470  14.2393   8.6550   P.3       1 RES1   0.0000
     3 F1      -6.9252  10.9051   4.0931   F         1 RES1   0.0000
     4 O1      -3.8067  12.5416  11.9468   O.co2     1 RES1   0.0000
     5 O2      -5.2927  11.4748  10.7351   O.co2     1 RES1   0.0000
     6 O3      -1.8307  13.5281   9.9369   O.co2     1 RES1   0.0000
     7 O4      -1.1086  12.5894   8.0610   O.co2     1 RES1   0.0000
     8 N1      -2.6588  10.5459   9.9658   N.ar      1 RES1   0.0000
     9 N2      -4.2856  11.3812   8.0420   N.ar      1 RES1   0.0000
    10 C1      -4.8164  11.7799  11.8570   C.2       1 RES1   0.0000
    11 C2      -5.4097  11.1382  13.1147   C.3       1 RES1   0.0000
    12 C3      -6.9237  11.0295  12.9706   C.3       1 RES1   0.0000
    13 H1      -7.3094  11.9269  12.8894   H         1 RES1   0.0000
    14 H2      -7.2960  10.5844  13.7605   H         1 RES1   0.0000
    15 H3      -7.1392  10.5077  12.1697   H         1 RES1   0.0000
    16 C4      -5.0296  11.9219  14.3575   C.3       1 RES1   0.0000
    17 H4      -4.0533  11.9384  14.4471   H         1 RES1   0.0000
    18 H5      -5.4224  11.4943  15.1466   H         1 RES1   0.0000
    19 H6      -5.3655  12.8392  14.2810   H         1 RES1   0.0000
    20 C5      -4.8157   9.7315  13.1884   C.3       1 RES1   0.0000
    21 H7      -5.1761   9.2656  13.9717   H         1 RES1   0.0000
    22 H8      -3.8408   9.7922  13.2641   H         1 RES1   0.0000
    23 H9      -5.0504   9.2351  12.3766   H         1 RES1   0.0000
    24 C6      -0.9205  13.2719   9.0716   C.2       1 RES1   0.0000
    25 C7       0.4514  13.9076   9.3527   C.3       1 RES1   0.0000
    26 C8       0.7946  13.7233  10.8273   C.3       1 RES1   0.0000
    27 H10      0.8401  12.7667  11.0351   H         1 RES1   0.0000
    28 H11      0.1029  14.1448  11.3789   H         1 RES1   0.0000
    29 H12      1.6614  14.1401  11.0155   H         1 RES1   0.0000
    30 C9       0.3413  15.4031   9.0505   C.3       1 RES1   0.0000
    31 H13     -0.3684  15.7961   9.6010   H         1 RES1   0.0000
    32 H14      0.1265  15.5298   8.1026   H         1 RES1   0.0000
    33 H15      1.1932  15.8414   9.2541   H         1 RES1   0.0000
    34 C10      1.5273  13.2813   8.4691   C.3       1 RES1   0.0000
    35 H16      1.2703  13.3719   7.5277   H         1 RES1   0.0000
    36 H17      1.6212  12.3316   8.6922   H         1 RES1   0.0000
    37 H18      2.3809  13.7383   8.6202   H         1 RES1   0.0000
    38 C11     -6.4566  14.9089   9.4924   C.3       1 RES1   0.0000
    39 H19     -6.8766  15.6055   8.9108   H         1 RES1   0.0000
    40 C12     -7.4654  13.7781   9.7418   C.3       1 RES1   0.0000
    41 H20     -7.8274  13.4678   8.8741   H         1 RES1   0.0000
    42 H21     -7.0001  13.0150  10.1677   H         1 RES1   0.0000
    43 C13     -8.6181  14.2242  10.6351   C.3       1 RES1   0.0000
    44 H22     -9.1558  14.9055  10.1588   H         1 RES1   0.0000
    45 H23     -9.2049  13.4492  10.8226   H         1 RES1   0.0000
    46 C14     -8.1212  14.8050  11.9463   C.3       1 RES1   0.0000
    47 H24     -7.6387  14.1073  12.4563   H         1 RES1   0.0000
    48 H25     -8.8931  15.1049  12.4894   H         1 RES1   0.0000
    49 C15     -7.1936  15.9811  11.6877   C.3       1 RES1   0.0000
    50 H26     -6.8607  16.3354  12.5503   H         1 RES1   0.0000
    51 H27     -7.6939  16.7032  11.2317   H         1 RES1   0.0000
    52 C16     -6.0051  15.5545  10.8179   C.3       1 RES1   0.0000
    53 H28     -5.4490  14.9083  11.3213   H         1 RES1   0.0000
    54 H29     -5.4460  16.3470  10.6197   H         1 RES1   0.0000
    55 C17     -4.0615  15.7196   7.9513   C.3       1 RES1   0.0000
    56 H30     -3.5157  16.0993   8.6982   H         1 RES1   0.0000
    57 C18     -4.9318  16.8691   7.4301   C.3       1 RES1   0.0000
    58 H31     -5.5357  17.1790   8.1508   H         1 RES1   0.0000
    59 H32     -5.4905  16.5460   6.6793   H         1 RES1   0.0000
    60 C19     -4.0617  18.0387   6.9536   C.3       1 RES1   0.0000
    61 H33     -4.6432  18.7555   6.5960   H         1 RES1   0.0000
    62 H34     -3.5594  18.4080   7.7228   H         1 RES1   0.0000
    63 C20     -3.0846  17.6027   5.8792   C.3       1 RES1   0.0000
    64 H35     -2.5076  18.3669   5.6272   H         1 RES1   0.0000
    65 H36     -3.5842  17.3165   5.0742   H         1 RES1   0.0000
    66 C21     -2.2148  16.4494   6.3766   C.3       1 RES1   0.0000
    67 H37     -1.6352  16.7705   7.1124   H         1 RES1   0.0000
    68 H38     -1.6292  16.1403   5.6404   H         1 RES1   0.0000
    69 C22     -3.0642  15.2732   6.8767   C.3       1 RES1   0.0000
    70 H39     -3.5580  14.8782   6.1149   H         1 RES1   0.0000
    71 H40     -2.4700  14.5752   7.2506   H         1 RES1   0.0000
    72 C23     -1.8291  10.1924  10.9493   C.ar      1 RES1   0.0000
    73 H41     -1.5569  10.8555  11.5727   H         1 RES1   0.0000
    74 C24     -1.3463   8.9022  11.1033   C.ar      1 RES1   0.0000
    75 H42     -0.7564   8.6835  11.8151   H         1 RES1   0.0000
    76 C25     -1.7477   7.9401  10.1898   C.ar      1 RES1   0.0000
    77 H43     -1.4414   7.0445  10.2719   H         1 RES1   0.0000
    78 C26     -2.5996   8.2949   9.1553   C.ar      1 RES1   0.0000
    79 H44     -2.8798   7.6495   8.5171   H         1 RES1   0.0000
    80 C27     -3.0374   9.6120   9.0682   C.ar      1 RES1   0.0000
    81 C28     -3.9582  10.0918   7.9997   C.ar      1 RES1   0.0000
    82 C29     -4.4579   9.2176   7.0059   C.ar      1 RES1   0.0000
    83 H45     -4.2224   8.2973   7.0103   H         1 RES1   0.0000
    84 C30     -5.2809   9.7157   6.0435   C.ar      1 RES1   0.0000
    85 H46     -5.6086   9.1470   5.3567   H         1 RES1   0.0000
    86 C31     -5.6478  11.0838   6.0674   C.ar      1 RES1   0.0000
    87 C32     -5.1462  11.9040   7.1134   C.ar      1 RES1   0.0000
    88 C33     -5.5642  13.2747   7.2238   C.ar      1 RES1   0.0000
    89 C34     -6.4343  13.7594   6.2680   C.ar      1 RES1   0.0000
    90 H47     -6.7339  14.6582   6.3398   H         1 RES1   0.0000
    91 C35     -6.8973  12.9776   5.1890   C.ar      1 RES1   0.0000
    92 H48     -7.4739  13.3476   4.5309   H         1 RES1   0.0000
    93 C36     -6.4979  11.6850   5.1165   C.ar      1 RES1   0.0000
    94 C37     -9.3241   9.8174   6.3310   C.ar      2 RES2   0.0000
    95 H49     -9.8019  10.1008   5.5607   H         2 RES2   0.0000
    96 C38     -8.9628   8.5028   6.4709   C.ar      2 RES2   0.0000
    97 H50     -9.1833   7.8747   5.7932   H         2 RES2   0.0000
    98 C39     -8.2860   8.0971   7.5814   C.ar      2 RES2   0.0000
    99 H51     -8.0436   7.1840   7.6805   H         2 RES2   0.0000
   100 C37B    -7.9523   9.0082   8.5637   C.ar      2 RES2   0.0000
   101 H49B    -7.4745   8.7248   9.3340   H         2 RES2   0.0000
   102 C38B    -8.3136  10.3228   8.4239   C.ar      2 RES2   0.0000
   103 H50B    -8.0932  10.9509   9.1015   H         2 RES2   0.0000
   104 C39B    -8.9905  10.7285   7.3133   C.ar      2 RES2   0.0000
   105 H51B    -9.2329  11.6416   7.2142   H         2 RES2   0.0000
@<TRIPOS>BOND
     1     1     2    1
     2     2    38    1
     3     3    93    1
     4     4     1    1
     5     5     1    1
     6     6     1    1
     7     7    24    2
     8     8     1    1
     9     9     1    1
    10    10     4   un
    11    11    10    1
    12    12    11    1
    13    13    12    1
    14    14    12    1
    15    15    12    1
    16    16    11    1
    17    17    16    1
    18    18    16    1
    19    19    16    1
    20    20    11    1
    21    21    20    1
    22    22    20    1
    23    23    20    1
    24    24     6    1
    25    25    24    1
    26    26    25    1
    27    27    26    1
    28    28    26    1
    29    29    26    1
    30    30    25    1
    31    31    30    1
    32    32    30    1
    33    33    30    1
    34    34    25    1
    35    35    34    1
    36    36    34    1
    37    37    34    1
    38    38    39    1
    39    40    38    1
    40    41    40    1
    41    42    40    1
    42    43    40    1
    43    44    43    1
    44    45    43    1
    45    46    43    1
    46    47    46    1
    47    48    46    1
    48    49    46    1
    49    50    49    1
    50    51    49    1
    51    52    38    1
    52    53    52    1
    53    54    52    1
    54    55     2    1
    55    56    55    1
    56    57    55    1
    57    58    57    1
    58    59    57    1
    59    60    57    1
    60    61    60    1
    61    62    60    1
    62    63    60    1
    63    64    63    1
    64    65    63    1
    65    66    63    1
    66    67    66    1
    67    68    66    1
    68    69    55    1
    69    70    69    1
    70    71    69    1
    71    72     8   ar
    72    73    72    1
    73    74    72   ar
    74    75    74    1
    75    76    74   ar
    76    77    76    1
    77    78    76   ar
    78    79    78    1
    79    80     8   ar
    80    81     9   ar
    81    82    81   ar
    82    83    82    1
    83    84    82   ar
    84    85    84    1
    85    86    84   ar
    86    87     9   ar
    87    88     2    1
    88    89    88   ar
    89    90    89    1
    90    91    89   ar
    91    92    91    1
    92    93    86   ar
    93     5    10   un
    94    49    52    1
    95    66    69    1
    96    78    80   ar
    97    80    81    1
    98    86    87   ar
    99    87    88   ar
   100    91    93   ar
   101    94    95    1
   102    96    94   ar
   103    97    96    1
   104    98    96   ar
   105    99    98    1
   106   100    98   ar
   107   101   100    1
   108   102   100   ar
   109   103   102    1
   110   104    94   ar
   111   105   104    1
   112   102   104   ar
@<TRIPOS>SUBSTRUCTURE
     1 RES1        1 GROUP             0 ****  ****    0  
     2 RES2       94 GROUP             0 ****  ****    0  
@<TRIPOS>CRYSIN
   13.1877   18.8256   22.8107   90.0000  139.2340   90.0000    14     1
