@<TRIPOS>MOLECULE
LIPJIG
   185   192     5     0     0
SMALL
USER_CHARGES
****
Generated from the CSD

@<TRIPOS>ATOM
     1 Fe1      5.3666   4.8740   8.1405   Fe        1 RES1   2.0000
     2 N1       3.8488   3.8750   8.6647   N.ar      1 RES1   0.0000
     3 C1       3.8108   2.5495   8.4488   C.ar      1 RES1   0.0000
     4 C2       2.7578   1.7530   8.8568   C.ar      1 RES1   0.0000
     5 H1       2.7388   0.8212   8.6749   H         1 RES1   0.0000
     6 C3       1.7256   2.3847   9.5484   C.ar      1 RES1   0.0000
     7 C4       1.7542   3.7579   9.8112   C.ar      1 RES1   0.0000
     8 H2       1.0581   4.1881  10.2937   H         1 RES1   0.0000
     9 C5       2.8455   4.4592   9.3361   C.ar      1 RES1   0.0000
    10 N2       4.9632   2.1268   7.7764   N.pl3     1 RES1   0.0000
    11 N3       5.8802   3.1117   7.4710   N.2       1 RES1   0.0000
    12 C6       6.8668   2.4987   6.8328   C.2       1 RES1   0.0000
    13 H3       7.6469   2.9282   6.5003   H         1 RES1   0.0000
    14 C7       6.5949   1.1201   6.7170   C.2       1 RES1   0.0000
    15 H4       7.1457   0.4653   6.3034   H         1 RES1   0.0000
    16 C8       5.3870   0.9124   7.3148   C.2       1 RES1   0.0000
    17 H5       4.9284   0.0837   7.3949   H         1 RES1   0.0000
    18 N4       3.0815   5.8349   9.4758   N.pl3     1 RES1   0.0000
    19 N5       4.2918   6.3066   8.9933   N.2       1 RES1   0.0000
    20 C9       4.2796   7.6098   9.2388   C.2       1 RES1   0.0000
    21 H6       4.9873   8.2063   9.0204   H         1 RES1   0.0000
    22 C10      3.0778   7.9934   9.8690   C.2       1 RES1   0.0000
    23 H7       2.8318   8.8687  10.1435   H         1 RES1   0.0000
    24 C11      2.3368   6.8489  10.0043   C.2       1 RES1   0.0000
    25 H8       1.4720   6.7752  10.3905   H         1 RES1   0.0000
    26 C12      0.5861   1.5227   9.9953   C.2       1 RES1   0.0000
    27 O1       0.4625   0.3703   9.6886   O.2       1 RES1   0.0000
    28 O2      -0.2452   2.2237  10.7709   O.3       1 RES1   0.0000
    29 C13     -1.4500   1.7399  11.3248   C.ar      1 RES1   0.0000
    30 C14     -1.8533   0.4116  11.3470   C.ar      1 RES1   0.0000
    31 H9      -1.3139  -0.2693  10.9613   H         1 RES1   0.0000
    32 C15     -3.0778   0.1026  11.9524   C.ar      1 RES1   0.0000
    33 H10     -3.3784  -0.7980  11.9693   H         1 RES1   0.0000
    34 C16     -3.8594   1.0978  12.5292   C.ar      1 RES1   0.0000
    35 C17     -3.4110   2.4244  12.5124   C.ar      1 RES1   0.0000
    36 H11     -3.9321   3.1064  12.9172   H         1 RES1   0.0000
    37 C18     -2.2116   2.7405  11.9062   C.ar      1 RES1   0.0000
    38 H12     -1.9093   3.6415  11.8875   H         1 RES1   0.0000
    39 O3      -5.0743   0.8989  13.1247   O.3       1 RES1   0.0000
    40 C19     -5.5669  -0.4516  13.1973   C.3       1 RES1   0.0000
    41 H13     -4.9918  -0.9925  13.7951   H         1 RES1   0.0000
    42 H14     -5.5592  -0.8656  12.2981   H         1 RES1   0.0000
    43 C20     -6.9770  -0.4063  13.7358   C.3       1 RES1   0.0000
    44 H15     -7.5449   0.1312  13.1275   H         1 RES1   0.0000
    45 H16     -6.9771   0.0331  14.6228   H         1 RES1   0.0000
    46 C21     -7.5608  -1.8122  13.8667   C.3       1 RES1   0.0000
    47 H17     -6.9765  -2.3507  14.4576   H         1 RES1   0.0000
    48 H18     -7.5702  -2.2425  12.9756   H         1 RES1   0.0000
    49 C22     -8.9799  -1.8085  14.4342   C.3       1 RES1   0.0000
    50 H19     -8.9735  -1.3554  15.3138   H         1 RES1   0.0000
    51 H20     -9.5666  -1.2866  13.8301   H         1 RES1   0.0000
    52 C23     -9.5608  -3.2072  14.6023   C.3       1 RES1   0.0000
    53 H21     -8.9327  -3.7534  15.1385   H         1 RES1   0.0000
    54 H22     -9.6432  -3.6290  13.7116   H         1 RES1   0.0000
    55 C24    -10.9314  -3.2138  15.2847   C.3       1 RES1   0.0000
    56 H23    -10.8856  -2.6700  16.1098   H         1 RES1   0.0000
    57 H24    -11.5961  -2.7944  14.6812   H         1 RES1   0.0000
    58 C25    -11.3967  -4.6212  15.6399   C.3       1 RES1   0.0000
    59 H25    -10.7536  -5.0144  16.2817   H         1 RES1   0.0000
    60 H26    -11.3792  -5.1770  14.8214   H         1 RES1   0.0000
    61 C26    -12.8013  -4.6856  16.2478   C.3       1 RES1   0.0000
    62 H27    -12.8194  -4.1490  17.0794   H         1 RES1   0.0000
    63 H28    -13.4479  -4.2846  15.6142   H         1 RES1   0.0000
    64 C27    -13.2338  -6.1145  16.5654   C.3       1 RES1   0.0000
    65 H29    -13.1227  -6.6689  15.7527   H         1 RES1   0.0000
    66 H30    -12.6337  -6.4806  17.2613   H         1 RES1   0.0000
    67 C28    -14.6764  -6.2370  17.0487   C.3       1 RES1   0.0000
    68 H31    -15.2848  -5.9167  16.3368   H         1 RES1   0.0000
    69 H32    -14.8029  -5.6550  17.8388   H         1 RES1   0.0000
    70 C29    -15.0533  -7.6715  17.4196   C.3       1 RES1   0.0000
    71 H33    -14.9362  -8.2446  16.6205   H         1 RES1   0.0000
    72 H34    -14.4245  -7.9942  18.1125   H         1 RES1   0.0000
    73 C30    -16.4791  -7.8430  17.9384   C.3       1 RES1   0.0000
    74 H35    -16.5960  -7.2898  18.7517   H         1 RES1   0.0000
    75 H36    -17.1130  -7.5117  17.2547   H         1 RES1   0.0000
    76 C31    -16.8176  -9.2895  18.2704   C.3       1 RES1   0.0000
    77 H37    -16.7830  -9.8215  17.4366   H         1 RES1   0.0000
    78 H38    -16.1239  -9.6447  18.8802   H         1 RES1   0.0000
    79 C32    -18.1806  -9.4861  18.9169   C.3       1 RES1   0.0000
    80 H39    -18.2235  -8.9733  19.7513   H         1 RES1   0.0000
    81 H40    -18.3166 -10.4364  19.1105   H         1 RES1   0.0000
    82 H41    -18.8799  -9.1736  18.3061   H         1 RES1   0.0000
    83 N6       6.9723   5.7484   7.6297   N.ar      1 RES1   0.0000
    84 C33      7.0904   6.2972   6.4144   C.ar      1 RES1   0.0000
    85 C34      8.2636   6.8615   5.9568   C.ar      1 RES1   0.0000
    86 H42      8.3293   7.2517   5.0935   H         1 RES1   0.0000
    87 C35      9.3496   6.8271   6.8344   C.ar      1 RES1   0.0000
    88 C36      9.2571   6.2460   8.0963   C.ar      1 RES1   0.0000
    89 H43      9.9955   6.2308   8.6933   H         1 RES1   0.0000
    90 C37      8.0434   5.6963   8.4332   C.ar      1 RES1   0.0000
    91 N7       5.8954   6.1562   5.6929   N.pl3     1 RES1   0.0000
    92 N8       4.8653   5.4977   6.3331   N.2       1 RES1   0.0000
    93 C38      3.8397   5.5481   5.4861   C.2       1 RES1   0.0000
    94 H44      2.9821   5.1716   5.6525   H         1 RES1   0.0000
    95 C39      4.1995   6.2356   4.3107   C.2       1 RES1   0.0000
    96 H45      3.6469   6.4064   3.5564   H         1 RES1   0.0000
    97 C40      5.5060   6.6069   4.4746   C.2       1 RES1   0.0000
    98 H46      6.0393   7.0882   3.8535   H         1 RES1   0.0000
    99 N9       7.7497   4.9874   9.6118   N.pl3     1 RES1   0.0000
   100 N10      6.4486   4.5455   9.7528   N.2       1 RES1   0.0000
   101 C41      6.4445   3.8395  10.8777   C.2       1 RES1   0.0000
   102 H47      5.6771   3.4178  11.2450   H         1 RES1   0.0000
   103 C42      7.7293   3.7997  11.4539   C.2       1 RES1   0.0000
   104 H48      7.9833   3.3541  12.2530   H         1 RES1   0.0000
   105 C43      8.5369   4.5352  10.6255   C.2       1 RES1   0.0000
   106 H49      9.4657   4.6983  10.7377   H         1 RES1   0.0000
   107 C44     10.6927   7.3580   6.4501   C.2       1 RES1   0.0000
   108 O4      11.5493   7.6375   7.2437   O.2       1 RES1   0.0000
   109 O5      10.8327   7.4556   5.1110   O.3       1 RES1   0.0000
   110 C45     12.1367   7.8011   4.6672   C.ar      1 RES1   0.0000
   111 C46     12.4683   9.1260   4.5047   C.ar      1 RES1   0.0000
   112 H50     11.8361   9.8054   4.7079   H         1 RES1   0.0000
   113 C47     13.7373   9.4676   4.0397   C.ar      1 RES1   0.0000
   114 H51     13.9783  10.3788   3.9252   H         1 RES1   0.0000
   115 C48     14.6469   8.4546   3.7443   C.ar      1 RES1   0.0000
   116 C49     14.2905   7.1149   3.9204   C.ar      1 RES1   0.0000
   117 H52     14.9176   6.4301   3.7216   H         1 RES1   0.0000
   118 C50     13.0257   6.7780   4.3842   C.ar      1 RES1   0.0000
   119 H53     12.7767   5.8697   4.5043   H         1 RES1   0.0000
   120 O6      15.9229   8.6706   3.2954   O.3       1 RES1   0.0000
   121 C51     16.3118  10.0447   3.1125   C.3       1 RES1   0.0000
   122 H54     16.2598  10.5294   3.9736   H         1 RES1   0.0000
   123 H55     15.7044  10.4869   2.4683   H         1 RES1   0.0000
   124 C52     17.7293  10.0715   2.5886   C.3       1 RES1   0.0000
   125 H56     17.7845   9.5418   1.7540   H         1 RES1   0.0000
   126 H57     18.3367   9.6609   3.2543   H         1 RES1   0.0000
   127 C53     18.1720  11.5118   2.3107   C.3       1 RES1   0.0000
   128 H58     17.5107  11.9443   1.7156   H         1 RES1   0.0000
   129 H59     18.1884  12.0154   3.1626   H         1 RES1   0.0000
   130 C54     19.5522  11.5852   1.6610   C.3       1 RES1   0.0000
   131 H60     20.2247  11.2279   2.2931   H         1 RES1   0.0000
   132 H61     19.5601  11.0109   0.8545   H         1 RES1   0.0000
   133 C55     19.9504  13.0014   1.2629   C.3       1 RES1   0.0000
   134 H62     19.9333  13.5794   2.0661   H         1 RES1   0.0000
   135 H63     19.2855  13.3558   0.6208   H         1 RES1   0.0000
   136 C56     21.3390  13.0686   0.6297   C.3       1 RES1   0.0000
   137 H64     21.3308  12.5544  -0.2170   H         1 RES1   0.0000
   138 H65     21.9907  12.6380   1.2383   H         1 RES1   0.0000
   139 C57     21.8019  14.4972   0.3378   C.3       1 RES1   0.0000
   140 H66     21.7806  15.0179   1.1799   H         1 RES1   0.0000
   141 H67     21.1629  14.9165  -0.2921   H         1 RES1   0.0000
   142 C58     23.2090  14.5809  -0.2587   C.3       1 RES1   0.0000
   143 H68     23.8416  14.1100   0.3388   H         1 RES1   0.0000
   144 H69     23.2177  14.1176  -1.1332   H         1 RES1   0.0000
   145 C59     23.6803  16.0160  -0.4508   C.3       1 RES1   0.0000
   146 H70     23.6772  16.4712   0.4289   H         1 RES1   0.0000
   147 H71     23.0342  16.4869  -1.0347   H         1 RES1   0.0000
   148 C60     25.0704  16.1461  -1.0606   C.3       1 RES1   0.0000
   149 H72     25.7053  15.5931  -0.5391   H         1 RES1   0.0000
   150 H73     25.0520  15.7937  -1.9860   H         1 RES1   0.0000
   151 C61     25.5703  17.5847  -1.0871   C.3       1 RES1   0.0000
   152 H74     24.9197  18.1340  -1.5921   H         1 RES1   0.0000
   153 H75     25.5911  17.9261  -0.1585   H         1 RES1   0.0000
   154 C62     26.9449  17.7806  -1.7031   C.3       1 RES1   0.0000
   155 H76     26.9261  17.4596  -2.6385   H         1 RES1   0.0000
   156 H77     27.6003  17.2281  -1.2083   H         1 RES1   0.0000
   157 C63     27.4083  19.2278  -1.6883   C.3       1 RES1   0.0000
   158 H78     26.6986  19.7942  -2.0828   H         1 RES1   0.0000
   159 H79     27.5319  19.5132  -0.7477   H         1 RES1   0.0000
   160 C64     28.7029  19.4700  -2.4459   C.3       1 RES1   0.0000
   161 H80     29.4240  18.9460  -2.0377   H         1 RES1   0.0000
   162 H81     28.9306  20.4231  -2.4082   H         1 RES1   0.0000
   163 H82     28.5907  19.1986  -3.3812   H         1 RES1   0.0000
   164 B1      10.2564   2.9901   6.0491   B         2 RES2  -1.0000
   165 F1       9.7540   1.7425   5.6777   F         2 RES2   0.0000
   166 F2      11.5041   3.1890   5.4972   F         2 RES2   0.0000
   167 F3       9.3787   3.9837   5.6223   F         2 RES2   0.0000
   168 F4      10.3265   3.0458   7.4513   F         2 RES2   0.0000
   169 B2       6.2395   9.9102   5.7321   B         3 RES3  -1.0000
   170 F5       5.7883   8.9529   6.6360   F         3 RES3   0.0000
   171 F6       6.5824   9.3221   4.5265   F         3 RES3   0.0000
   172 F7       7.3565  10.5761   6.2542   F         3 RES3   0.0000
   173 F8       5.2068  10.8347   5.5179   F         3 RES3   0.0000
   174 C65      5.8142  11.7401   8.7860   C.3       4 RES4   0.0000
   175 H83      6.1070  10.8207   8.6182   H         4 RES4   0.0000
   176 H84      6.5231  12.2268   9.2557   H         4 RES4   0.0000
   177 H85      5.6230  12.1838   7.9339   H         4 RES4   0.0000
   178 C66      4.6191  11.7248   9.6010   C.1       4 RES4   0.0000
   179 N11      3.6702  11.7047  10.2246   N.1       4 RES4   0.0000
   180 C67     12.1961   0.6921   3.4501   C.3       5 RES5   0.0000
   181 H86     13.1241   0.3851   3.3912   H         5 RES5   0.0000
   182 H87     12.1220   1.3755   4.1489   H         5 RES5   0.0000
   183 H88     11.9223   1.0728   2.5901   H         5 RES5   0.0000
   184 C68     11.3304  -0.4363   3.7799   C.1       5 RES5   0.0000
   185 N12     10.6723  -1.3209   4.0429   N.1       5 RES5   0.0000
@<TRIPOS>BOND
     1     1     2    1
     2     2     3   ar
     3     3     4   ar
     4     4     5    1
     5     6     4   ar
     6     7     6   ar
     7     8     7    1
     8     9     2   ar
     9    10     3    1
    10    11     1    1
    11    12    11    2
    12    13    12    1
    13    14    12    1
    14    15    14    1
    15    16    10    1
    16    17    16    1
    17    18     9    1
    18    19     1    1
    19    20    19    2
    20    21    20    1
    21    22    20    1
    22    23    22    1
    23    24    18    1
    24    25    24    1
    25    26     6    1
    26    27    26    2
    27    28    26    1
    28    29    28    1
    29    30    29   ar
    30    31    30    1
    31    32    30   ar
    32    33    32    1
    33    34    32   ar
    34    35    34   ar
    35    36    35    1
    36    37    29   ar
    37    38    37    1
    38    39    34    1
    39    40    39    1
    40    41    40    1
    41    42    40    1
    42    43    40    1
    43    44    43    1
    44    45    43    1
    45    46    43    1
    46    47    46    1
    47    48    46    1
    48    49    46    1
    49    50    49    1
    50    51    49    1
    51    52    49    1
    52    53    52    1
    53    54    52    1
    54    55    52    1
    55    56    55    1
    56    57    55    1
    57    58    55    1
    58    59    58    1
    59    60    58    1
    60    61    58    1
    61    62    61    1
    62    63    61    1
    63    64    61    1
    64    65    64    1
    65    66    64    1
    66    67    64    1
    67    68    67    1
    68    69    67    1
    69    70    67    1
    70    71    70    1
    71    72    70    1
    72    73    70    1
    73    74    73    1
    74    75    73    1
    75    76    73    1
    76    77    76    1
    77    78    76    1
    78    79    76    1
    79    80    79    1
    80    81    79    1
    81    82    79    1
    82    83     1    1
    83    84    83   ar
    84    85    84   ar
    85    86    85    1
    86    87    85   ar
    87    88    87   ar
    88    89    88    1
    89    90    83   ar
    90    91    84    1
    91    92     1    1
    92    93    92    2
    93    94    93    1
    94    95    93    1
    95    96    95    1
    96    97    91    1
    97    98    97    1
    98    99    90    1
    99   100     1    1
   100   101   100    2
   101   102   101    1
   102   103   101    1
   103   104   103    1
   104   105    99    1
   105   106   105    1
   106   107    87    1
   107   108   107    2
   108   109   107    1
   109   110   109    1
   110   111   110   ar
   111   112   111    1
   112   113   111   ar
   113   114   113    1
   114   115   113   ar
   115   116   115   ar
   116   117   116    1
   117   118   110   ar
   118   119   118    1
   119   120   115    1
   120   121   120    1
   121   122   121    1
   122   123   121    1
   123   124   121    1
   124   125   124    1
   125   126   124    1
   126   127   124    1
   127   128   127    1
   128   129   127    1
   129   130   127    1
   130   131   130    1
   131   132   130    1
   132   133   130    1
   133   134   133    1
   134   135   133    1
   135   136   133    1
   136   137   136    1
   137   138   136    1
   138   139   136    1
   139   140   139    1
   140   141   139    1
   141   142   139    1
   142   143   142    1
   143   144   142    1
   144   145   142    1
   145   146   145    1
   146   147   145    1
   147   148   145    1
   148   149   148    1
   149   150   148    1
   150   151   148    1
   151   152   151    1
   152   153   151    1
   153   154   151    1
   154   155   154    1
   155   156   154    1
   156   157   154    1
   157   158   157    1
   158   159   157    1
   159   160   157    1
   160   161   160    1
   161   162   160    1
   162   163   160    1
   163     7     9   ar
   164    10    11    1
   165    14    16    2
   166    18    19    1
   167    22    24    2
   168    35    37   ar
   169    88    90   ar
   170    91    92    1
   171    95    97    2
   172    99   100    1
   173   103   105    2
   174   116   118   ar
   175   164   165    1
   176   166   164    1
   177   167   164    1
   178   168   164    1
   179   169   170    1
   180   171   169    1
   181   172   169    1
   182   173   169    1
   183   174   175    1
   184   176   174    1
   185   177   174    1
   186   178   174    1
   187   179   178    3
   188   180   181    1
   189   182   180    1
   190   183   180    1
   191   184   180    1
   192   185   184    3
@<TRIPOS>SUBSTRUCTURE
     1 RES1        1 GROUP             0 ****  ****    0  
     2 RES2      164 GROUP             0 ****  ****    0  
     3 RES3      169 GROUP             0 ****  ****    0  
     4 RES4      174 GROUP             0 ****  ****    0  
     5 RES5      180 GROUP             0 ****  ****    0  
@<TRIPOS>CRYSIN
   14.3159   15.2193   16.7869   84.0090   89.7180   72.7220     2     1
