@<TRIPOS>MOLECULE
LIZRAR
   105   110     1     0     0
SMALL
NO_CHARGES
****
Generated from the CSD

@<TRIPOS>ATOM
     1 Fe1      0.0000   0.0000   0.0000   Fe        1 RES1   0.0000
     2 Se1      3.3602  -3.2978   1.5281   Se        1 RES1   0.0000
     3 S1       1.5920   2.3473   6.2007   S.3       1 RES1   0.0000
     4 S2       2.1238   8.5139   9.2369   S.3       1 RES1   0.0000
     5 N1       1.6415  -1.2992   0.2227   N.2       1 RES1   0.0000
     6 N2       0.5061   0.8115   2.0419   N.ar      1 RES1   0.0000
     7 N3      -0.5091  11.4945  11.4845   N.ar      1 RES1   0.0000
     8 C1       2.3159  -2.0847   0.7472   C.1       1 RES1   0.0000
     9 C2       1.0583   2.0265   2.2141   C.ar      1 RES1   0.0000
    10 H1       1.2020   2.5470   1.4566   H         1 RES1   0.0000
    11 C3       1.4227   2.5508   3.4208   C.ar      1 RES1   0.0000
    12 H2       1.8008   3.3994   3.4696   H         1 RES1   0.0000
    13 C4       1.2220   1.8018   4.5801   C.ar      1 RES1   0.0000
    14 C5       0.6633   0.5398   4.4237   C.ar      1 RES1   0.0000
    15 H3       0.5064   0.0006   5.1650   H         1 RES1   0.0000
    16 C6       0.3452   0.0989   3.1687   C.ar      1 RES1   0.0000
    17 H4      -0.0078  -0.7580   3.0898   H         1 RES1   0.0000
    18 C7       2.5907   3.8448   5.9103   C.3       1 RES1   0.0000
    19 H5       3.4018   3.6229   5.4264   H         1 RES1   0.0000
    20 H6       2.0881   4.4926   5.3921   H         1 RES1   0.0000
    21 C8       2.9279   4.4072   7.2757   C.ar      1 RES1   0.0000
    22 C9       2.0881   5.3636   7.8732   C.ar      1 RES1   0.0000
    23 C10      2.4085   5.8514   9.1552   C.ar      1 RES1   0.0000
    24 C11      3.5523   5.3862   9.8244   C.ar      1 RES1   0.0000
    25 C12      4.3535   4.4463   9.1942   C.ar      1 RES1   0.0000
    26 H7       5.1136   4.1399   9.6346   H         1 RES1   0.0000
    27 C13      4.0687   3.9463   7.9372   C.ar      1 RES1   0.0000
    28 C14      4.9771   2.9135   7.3157   C.3       1 RES1   0.0000
    29 H8       5.4709   3.3133   6.5958   H         1 RES1   0.0000
    30 H9       4.4506   2.1858   6.9770   H         1 RES1   0.0000
    31 H10      5.5885   2.5845   7.9788   H         1 RES1   0.0000
    32 C15      3.9181   5.8583  11.2063   C.3       1 RES1   0.0000
    33 H11      4.7465   5.4542  11.4740   H         1 RES1   0.0000
    34 H12      3.2259   5.6081  11.8231   H         1 RES1   0.0000
    35 H13      4.0138   6.8134  11.2033   H         1 RES1   0.0000
    36 C16      0.8472   5.8453   7.1543   C.3       1 RES1   0.0000
    37 H14      1.0907   6.1892   6.2917   H         1 RES1   0.0000
    38 H15      0.4282   6.5384   7.6689   H         1 RES1   0.0000
    39 H16      0.2362   5.1127   7.0458   H         1 RES1   0.0000
    40 C17      1.5430   6.8851   9.8084   C.3       1 RES1   0.0000
    41 H17      1.6155   6.8225  10.7738   H         1 RES1   0.0000
    42 H18      0.6154   6.7526   9.5593   H         1 RES1   0.0000
    43 C18      1.0884   9.6155  10.1153   C.ar      1 RES1   0.0000
    44 C19     -0.1052   9.2466  10.7388   C.ar      1 RES1   0.0000
    45 H19     -0.3863   8.3600  10.7195   H         1 RES1   0.0000
    46 C20     -0.8615  10.1935  11.3793   C.ar      1 RES1   0.0000
    47 H20     -1.6645   9.9252  11.7641   H         1 RES1   0.0000
    48 C21      0.6426  11.8408  10.8792   C.ar      1 RES1   0.0000
    49 H21      0.9093  12.7301  10.9266   H         1 RES1   0.0000
    50 C22      1.4507  10.9616  10.1945   C.ar      1 RES1   0.0000
    51 H22      2.2317  11.2618   9.7884   H         1 RES1   0.0000
    52 Se1B    -3.3602   3.2978  -1.5281   Se        1 RES1   0.0000
    53 S1B     -1.5920  -2.3473  -6.2007   S.3       1 RES1   0.0000
    54 S2B     -2.1238  -8.5139  -9.2369   S.3       1 RES1   0.0000
    55 N1B     -1.6415   1.2992  -0.2227   N.2       1 RES1   0.0000
    56 N2B     -0.5061  -0.8115  -2.0419   N.ar      1 RES1   0.0000
    57 N3B      0.5091 -11.4945 -11.4845   N.ar      1 RES1   0.0000
    58 C1B     -2.3159   2.0847  -0.7472   C.1       1 RES1   0.0000
    59 C2B     -1.0583  -2.0265  -2.2141   C.ar      1 RES1   0.0000
    60 H1B     -1.2020  -2.5470  -1.4566   H         1 RES1   0.0000
    61 C3B     -1.4227  -2.5508  -3.4208   C.ar      1 RES1   0.0000
    62 H2B     -1.8008  -3.3994  -3.4696   H         1 RES1   0.0000
    63 C4B     -1.2220  -1.8018  -4.5801   C.ar      1 RES1   0.0000
    64 C5B     -0.6633  -0.5398  -4.4237   C.ar      1 RES1   0.0000
    65 H3B     -0.5064  -0.0006  -5.1650   H         1 RES1   0.0000
    66 C6B     -0.3452  -0.0989  -3.1687   C.ar      1 RES1   0.0000
    67 H4B      0.0078   0.7580  -3.0898   H         1 RES1   0.0000
    68 C7B     -2.5907  -3.8448  -5.9103   C.3       1 RES1   0.0000
    69 H5B     -3.4018  -3.6229  -5.4264   H         1 RES1   0.0000
    70 H6B     -2.0881  -4.4926  -5.3921   H         1 RES1   0.0000
    71 C8B     -2.9279  -4.4072  -7.2757   C.ar      1 RES1   0.0000
    72 C9B     -2.0881  -5.3636  -7.8732   C.ar      1 RES1   0.0000
    73 C10B    -2.4085  -5.8514  -9.1552   C.ar      1 RES1   0.0000
    74 C11B    -3.5523  -5.3862  -9.8244   C.ar      1 RES1   0.0000
    75 C12B    -4.3535  -4.4463  -9.1942   C.ar      1 RES1   0.0000
    76 H7B     -5.1136  -4.1399  -9.6346   H         1 RES1   0.0000
    77 C13B    -4.0687  -3.9463  -7.9372   C.ar      1 RES1   0.0000
    78 C14B    -4.9771  -2.9135  -7.3157   C.3       1 RES1   0.0000
    79 H8B     -5.4709  -3.3133  -6.5958   H         1 RES1   0.0000
    80 H9B     -4.4506  -2.1858  -6.9770   H         1 RES1   0.0000
    81 H10B    -5.5885  -2.5845  -7.9788   H         1 RES1   0.0000
    82 C15B    -3.9181  -5.8583 -11.2063   C.3       1 RES1   0.0000
    83 H11B    -4.7465  -5.4542 -11.4740   H         1 RES1   0.0000
    84 H12B    -3.2259  -5.6081 -11.8231   H         1 RES1   0.0000
    85 H13B    -4.0138  -6.8134 -11.2033   H         1 RES1   0.0000
    86 C16B    -0.8472  -5.8453  -7.1543   C.3       1 RES1   0.0000
    87 H14B    -1.0907  -6.1892  -6.2917   H         1 RES1   0.0000
    88 H15B    -0.4282  -6.5384  -7.6689   H         1 RES1   0.0000
    89 H16B    -0.2362  -5.1127  -7.0458   H         1 RES1   0.0000
    90 C17B    -1.5430  -6.8851  -9.8084   C.3       1 RES1   0.0000
    91 H17B    -1.6155  -6.8225 -10.7738   H         1 RES1   0.0000
    92 H18B    -0.6154  -6.7526  -9.5593   H         1 RES1   0.0000
    93 C18B    -1.0884  -9.6155 -10.1153   C.ar      1 RES1   0.0000
    94 C19B     0.1052  -9.2466 -10.7388   C.ar      1 RES1   0.0000
    95 H19B     0.3863  -8.3600 -10.7195   H         1 RES1   0.0000
    96 C20B     0.8615 -10.1935 -11.3793   C.ar      1 RES1   0.0000
    97 H20B     1.6645  -9.9252 -11.7641   H         1 RES1   0.0000
    98 C21B    -0.6426 -11.8408 -10.8792   C.ar      1 RES1   0.0000
    99 H21B    -0.9093 -12.7301 -10.9266   H         1 RES1   0.0000
   100 C22B    -1.4507 -10.9616 -10.1945   C.ar      1 RES1   0.0000
   101 H22B    -2.2317 -11.2618  -9.7884   H         1 RES1   0.0000
   102 Fe1A     1.8190 -13.0185 -12.4948   Fe        1 RES1   0.0000
   103 Fe1A    -1.8190  13.0185  12.4948   Fe        1 RES1   0.0000
   104 N3A     -1.3099  -1.5240   1.0103   N.3       1 RES1   0.0000
   105 N3C      1.3099   1.5240  -1.0103   N.3       1 RES1   0.0000
@<TRIPOS>BOND
     1     1     5    1
     2     2     8    2
     3     3    13    1
     4     4    40    1
     5     5     8    2
     6     6     1    1
     7     7    46   ar
     8     9     6   ar
     9    10     9    1
    10    11     9   ar
    11    12    11    1
    12    13    11   ar
    13    14    13   ar
    14    15    14    1
    15    16     6   ar
    16    17    16    1
    17    18     3    1
    18    19    18    1
    19    20    18    1
    20    21    18    1
    21    22    21   ar
    22    23    22   ar
    23    24    23   ar
    24    25    24   ar
    25    26    25    1
    26    27    21   ar
    27    28    27    1
    28    29    28    1
    29    30    28    1
    30    31    28    1
    31    32    24    1
    32    33    32    1
    33    34    32    1
    34    35    32    1
    35    36    22    1
    36    37    36    1
    37    38    36    1
    38    39    36    1
    39    40    23    1
    40    41    40    1
    41    42    40    1
    42    43     4    1
    43    44    43   ar
    44    45    44    1
    45    46    44   ar
    46    47    46    1
    47    48     7   ar
    48    49    48    1
    49    50    43   ar
    50    51    50    1
    51    52    58    2
    52    53    63    1
    53    54    90    1
    54    55     1    1
    55    56     1    1
    56    57    96   ar
    57    58    55    2
    58    59    56   ar
    59    60    59    1
    60    61    59   ar
    61    62    61    1
    62    63    61   ar
    63    64    63   ar
    64    65    64    1
    65    66    56   ar
    66    67    66    1
    67    68    53    1
    68    69    68    1
    69    70    68    1
    70    71    68    1
    71    72    71   ar
    72    73    72   ar
    73    74    73   ar
    74    75    74   ar
    75    76    75    1
    76    77    71   ar
    77    78    77    1
    78    79    78    1
    79    80    78    1
    80    81    78    1
    81    82    74    1
    82    83    82    1
    83    84    82    1
    84    85    82    1
    85    86    72    1
    86    87    86    1
    87    88    86    1
    88    89    86    1
    89    90    73    1
    90    91    90    1
    91    92    90    1
    92    93    54    1
    93    94    93   ar
    94    95    94    1
    95    96    94   ar
    96    97    96    1
    97    98    57   ar
    98    99    98    1
    99   100    93   ar
   100   101   100    1
   101   102    57   un
   102   103     7   un
   103   104     1   un
   104   105     1   un
   105    14    16   ar
   106    25    27   ar
   107    48    50   ar
   108    64    66   ar
   109    75    77   ar
   110    98   100   ar
@<TRIPOS>SUBSTRUCTURE
     1 RES1        1 GROUP             0 ****  ****    0  
@<TRIPOS>CRYSIN
   10.3266    8.6790   25.2530   90.0000   98.2830   90.0000    14     1
