@<TRIPOS>MOLECULE
LIZSEW
   105   110     1     0     0
SMALL
NO_CHARGES
****
Generated from the CSD

@<TRIPOS>ATOM
     1 Fe1     10.5250  13.0335   0.0000   Fe        1 RES1   0.0000
     2 S1      13.7400   9.8203   1.4560   S.2       1 RES1   0.0000
     3 S2       7.0740   2.4051   6.2604   S.3       1 RES1   0.0000
     4 S3       6.4792   8.5817   3.2078   S.3       1 RES1   0.0000
     5 N1      12.1428  11.7284   0.2386   N.2       1 RES1   0.0000
     6 N2       9.1936  11.5260   1.0361   N.ar      1 RES1   0.0000
     7 N3       8.1873   0.8515  10.3936   N.ar      1 RES1   0.0000
     8 C1      12.8067  10.9395   0.7580   C.1       1 RES1   0.0000
     9 C2       8.0299  11.8779   1.5908   C.ar      1 RES1   0.0000
    10 H1       7.7658  12.7673   1.5231   H         1 RES1   0.0000
    11 C3       7.2007  11.0098   2.2535   C.ar      1 RES1   0.0000
    12 H2       6.4067  11.3155   2.6285   H         1 RES1   0.0000
    13 C4       7.5544   9.6752   2.3608   C.ar      1 RES1   0.0000
    14 C5       8.7563   9.2938   1.7896   C.ar      1 RES1   0.0000
    15 H3       9.0364   8.4077   1.8329   H         1 RES1   0.0000
    16 C6       9.5301  10.2348   1.1590   C.ar      1 RES1   0.0000
    17 H4      10.3393   9.9587   0.7933   H         1 RES1   0.0000
    18 C7       7.0685   6.9495   2.6727   C.3       1 RES1   0.0000
    19 H5       7.0109   6.8732   1.7075   H         1 RES1   0.0000
    20 H6       7.9935   6.8251   2.9362   H         1 RES1   0.0000
    21 C8       6.1995   5.9094   3.3272   C.ar      1 RES1   0.0000
    22 C9       5.0582   5.4576   2.6655   C.ar      1 RES1   0.0000
    23 C10      4.2769   4.5026   3.2824   C.ar      1 RES1   0.0000
    24 H7       3.5171   4.1947   2.8428   H         1 RES1   0.0000
    25 C11      4.5771   3.9874   4.5235   C.ar      1 RES1   0.0000
    26 C12      5.7101   4.4505   5.1919   C.ar      1 RES1   0.0000
    27 C13      6.5349   5.4089   4.5939   C.ar      1 RES1   0.0000
    28 C14      7.7732   5.8955   5.3121   C.3       1 RES1   0.0000
    29 H8       7.5671   6.0514   6.2365   H         1 RES1   0.0000
    30 H9       8.0767   6.7126   4.9095   H         1 RES1   0.0000
    31 H10      8.4633   5.2310   5.2458   H         1 RES1   0.0000
    32 C15      4.6717   5.9580   1.2953   C.3       1 RES1   0.0000
    33 H11      3.8676   5.5186   1.0092   H         1 RES1   0.0000
    34 H12      5.3783   5.7690   0.6738   H         1 RES1   0.0000
    35 H13      4.5224   6.9060   1.3313   H         1 RES1   0.0000
    36 C16      3.6790   2.9247   5.1185   C.3       1 RES1   0.0000
    37 H14      3.2375   3.2765   5.8948   H         1 RES1   0.0000
    38 H15      4.2076   2.1628   5.3689   H         1 RES1   0.0000
    39 H16      3.0234   2.6594   4.4696   H         1 RES1   0.0000
    40 C17      6.0522   3.8796   6.5489   C.3       1 RES1   0.0000
    41 H17      5.2430   3.6410   7.0276   H         1 RES1   0.0000
    42 H18      6.5415   4.5315   7.0750   H         1 RES1   0.0000
    43 C18      7.4620   1.8612   7.8743   C.ar      1 RES1   0.0000
    44 C19      8.0063   0.6004   8.0233   C.ar      1 RES1   0.0000
    45 H19      8.1470   0.0621   7.2779   H         1 RES1   0.0000
    46 C20      8.3371   0.1451   9.2711   C.ar      1 RES1   0.0000
    47 H20      8.6887  -0.7133   9.3416   H         1 RES1   0.0000
    48 C21      7.6539   2.0636  10.2366   C.ar      1 RES1   0.0000
    49 H21      7.5285   2.5824  10.9984   H         1 RES1   0.0000
    50 C22      7.2755   2.5997   9.0331   C.ar      1 RES1   0.0000
    51 H22      6.8986   3.4493   8.9941   H         1 RES1   0.0000
    52 S1B      7.3100  16.2467  -1.4560   S.2       1 RES1   0.0000
    53 S2B     13.9760  23.6619  -6.2604   S.3       1 RES1   0.0000
    54 S3B     14.5708  17.4853  -3.2078   S.3       1 RES1   0.0000
    55 N1B      8.9072  14.3386  -0.2386   N.2       1 RES1   0.0000
    56 N2B     11.8564  14.5410  -1.0361   N.ar      1 RES1   0.0000
    57 N3B     12.8627  25.2155 -10.3936   N.ar      1 RES1   0.0000
    58 C1B      8.2433  15.1275  -0.7580   C.1       1 RES1   0.0000
    59 C2B     13.0201  14.1891  -1.5908   C.ar      1 RES1   0.0000
    60 H1B     13.2842  13.2997  -1.5231   H         1 RES1   0.0000
    61 C3B     13.8493  15.0572  -2.2535   C.ar      1 RES1   0.0000
    62 H2B     14.6433  14.7515  -2.6285   H         1 RES1   0.0000
    63 C4B     13.4956  16.3918  -2.3608   C.ar      1 RES1   0.0000
    64 C5B     12.2937  16.7732  -1.7896   C.ar      1 RES1   0.0000
    65 H3B     12.0136  17.6593  -1.8329   H         1 RES1   0.0000
    66 C6B     11.5199  15.8322  -1.1590   C.ar      1 RES1   0.0000
    67 H4B     10.7107  16.1083  -0.7933   H         1 RES1   0.0000
    68 C7B     13.9815  19.1175  -2.6727   C.3       1 RES1   0.0000
    69 H5B     14.0391  19.1938  -1.7075   H         1 RES1   0.0000
    70 H6B     13.0565  19.2419  -2.9362   H         1 RES1   0.0000
    71 C8B     14.8505  20.1576  -3.3272   C.ar      1 RES1   0.0000
    72 C9B     15.9918  20.6094  -2.6655   C.ar      1 RES1   0.0000
    73 C10B    16.7731  21.5644  -3.2824   C.ar      1 RES1   0.0000
    74 H7B     17.5329  21.8723  -2.8428   H         1 RES1   0.0000
    75 C11B    16.4729  22.0796  -4.5235   C.ar      1 RES1   0.0000
    76 C12B    15.3399  21.6165  -5.1919   C.ar      1 RES1   0.0000
    77 C13B    14.5151  20.6581  -4.5939   C.ar      1 RES1   0.0000
    78 C14B    13.2768  20.1715  -5.3121   C.3       1 RES1   0.0000
    79 H8B     13.4829  20.0156  -6.2365   H         1 RES1   0.0000
    80 H9B     12.9733  19.3544  -4.9095   H         1 RES1   0.0000
    81 H10B    12.5867  20.8360  -5.2458   H         1 RES1   0.0000
    82 C15B    16.3783  20.1090  -1.2953   C.3       1 RES1   0.0000
    83 H11B    17.1824  20.5484  -1.0092   H         1 RES1   0.0000
    84 H12B    15.6717  20.2980  -0.6738   H         1 RES1   0.0000
    85 H13B    16.5276  19.1610  -1.3313   H         1 RES1   0.0000
    86 C16B    17.3710  23.1423  -5.1185   C.3       1 RES1   0.0000
    87 H14B    17.8125  22.7905  -5.8948   H         1 RES1   0.0000
    88 H15B    16.8424  23.9042  -5.3689   H         1 RES1   0.0000
    89 H16B    18.0266  23.4076  -4.4696   H         1 RES1   0.0000
    90 C17B    14.9978  22.1874  -6.5489   C.3       1 RES1   0.0000
    91 H17B    15.8070  22.4260  -7.0276   H         1 RES1   0.0000
    92 H18B    14.5085  21.5355  -7.0750   H         1 RES1   0.0000
    93 C18B    13.5880  24.2058  -7.8743   C.ar      1 RES1   0.0000
    94 C19B    13.0437  25.4666  -8.0233   C.ar      1 RES1   0.0000
    95 H19B    12.9030  26.0049  -7.2779   H         1 RES1   0.0000
    96 C20B    12.7129  25.9219  -9.2711   C.ar      1 RES1   0.0000
    97 H20B    12.3613  26.7803  -9.3416   H         1 RES1   0.0000
    98 C21B    13.3961  24.0034 -10.2366   C.ar      1 RES1   0.0000
    99 H21B    13.5215  23.4846 -10.9984   H         1 RES1   0.0000
   100 C22B    13.7745  23.4673  -9.0331   C.ar      1 RES1   0.0000
   101 H22B    14.1514  22.6177  -8.9941   H         1 RES1   0.0000
   102 Fe1A     8.6925   0.0000  12.4381   Fe        1 RES1   0.0000
   103 Fe1A    12.3575  26.0670 -12.4381   Fe        1 RES1   0.0000
   104 N3A     11.0302  13.8850   2.0446   N.3       1 RES1   0.0000
   105 N3C     10.0198  12.1820  -2.0446   N.3       1 RES1   0.0000
@<TRIPOS>BOND
     1     1     5    1
     2     2     8    2
     3     3    40    1
     4     4    13    1
     5     5     8    2
     6     6     1    1
     7     7    46   ar
     8     9     6   ar
     9    10     9    1
    10    11     9   ar
    11    12    11    1
    12    13    11   ar
    13    14    13   ar
    14    15    14    1
    15    16     6   ar
    16    17    16    1
    17    18     4    1
    18    19    18    1
    19    20    18    1
    20    21    18    1
    21    22    21   ar
    22    23    22   ar
    23    24    23    1
    24    25    23   ar
    25    26    25   ar
    26    27    21   ar
    27    28    27    1
    28    29    28    1
    29    30    28    1
    30    31    28    1
    31    32    22    1
    32    33    32    1
    33    34    32    1
    34    35    32    1
    35    36    25    1
    36    37    36    1
    37    38    36    1
    38    39    36    1
    39    40    26    1
    40    41    40    1
    41    42    40    1
    42    43     3    1
    43    44    43   ar
    44    45    44    1
    45    46    44   ar
    46    47    46    1
    47    48     7   ar
    48    49    48    1
    49    50    43   ar
    50    51    50    1
    51    52    58    2
    52    53    90    1
    53    54    63    1
    54    55     1    1
    55    56     1    1
    56    57    96   ar
    57    58    55    2
    58    59    56   ar
    59    60    59    1
    60    61    59   ar
    61    62    61    1
    62    63    61   ar
    63    64    63   ar
    64    65    64    1
    65    66    56   ar
    66    67    66    1
    67    68    54    1
    68    69    68    1
    69    70    68    1
    70    71    68    1
    71    72    71   ar
    72    73    72   ar
    73    74    73    1
    74    75    73   ar
    75    76    75   ar
    76    77    71   ar
    77    78    77    1
    78    79    78    1
    79    80    78    1
    80    81    78    1
    81    82    72    1
    82    83    82    1
    83    84    82    1
    84    85    82    1
    85    86    75    1
    86    87    86    1
    87    88    86    1
    88    89    86    1
    89    90    76    1
    90    91    90    1
    91    92    90    1
    92    93    53    1
    93    94    93   ar
    94    95    94    1
    95    96    94   ar
    96    97    96    1
    97    98    57   ar
    98    99    98    1
    99   100    93   ar
   100   101   100    1
   101   102     7   un
   102   103    57   un
   103   104     1   un
   104   105     1   un
   105    14    16   ar
   106    26    27   ar
   107    48    50   ar
   108    64    66   ar
   109    76    77   ar
   110    98   100   ar
@<TRIPOS>SUBSTRUCTURE
     1 RES1        1 GROUP             0 ****  ****    0  
@<TRIPOS>CRYSIN
   10.5250    8.6890   25.1448   90.0000   98.3810   90.0000    14     1
