@<TRIPOS>MOLECULE
LONYAQ
   574   630     4     0     0
SMALL
NO_CHARGES
****
Generated from the CSD

@<TRIPOS>ATOM
     1 Fe1     12.5684  23.6309  15.3089   Fe        1 RES1   0.0000
     2 Fe2      8.7759  24.7998  11.7335   Fe        1 RES1   0.0000
     3 Fe3     13.1327  21.8859  12.5821   Fe        1 RES1   0.0000
     4 Fe4     14.6957  24.8668  13.1691   Fe        1 RES1   0.0000
     5 Fe5     13.4427  27.4423  11.4926   Fe        1 RES1   0.0000
     6 Fe6      9.8097  25.3959  14.8741   Fe        1 RES1   0.0000
     7 Fe7     13.7276  24.3836  10.2950   Fe        1 RES1   0.0000
     8 Fe8     10.3459  27.6970  12.4844   Fe        1 RES1   0.0000
     9 Fe9     10.9215  22.7318  10.2813   Fe        1 RES1   0.0000
    10 P1      12.7505  26.8343  14.6157   P.3       1 RES1   0.0000
    11 P2      11.1141  25.9766   9.7641   P.3       1 RES1   0.0000
    12 P3      10.1562  22.4148  13.4719   P.3       1 RES1   0.0000
    13 O1      11.8206  25.6681  15.0235   O.co2     1 RES1   0.0000
    14 C1      10.6343  24.2489  17.5193   C.2       1 RES1   0.0000
    15 O2      10.2771  24.8245  10.3664   O.co2     1 RES1   0.0000
    16 C2      16.5873  23.7625  16.8691   C.3       1 RES1   0.0000
    17 O3      11.3992  27.0658  10.8367   O.co2     1 RES1   0.0000
    18 C3       6.8580  22.1626   8.7935   C.3       1 RES1   0.0000
    19 O4      14.2857  27.5593   9.6845   O.co2     1 RES1   0.0000
    20 O5       7.6683  23.7064  10.4216   O.co2     1 RES1   0.0000
    21 O6      12.2321  27.5016  13.3179   O.co2     1 RES1   0.0000
    22 O7      12.6553  21.7150  15.8095   O.co2     1 RES1   0.0000
    23 C4       6.5293  28.3125  10.5100   C.3       1 RES1   0.0000
    24 O8       9.7726  24.8054  16.8238   O.co2     1 RES1   0.0000
    25 O9      10.5470  23.5172  14.4831   O.co2     1 RES1   0.0000
    26 O10     10.9185  29.5722  11.9691   O.co2     1 RES1   0.0000
    27 O11     14.3079  23.9974  16.2012   O.co2     1 RES1   0.0000
    28 C5       9.6225  25.6920   7.4467   C.3       1 RES1   0.0000
    29 H1      10.1938  24.9106   7.4228   H         1 RES1   0.0000
    30 H2       8.7197  25.4156   7.6673   H         1 RES1   0.0000
    31 O12     12.5610  23.0447  11.1077   O.3       1 RES1   0.0000
    32 O13     13.9684  23.1098   8.7565   O.co2     1 RES1   0.0000
    33 C6       7.7407  27.5285  10.9958   C.2       1 RES1   0.0000
    34 O14     15.3892  23.7314  11.5025   O.co2     1 RES1   0.0000
    35 C7      10.3333  24.0123  18.9997   C.3       1 RES1   0.0000
    36 O15     11.3025  21.4591  13.2607   O.co2     1 RES1   0.0000
    37 O16     14.1501  26.2847  14.4446   O.co2     1 RES1   0.0000
    38 O17      7.8616  24.9324  15.0168   O.co2     1 RES1   0.0000
    39 O18     13.7442  20.6886  14.1382   O.co2     1 RES1   0.0000
    40 C8       8.0025  22.8509   9.5799   C.2       1 RES1   0.0000
    41 C9       9.0162  24.6608  19.4023   C.3       1 RES1   0.0000
    42 H3       9.0385  25.5937  19.1838   H         1 RES1   0.0000
    43 H4       8.8830  24.5571  20.3490   H         1 RES1   0.0000
    44 H5       8.2937  24.2382  18.9289   H         1 RES1   0.0000
    45 O19     11.7752  22.6763   8.4585   O.co2     1 RES1   0.0000
    46 C10     15.5205  23.9432  15.8017   C.2       1 RES1   0.0000
    47 C11      5.4980  27.3796   9.8775   C.3       1 RES1   0.0000
    48 H6       5.8887  26.9384   9.1186   H         1 RES1   0.0000
    49 H7       4.7377  27.8899   9.5919   H         1 RES1   0.0000
    50 H8       5.2212  26.7232  10.5230   H         1 RES1   0.0000
    51 C12     15.0506  26.7471   9.0754   C.2       1 RES1   0.0000
    52 O20     15.8923  24.0814  14.5975   O.co2     1 RES1   0.0000
    53 C13     17.4502  28.1318  12.9470   C.3       1 RES1   0.0000
    54 O21      9.7553  23.0484  12.1121   O.co2     1 RES1   0.0000
    55 O22     11.7606  23.8380  17.1151   O.co2     1 RES1   0.0000
    56 O23     15.0990  21.5813  11.9800   O.co2     1 RES1   0.0000
    57 O24      9.6898  25.9578  13.0214   O.3       1 RES1   0.0000
    58 O25     12.8802  20.2153  11.4234   O.co2     1 RES1   0.0000
    59 O26      7.7338  26.2817  10.8897   O.co2     1 RES1   0.0000
    60 O27     12.4036  25.4089   9.2143   O.co2     1 RES1   0.0000
    61 O28     15.1376  27.9872  12.3639   O.co2     1 RES1   0.0000
    62 O29     13.3940  23.4957  13.6430   O.3       1 RES1   0.0000
    63 O30      9.4267  27.1747  15.6914   O.co2     1 RES1   0.0000
    64 C14     10.8060  18.4072   9.0202   C.3       1 RES1   0.0000
    65 H9       9.9261  18.6650   9.3006   H         1 RES1   0.0000
    66 H10     10.7887  17.5036   8.6972   H         1 RES1   0.0000
    67 H11     11.1006  18.9919   8.3175   H         1 RES1   0.0000
    68 C15     13.4845  32.0226  11.0869   C.3       1 RES1   0.0000
    69 H12     14.0582  31.7914  11.8182   H         1 RES1   0.0000
    70 H13     13.4979  32.9714  10.9548   H         1 RES1   0.0000
    71 H14     13.7915  31.5841  10.2889   H         1 RES1   0.0000
    72 C16      8.6158  29.3756  16.1304   C.3       1 RES1   0.0000
    73 C17     12.0116  30.0612  11.5842   C.2       1 RES1   0.0000
    74 C18     17.0475  26.3910   7.5955   C.3       1 RES1   0.0000
    75 H15     17.6167  26.3351   8.3695   H         1 RES1   0.0000
    76 H16     17.5453  26.7524   6.8558   H         1 RES1   0.0000
    77 H17     16.7307  25.5139   7.3708   H         1 RES1   0.0000
    78 C19     17.3809  20.7752  10.6942   C.3       1 RES1   0.0000
    79 H18     16.7102  20.5467  10.0497   H         1 RES1   0.0000
    80 H19     17.2783  20.2224  11.4697   H         1 RES1   0.0000
    81 H20     18.2521  20.6370  10.3149   H         1 RES1   0.0000
    82 C20     10.8941  27.8022   7.6371   C.3       1 RES1   0.0000
    83 H21     10.4626  28.6660   7.7349   H         1 RES1   0.0000
    84 H22     11.8155  27.8819   7.9326   H         1 RES1   0.0000
    85 O31      8.7013  28.1953  11.4708   O.co2     1 RES1   0.0000
    86 O32     13.0365  29.3854  11.3137   O.co2     1 RES1   0.0000
    87 O33      9.1751  22.4488   9.3329   O.co2     1 RES1   0.0000
    88 O34     10.9558  20.7527  10.4127   O.co2     1 RES1   0.0000
    89 O35      9.6077  28.6774  14.0654   O.co2     1 RES1   0.0000
    90 C21     16.7482  25.1073  17.5515   C.3       1 RES1   0.0000
    91 H23     17.0800  25.7478  16.9211   H         1 RES1   0.0000
    92 H24     17.3677  25.0249  18.2787   H         1 RES1   0.0000
    93 H25     15.8960  25.3970  17.8886   H         1 RES1   0.0000
    94 O36     15.1404  25.5115   9.3121   O.co2     1 RES1   0.0000
    95 C22     16.3243  28.7191   8.2260   C.3       1 RES1   0.0000
    96 H26     15.5657  29.2719   8.4215   H         1 RES1   0.0000
    97 H27     16.7981  29.0779   7.4696   H         1 RES1   0.0000
    98 H28     16.9070  28.6952   8.9885   H         1 RES1   0.0000
    99 C23      9.2538  28.3311  15.2123   C.2       1 RES1   0.0000
   100 C24     17.5862  23.1087   9.9165   C.3       1 RES1   0.0000
   101 H29     18.4997  22.9546   9.6647   H         1 RES1   0.0000
   102 H30     17.4750  24.0309  10.1693   H         1 RES1   0.0000
   103 H31     17.0111  22.9094   9.1758   H         1 RES1   0.0000
   104 O37     16.2752  26.0779  12.7436   O.co2     1 RES1   0.0000
   105 C25      8.1635  19.7839  15.6701   C.3       1 RES1   0.0000
   106 H32      8.5052  19.1966  16.3593   H         1 RES1   0.0000
   107 H33      7.2245  19.9620  15.8443   H         1 RES1   0.0000
   108 C26     11.1361  31.9163  10.1958   C.3       1 RES1   0.0000
   109 H34     11.0852  32.8678  10.0913   H         1 RES1   0.0000
   110 H35     10.2593  31.5628  10.3618   H         1 RES1   0.0000
   111 H36     11.4905  31.5230   9.3942   H         1 RES1   0.0000
   112 O38     13.6411  25.6263  11.7470   O.3       1 RES1   0.0000
   113 O39      7.2363  24.4248  12.9439   O.co2     1 RES1   0.0000
   114 C27     11.5709  32.2379  12.6838   C.3       1 RES1   0.0000
   115 H37     12.1316  31.9748  13.4152   H         1 RES1   0.0000
   116 H38     10.6677  31.9588  12.8586   H         1 RES1   0.0000
   117 H39     11.5997  33.1920  12.5829   H         1 RES1   0.0000
   118 C28      5.2978  23.0449  14.9179   C.3       1 RES1   0.0000
   119 H40      4.3839  22.9120  15.1837   H         1 RES1   0.0000
   120 H41      5.8801  22.7685  15.6311   H         1 RES1   0.0000
   121 H42      5.4821  22.5213  14.1330   H         1 RES1   0.0000
   122 C29     14.9022  18.9972  16.0514   C.3       1 RES1   0.0000
   123 H43     15.1067  18.8484  15.1265   H         1 RES1   0.0000
   124 H44     15.0096  18.1787  16.5414   H         1 RES1   0.0000
   125 H45     15.4992  19.6617  16.4061   H         1 RES1   0.0000
   126 C30      4.6075  24.9983  13.4932   C.3       1 RES1   0.0000
   127 H46      4.6831  24.3950  12.7493   H         1 RES1   0.0000
   128 H47      4.8516  25.8833  13.2123   H         1 RES1   0.0000
   129 H48      3.7036  25.0010  13.8157   H         1 RES1   0.0000
   130 C31     18.4788  27.7650  11.8760   C.3       1 RES1   0.0000
   131 H49     18.6397  26.8189  11.8963   H         1 RES1   0.0000
   132 H50     19.2993  28.2327  12.0471   H         1 RES1   0.0000
   133 H51     18.1435  28.0122  11.0120   H         1 RES1   0.0000
   134 C32     14.9144  27.3132   6.7008   C.3       1 RES1   0.0000
   135 H52     14.5843  26.4255   6.5489   H         1 RES1   0.0000
   136 H53     15.3920  27.6162   5.9247   H         1 RES1   0.0000
   137 H54     14.1777  27.9059   6.8714   H         1 RES1   0.0000
   138 C33     17.2268  22.2237  11.0853   C.3       1 RES1   0.0000
   139 C34     12.6099  23.0848   5.6953   C.3       1 RES1   0.0000
   140 H55     11.6765  23.1592   5.9039   H         1 RES1   0.0000
   141 H56     12.7123  22.7393   4.8064   H         1 RES1   0.0000
   142 H57     13.0209  23.9512   5.7531   H         1 RES1   0.0000
   143 C35      5.5362  24.5465  14.6048   C.3       1 RES1   0.0000
   144 C36      8.3574  19.1780  14.2942   C.3       1 RES1   0.0000
   145 H58      9.2132  18.7235  14.2422   H         1 RES1   0.0000
   146 H59      7.6533  18.5401  14.1018   H         1 RES1   0.0000
   147 C37     16.1256  22.7287  17.9001   C.3       1 RES1   0.0000
   148 H60     15.2341  22.9386  18.1851   H         1 RES1   0.0000
   149 H61     16.7182  22.7419  18.6585   H         1 RES1   0.0000
   150 H62     16.1364  21.8543  17.5037   H         1 RES1   0.0000
   151 C38     13.4654  19.4836  16.1825   C.3       1 RES1   0.0000
   152 C39     15.8119  22.5081  11.5477   C.2       1 RES1   0.0000
   153 C40     12.9966  22.6755   8.0923   C.2       1 RES1   0.0000
   154 C41      6.9867  24.6714  14.1502   C.2       1 RES1   0.0000
   155 C42     11.8886  19.9328  10.7103   C.2       1 RES1   0.0000
   156 C43     16.1873  27.3424  12.6770   C.2       1 RES1   0.0000
   157 C44     12.7584  28.0547  15.9182   C.3       1 RES1   0.0000
   158 H63     11.8770  28.4826  15.9484   H         1 RES1   0.0000
   159 C45      8.7314  21.5619  14.1512   C.3       1 RES1   0.0000
   160 H64      7.9764  22.1865  14.1538   H         1 RES1   0.0000
   161 C46     13.2719  20.7168  15.3211   C.2       1 RES1   0.0000
   162 C47     12.0690  31.5735  11.3938   C.3       1 RES1   0.0000
   163 C48     15.8536  27.3052   7.9045   C.3       1 RES1   0.0000
   164 C49     10.1442  26.7205   8.4720   C.3       1 RES1   0.0000
   165 H65      9.3681  27.1484   8.8897   H         1 RES1   0.0000
   166 C50      5.9239  29.0088  11.7308   C.3       1 RES1   0.0000
   167 H66      5.6102  28.3497  12.3540   H         1 RES1   0.0000
   168 H67      5.1895  29.5616  11.4541   H         1 RES1   0.0000
   169 H68      6.5925  29.5563  12.1511   H         1 RES1   0.0000
   170 C51      8.9709  21.0888  15.6025   C.3       1 RES1   0.0000
   171 H69      9.9138  20.9294  15.7663   H         1 RES1   0.0000
   172 H70      8.6420  21.7400  16.2449   H         1 RES1   0.0000
   173 C52     11.7797  18.5109  10.2146   C.3       1 RES1   0.0000
   174 C53     13.2683  22.1546   6.6722   C.3       1 RES1   0.0000
   175 C54     13.8317  29.1576  15.7226   C.3       1 RES1   0.0000
   176 H71     14.2916  29.0487  14.8768   H         1 RES1   0.0000
   177 H72     13.4329  30.0426  15.7559   H         1 RES1   0.0000
   178 C55     11.4947  24.6236  19.8247   C.3       1 RES1   0.0000
   179 H73     12.3180  24.1904  19.5896   H         1 RES1   0.0000
   180 H74     11.3226  24.4960  20.7599   H         1 RES1   0.0000
   181 H75     11.5602  25.5618  19.6364   H         1 RES1   0.0000
   182 C56     11.2061  17.7109  11.4052   C.3       1 RES1   0.0000
   183 H76     10.3469  18.0670  11.6414   H         1 RES1   0.0000
   184 H77     11.8005  17.7853  12.1563   H         1 RES1   0.0000
   185 H78     11.1150  16.7887  11.1576   H         1 RES1   0.0000
   186 C57      8.3118  20.3048  13.3288   C.3       1 RES1   0.0000
   187 H79      7.4166  20.4138  12.9678   H         1 RES1   0.0000
   188 H80      8.9269  20.1533  12.5933   H         1 RES1   0.0000
   189 C58     17.9839  27.7118  14.3150   C.3       1 RES1   0.0000
   190 H81     18.0315  26.7551  14.3619   H         1 RES1   0.0000
   191 H82     17.3945  28.0361  15.0017   H         1 RES1   0.0000
   192 H83     18.8609  28.0813  14.4451   H         1 RES1   0.0000
   193 C59     13.1504  17.9740   9.8187   C.3       1 RES1   0.0000
   194 H84     13.0668  17.0598   9.5347   H         1 RES1   0.0000
   195 H85     13.7413  18.0192  10.5750   H         1 RES1   0.0000
   196 H86     13.5057  18.5029   9.1030   H         1 RES1   0.0000
   197 C60     13.1271  19.7813  17.6556   C.3       1 RES1   0.0000
   198 H87     13.1558  18.9653  18.1591   H         1 RES1   0.0000
   199 H88     12.2466  20.1587  17.7117   H         1 RES1   0.0000
   200 H89     13.7647  20.4005  18.0134   H         1 RES1   0.0000
   201 C61      5.2918  25.3837  15.8579   C.3       1 RES1   0.0000
   202 H90      4.3625  25.3385  16.0940   H         1 RES1   0.0000
   203 H91      5.5346  26.2953  15.6831   H         1 RES1   0.0000
   204 H92      5.8251  25.0408  16.5778   H         1 RES1   0.0000
   205 C62     12.5010  18.4205  15.6066   C.3       1 RES1   0.0000
   206 H93     12.7650  18.2026  14.7104   H         1 RES1   0.0000
   207 H94     11.6076  18.7687  15.5999   H         1 RES1   0.0000
   208 H95     12.5335  17.6312  16.1512   H         1 RES1   0.0000
   209 C63     13.0481  27.4381  17.3195   C.3       1 RES1   0.0000
   210 H96     12.2244  27.2999  17.8106   H         1 RES1   0.0000
   211 H97     13.5054  26.5850  17.2332   H         1 RES1   0.0000
   212 C64     17.8926  23.3133  16.2397   C.3       1 RES1   0.0000
   213 H98     17.7491  22.4948  15.7559   H         1 RES1   0.0000
   214 H99     18.5457  23.1672  16.9263   H         1 RES1   0.0000
   215 H100    18.2073  23.9911  15.6363   H         1 RES1   0.0000
   216 C65     10.3253  22.4815  19.2327   C.3       1 RES1   0.0000
   217 H101     9.5932  22.0881  18.7521   H         1 RES1   0.0000
   218 H102    10.2248  22.3008  20.1721   H         1 RES1   0.0000
   219 H103    11.1523  22.1041  18.9237   H         1 RES1   0.0000
   220 C66      7.0003  29.3596   9.4993   C.3       1 RES1   0.0000
   221 H104     7.6626  29.9204   9.9092   H         1 RES1   0.0000
   222 H105     6.2544  29.8938   9.2226   H         1 RES1   0.0000
   223 H106     7.3812  28.9184   8.7388   H         1 RES1   0.0000
   224 C67     14.7830  22.0669   6.4345   C.3       1 RES1   0.0000
   225 H107    14.9501  21.6921   5.5658   H         1 RES1   0.0000
   226 H108    15.1823  21.5088   7.1055   H         1 RES1   0.0000
   227 H109    15.1666  22.9466   6.4813   H         1 RES1   0.0000
   228 C68      8.2610  30.6619  15.3242   C.3       1 RES1   0.0000
   229 H110     9.0534  31.0047  14.9028   H         1 RES1   0.0000
   230 H111     7.9025  31.3237  15.9172   H         1 RES1   0.0000
   231 H112     7.6107  30.4493  14.6480   H         1 RES1   0.0000
   232 C69     12.6575  20.7859   6.5281   C.3       1 RES1   0.0000
   233 H113    11.7137  20.8390   6.6946   H         1 RES1   0.0000
   234 H114    13.0610  20.1879   7.1627   H         1 RES1   0.0000
   235 H115    12.8104  20.4616   5.6386   H         1 RES1   0.0000
   236 C70     17.1608  29.6546  12.9158   C.3       1 RES1   0.0000
   237 H116    17.9731  30.1383  13.0874   H         1 RES1   0.0000
   238 H117    16.5131  29.8699  13.5920   H         1 RES1   0.0000
   239 H118    16.8190  29.8991  12.0523   H         1 RES1   0.0000
   240 C71     18.1073  22.5639  12.2879   C.3       1 RES1   0.0000
   241 H119    17.9844  21.9021  12.9730   H         1 RES1   0.0000
   242 H120    17.8616  23.4250  12.6297   H         1 RES1   0.0000
   243 H121    19.0278  22.5772  12.0159   H         1 RES1   0.0000
   244 C72     13.9198  28.4400  18.0077   C.3       1 RES1   0.0000
   245 H122    13.3924  29.1576  18.3932   H         1 RES1   0.0000
   246 H123    14.4487  28.0228  18.7053   H         1 RES1   0.0000
   247 C73     14.7863  28.9397  16.8987   C.3       1 RES1   0.0000
   248 H124    15.4676  28.2886  16.6714   H         1 RES1   0.0000
   249 H125    15.2198  29.7716  17.1500   H         1 RES1   0.0000
   250 C74     10.8402  27.3610   6.2561   C.3       1 RES1   0.0000
   251 H126    11.6585  26.8933   6.0236   H         1 RES1   0.0000
   252 H127    10.7437  28.1238   5.6646   H         1 RES1   0.0000
   253 C75      9.6524  26.4335   6.1031   C.3       1 RES1   0.0000
   254 H128     9.7832  25.8142   5.3681   H         1 RES1   0.0000
   255 H129     8.8344  26.9305   5.9611   H         1 RES1   0.0000
   256 C76      7.3615  28.7988  16.7442   C.3       1 RES1   0.0000
   257 H130     6.7771  28.4932  16.0472   H         1 RES1   0.0000
   258 H131     6.9187  29.4766  17.2592   H         1 RES1   0.0000
   259 H132     7.5940  28.0627  17.3112   H         1 RES1   0.0000
   260 C77      9.6604  29.7822  17.1760   C.3       1 RES1   0.0000
   261 H133    10.1618  29.0088  17.4465   H         1 RES1   0.0000
   262 H134     9.2189  30.1596  17.9406   H         1 RES1   0.0000
   263 H135    10.2560  30.4333  16.7963   H         1 RES1   0.0000
   264 C78      7.2833  21.7161   7.4800   C.3       1 RES1   0.0000
   265 H136     6.9198  22.3008   6.8142   H         1 RES1   0.0000
   266 H137     6.9694  20.8231   7.3292   H         1 RES1   0.0000
   267 H138     8.2417  21.7320   7.4332   H         1 RES1   0.0000
   268 C79      5.9137  21.5433   9.7011   C.3       1 RES1   0.0000
   269 H139     6.3716  20.9055  10.2525   H         1 RES1   0.0000
   270 H140     5.2295  21.0968   9.1966   H         1 RES1   0.0000
   271 H141     5.5138  22.2157  10.2577   H         1 RES1   0.0000
   272 C80      5.9206  23.4276   8.2447   C.3       1 RES1   0.0000
   273 H142     5.0760  23.0901   7.9430   H         1 RES1   0.0000
   274 H143     6.3707  23.8688   7.5216   H         1 RES1   0.0000
   275 H144     5.7772  24.0522   8.9625   H         1 RES1   0.0000
   276 Fe10     9.6666   5.7244  28.5950   Fe        2 RES2   0.0000
   277 Fe11    14.6056   6.2711  27.1177   Fe        2 RES2   0.0000
   278 Fe12    10.7242   5.6069  23.4884   Fe        2 RES2   0.0000
   279 Fe13    13.0566   9.2241  26.7453   Fe        2 RES2   0.0000
   280 Fe14    12.4676   4.0570  28.3090   Fe        2 RES2   0.0000
   281 Fe15     9.9744   8.9001  27.7981   Fe        2 RES2   0.0000
   282 Fe16    10.1761   3.5432  26.0099   Fe        2 RES2   0.0000
   283 Fe17    13.5295   7.2412  24.0710   Fe        2 RES2   0.0000
   284 Fe18     8.6556   6.5834  25.8111   Fe        2 RES2   0.0000
   285 P4      12.3178   7.2053  29.2808   P.3       2 RES2   0.0000
   286 P5      13.1452   4.1263  25.1112   P.3       2 RES2   0.0000
   287 P6      10.6035   8.6859  24.5842   P.3       2 RES2   0.0000
   288 O40     12.7547   5.3409  24.2331   O.co2     2 RES2   0.0000
   289 C81     16.8347   9.6049  28.8543   C.3       2 RES2   0.0000
   290 O41     14.2235   3.6302  29.1789   O.co2     2 RES2   0.0000
   291 O42     13.5762   4.6007  26.5286   O.co2     2 RES2   0.0000
   292 O43     11.4962   7.5872  23.9819   O.co2     2 RES2   0.0000
   293 C82      6.1210   3.7766  27.6178   C.3       2 RES2   0.0000
   294 O44     10.4144  10.8097  28.1573   O.co2     2 RES2   0.0000
   295 C83     17.7820   6.2164  24.1670   C.3       2 RES2   0.0000
   296 O45     12.0330   8.4217  28.3591   O.co2     2 RES2   0.0000
   297 O46     13.1438   6.1316  28.5255   O.co2     2 RES2   0.0000
   298 O47     13.6806   7.5657  25.9871   O.3       2 RES2   0.0000
   299 C84     12.5677   8.9432  31.4317   C.3       2 RES2   0.0000
   300 H145    13.0036   9.7857  31.2309   H         2 RES2   0.0000
   301 H146    11.6337   9.0016  31.1789   H         2 RES2   0.0000
   302 C85      7.6775   8.3505  31.4302   C.3       2 RES2   0.0000
   303 O48     11.0279   6.5767  29.7667   O.co2     2 RES2   0.0000
   304 O49     11.5048   6.0117  21.6786   O.co2     2 RES2   0.0000
   305 C86     12.9480   6.4742  19.8075   C.3       2 RES2   0.0000
   306 C87     11.4404  11.5025  27.9024   C.2       2 RES2   0.0000
   307 O50      8.2920   6.7365  29.7563   O.co2     2 RES2   0.0000
   308 C88     10.4531   3.7101  30.5188   C.2       2 RES2   0.0000
   309 O51     12.4017   2.1166  27.9320   O.co2     2 RES2   0.0000
   310 O52     10.4262   1.7336  26.9390   O.co2     2 RES2   0.0000
   311 O53      7.9919   5.2644  27.3520   O.co2     2 RES2   0.0000
   312 O54     15.7099   5.0204  28.2436   O.co2     2 RES2   0.0000
   313 O55     13.5043   6.9095  22.0848   O.co2     2 RES2   0.0000
   314 C89     11.4443   1.3581  27.5773   C.2       2 RES2   0.0000
   315 C90     15.3959   4.0583  28.9994   C.2       2 RES2   0.0000
   316 O56      9.1890   8.7941  29.6288   O.co2     2 RES2   0.0000
   317 C91     17.4711  10.4899  27.7541   C.3       2 RES2   0.0000
   318 H147    18.1405  11.0560  28.1463   H         2 RES2   0.0000
   319 H148    16.7908  11.0348  27.3453   H         2 RES2   0.0000
   320 H149    17.8757   9.9318  27.0852   H         2 RES2   0.0000
   321 C92      8.4442   7.9253  30.1563   C.2       2 RES2   0.0000
   322 O57      8.2376   9.5683  27.0727   O.co2     2 RES2   0.0000
   323 O58      9.4590   4.2420  29.9560   O.co2     2 RES2   0.0000
   324 C93     16.0708   2.2059  30.5693   C.3       2 RES2   0.0000
   325 H150    15.4636   2.5009  31.2517   H         2 RES2   0.0000
   326 H151    16.8228   1.7700  30.9761   H         2 RES2   0.0000
   327 H152    15.6219   1.5920  29.9825   H         2 RES2   0.0000
   328 C94      7.7647   5.9665  23.1023   C.2       2 RES2   0.0000
   329 C95     10.2059   1.9720  20.8114   C.3       2 RES2   0.0000
   330 H153     9.7259   2.7560  20.5311   H         2 RES2   0.0000
   331 H154    10.0200   1.2491  20.2086   H         2 RES2   0.0000
   332 H155    11.1485   2.1581  20.8068   H         2 RES2   0.0000
   333 O59     11.6540   3.7739  30.1297   O.co2     2 RES2   0.0000
   334 O60      8.9664   6.0941  22.6856   O.co2     2 RES2   0.0000
   335 O61     11.1590   9.1558  25.9507   O.co2     2 RES2   0.0000
   336 O62     12.5298  11.0385  27.4758   O.co2     2 RES2   0.0000
   337 O63     15.6825   7.6350  28.1099   O.co2     2 RES2   0.0000
   338 O64      9.1965   8.1392  24.7215   O.co2     2 RES2   0.0000
   339 C96     14.8185  11.3112  23.3504   C.3       2 RES2   0.0000
   340 O65      7.4221   5.9833  24.3132   O.co2     2 RES2   0.0000
   341 C97     13.0603   7.9492  19.3955   C.3       2 RES2   0.0000
   342 H156    12.2456   8.4063  19.6156   H         2 RES2   0.0000
   343 H157    13.2164   8.0077  18.4504   H         2 RES2   0.0000
   344 H158    13.7928   8.3585  19.8652   H         2 RES2   0.0000
   345 C98      9.9544   2.7374  23.1714   C.2       2 RES2   0.0000
   346 C99      9.8816   9.7352  22.1269   C.3       2 RES2   0.0000
   347 H159     9.7040   8.7837  22.0604   H         2 RES2   0.0000
   348 H160    10.4367  10.0089  21.3789   H         2 RES2   0.0000
   349 C100     7.1733   8.9591  26.7528   C.2       2 RES2   0.0000
   350 O66      7.1020   7.7427  26.4365   O.co2     2 RES2   0.0000
   351 O67     11.9811   3.1762  25.2188   O.co2     2 RES2   0.0000
   352 O68     10.5947   3.7598  22.7699   O.co2     2 RES2   0.0000
   353 C101     6.5122   7.3911  31.7111   C.3       2 RES2   0.0000
   354 H161     5.8929   7.4176  30.9761   H         2 RES2   0.0000
   355 H162     6.0648   7.6595  32.5158   H         2 RES2   0.0000
   356 H163     6.8486   6.4981  31.8135   H         2 RES2   0.0000
   357 O69      9.9368   5.2819  25.1434   O.3       2 RES2   0.0000
   358 C102    17.8360   8.5950  29.3932   C.3       2 RES2   0.0000
   359 H164    18.1293   8.0236  28.6769   H         2 RES2   0.0000
   360 H165    17.4196   8.0635  30.0762   H         2 RES2   0.0000
   361 H166    18.5907   9.0574  29.7641   H         2 RES2   0.0000
   362 O70      9.4841   2.5929  24.3392   O.co2     2 RES2   0.0000
   363 O71     10.8080   4.4979  27.5903   O.3       2 RES2   0.0000
   364 O72      9.7427   7.1439  27.3099   O.3       2 RES2   0.0000
   365 O73     13.9794   9.0920  23.5054   O.co2     2 RES2   0.0000
   366 C103    12.0384  13.7297  27.0171   C.3       2 RES2   0.0000
   367 H167    12.9105  13.3682  26.8459   H         2 RES2   0.0000
   368 H168    12.1159  14.6652  27.2256   H         2 RES2   0.0000
   369 H169    11.4888  13.6207  26.2373   H         2 RES2   0.0000
   370 O74     13.7845  10.3783  25.2818   O.co2     2 RES2   0.0000
   371 C104    12.6349   6.4529  21.3139   C.2       2 RES2   0.0000
   372 O75     14.6974   9.5869  27.8176   O.co2     2 RES2   0.0000
   373 O76      8.2188   3.1906  26.6217   O.co2     2 RES2   0.0000
   374 C105     9.9712  13.4559  28.4439   C.3       2 RES2   0.0000
   375 H170     9.4666  13.3815  27.6314   H         2 RES2   0.0000
   376 H171     9.9746  14.3702  28.7393   H         2 RES2   0.0000
   377 H172     9.5714  12.9031  29.1191   H         2 RES2   0.0000
   378 O77     15.4538   6.7317  23.8539   O.co2     2 RES2   0.0000
   379 C106    14.9257   1.5282  22.7054   C.3       2 RES2   0.0000
   380 H173    14.5178   1.0126  21.9927   H         2 RES2   0.0000
   381 H174    15.8716   1.6398  22.5181   H         2 RES2   0.0000
   382 C107    17.1206   4.4835  30.6983   C.3       2 RES2   0.0000
   383 H175    17.4022   5.2383  30.1750   H         2 RES2   0.0000
   384 H176    17.8707   4.1301  31.1789   H         2 RES2   0.0000
   385 H177    16.4418   4.7573  31.3194   H         2 RES2   0.0000
   386 C108    12.6702   7.1093  32.9428   C.3       2 RES2   0.0000
   387 H178    11.7537   6.7931  32.8851   H         2 RES2   0.0000
   388 H179    13.0654   6.7718  33.7642   H         2 RES2   0.0000
   389 C109    10.6583   0.4624  22.7069   C.3       2 RES2   0.0000
   390 H180    10.5079  -0.3269  22.1800   H         2 RES2   0.0000
   391 H181    10.4410   0.2791  23.6261   H         2 RES2   0.0000
   392 H182    11.5797   0.7202  22.6430   H         2 RES2   0.0000
   393 O78     16.1156   6.0269  25.8493   O.co2     2 RES2   0.0000
   394 C110    11.4064  12.9962  28.1952   C.3       2 RES2   0.0000
   395 C111    15.3046  12.4088  24.3075   C.3       2 RES2   0.0000
   396 H183    14.5648  12.7304  24.8277   H         2 RES2   0.0000
   397 H184    15.6786  13.1317  23.8029   H         2 RES2   0.0000
   398 H185    15.9752  12.0474  24.8901   H         2 RES2   0.0000
   399 C112     9.7754   1.5920  22.1935   C.3       2 RES2   0.0000
   400 C113    13.4625   6.6629  31.7459   C.3       2 RES2   0.0000
   401 H186    13.1355   5.8124  31.4182   H         2 RES2   0.0000
   402 H187    14.4021   6.5698  31.9748   H         2 RES2   0.0000
   403 C114     5.8843   9.7591  26.7232   C.3       2 RES2   0.0000
   404 C115    12.2842  13.2274  29.4395   C.3       2 RES2   0.0000
   405 H188    11.9265  12.7304  30.1802   H         2 RES2   0.0000
   406 H189    12.2946  14.1629  29.6548   H         2 RES2   0.0000
   407 H190    13.1793  12.9324  29.2595   H         2 RES2   0.0000
   408 C116    14.9392   1.9933  25.0919   C.3       2 RES2   0.0000
   409 H191    15.8712   2.0252  25.3582   H         2 RES2   0.0000
   410 H192    14.3927   1.8630  25.8836   H         2 RES2   0.0000
   411 C117    13.2662   7.7685  30.6874   C.3       2 RES2   0.0000
   412 H193    14.1453   8.0688  30.3779   H         2 RES2   0.0000
   413 C118     4.9371   9.0920  27.7406   C.3       2 RES2   0.0000
   414 H194     4.9550   8.1379  27.6210   H         2 RES2   0.0000
   415 H195     4.0423   9.4136  27.6054   H         2 RES2   0.0000
   416 H196     5.2228   9.3046  28.6301   H         2 RES2   0.0000
   417 C119    16.3384   6.3280  24.6685   C.2       2 RES2   0.0000
   418 C120    10.5461  10.0913  23.4778   C.3       2 RES2   0.0000
   419 H197    11.4622  10.3943  23.3088   H         2 RES2   0.0000
   420 C121     7.5244   4.0663  27.1549   C.2       2 RES2   0.0000
   421 C122    14.5260   3.3088  24.3345   C.3       2 RES2   0.0000
   422 H198    15.2908   3.9201  24.3335   H         2 RES2   0.0000
   423 C123    14.1586  10.1710  24.1129   C.2       2 RES2   0.0000
   424 C124    15.6456   8.8873  28.2082   C.2       2 RES2   0.0000
   425 C125    14.2263   2.8916  22.8807   C.3       2 RES2   0.0000
   426 H199    14.5807   3.5427  22.2580   H         2 RES2   0.0000
   427 H200    13.2698   2.8092  22.7366   H         2 RES2   0.0000
   428 C126     9.2770   1.7647  31.4369   C.3       2 RES2   0.0000
   429 H201     8.5161   2.0677  30.9344   H         2 RES2   0.0000
   430 H202     8.9798   1.3209  32.2349   H         2 RES2   0.0000
   431 H203     9.7904   1.1534  30.9032   H         2 RES2   0.0000
   432 C127    11.5805  -0.1355  27.9065   C.3       2 RES2   0.0000
   433 C128    16.5556   3.4045  29.7687   C.3       2 RES2   0.0000
   434 C129    10.1456   2.9607  31.8151   C.3       2 RES2   0.0000
   435 C130     9.7289  11.2740  24.0901   C.3       2 RES2   0.0000
   436 H204     9.2572  10.9896  24.8901   H         2 RES2   0.0000
   437 H205    10.3146  12.0128  24.3179   H         2 RES2   0.0000
   438 C131    10.1907  -0.7734  28.1073   C.3       2 RES2   0.0000
   439 H206     9.7593  -0.3668  28.8642   H         2 RES2   0.0000
   440 H207    10.2908  -1.7142  28.2660   H         2 RES2   0.0000
   441 H208     9.6577  -0.6325  27.3193   H         2 RES2   0.0000
   442 C132     6.6764   5.8443  22.0448   C.3       2 RES2   0.0000
   443 C133    17.6075   2.9846  28.7398   C.3       2 RES2   0.0000
   444 H209    17.2212   2.3521  28.1307   H         2 RES2   0.0000
   445 H210    18.3518   2.5806  29.1919   H         2 RES2   0.0000
   446 H211    17.9076   3.7553  28.2556   H         2 RES2   0.0000
   447 C134    14.3119   5.7964  19.6031   C.3       2 RES2   0.0000
   448 H212    14.5427   5.8150  18.6689   H         2 RES2   0.0000
   449 H213    14.2630   4.8849  19.9017   H         2 RES2   0.0000
   450 H214    14.9797   6.2615  20.1097   H         2 RES2   0.0000
   451 C135    16.3007  10.4926  29.9674   C.3       2 RES2   0.0000
   452 H215    17.0225  11.0029  30.3467   H         2 RES2   0.0000
   453 H216    15.9039   9.9478  30.6483   H         2 RES2   0.0000
   454 H217    15.6401  11.0906  29.6132   H         2 RES2   0.0000
   455 C136    11.8768   5.7513  19.0226   C.3       2 RES2   0.0000
   456 H218    11.0374   6.2057  19.1318   H         2 RES2   0.0000
   457 H219    11.7963   4.8503  19.3451   H         2 RES2   0.0000
   458 H220    12.1140   5.7406  18.0915   H         2 RES2   0.0000
   459 C137     7.2214   5.3632  20.7079   C.3       2 RES2   0.0000
   460 H221     7.8950   5.9745  20.4010   H         2 RES2   0.0000
   461 H222     6.5066   5.3234  20.0681   H         2 RES2   0.0000
   462 H223     7.6049   4.4915  20.8172   H         2 RES2   0.0000
   463 C138    12.2700  -0.7760  26.6545   C.3       2 RES2   0.0000
   464 H224    11.7055  -0.6644  25.8836   H         2 RES2   0.0000
   465 H225    12.4124  -1.7116  26.8147   H         2 RES2   0.0000
   466 H226    13.1124  -0.3455  26.4974   H         2 RES2   0.0000
   467 C139    12.7134   8.5923  32.9116   C.3       2 RES2   0.0000
   468 H227    13.5550   8.9219  33.2648   H         2 RES2   0.0000
   469 H228    11.9868   8.9724  33.4313   H         2 RES2   0.0000
   470 C140    14.6978   0.8744  24.0739   C.3       2 RES2   0.0000
   471 H229    13.7908   0.5342  24.1462   H         2 RES2   0.0000
   472 H230    15.3185   0.1435  24.2139   H         2 RES2   0.0000
   473 C141    11.4587   2.4743  32.4606   C.3       2 RES2   0.0000
   474 H231    11.9337   1.9189  31.8395   H         2 RES2   0.0000
   475 H232    11.2578   1.9720  33.2544   H         2 RES2   0.0000
   476 H233    12.0019   3.2318  32.6926   H         2 RES2   0.0000
   477 C142     9.3994   3.8909  32.7566   C.3       2 RES2   0.0000
   478 H234     9.9577   4.6403  32.9735   H         2 RES2   0.0000
   479 H235     9.1737   3.4178  33.5613   H         2 RES2   0.0000
   480 H236     8.5973   4.2018  32.3285   H         2 RES2   0.0000
   481 C143     8.6788   8.2708  32.5704   C.3       2 RES2   0.0000
   482 H237     9.0162   7.3751  32.6354   H         2 RES2   0.0000
   483 H238     8.2455   8.5100  33.3948   H         2 RES2   0.0000
   484 H239     9.4057   8.8741  32.4013   H         2 RES2   0.0000
   485 C144    12.4321  -0.3322  29.1539   C.3       2 RES2   0.0000
   486 H240    13.3085   0.0319  29.0046   H         2 RES2   0.0000
   487 H241    12.5035  -1.2677  29.3479   H         2 RES2   0.0000
   488 H242    12.0223   0.1196  29.8941   H         2 RES2   0.0000
   489 C145     8.2986   1.1428  22.2357   C.3       2 RES2   0.0000
   490 H243     7.7381   1.8551  21.9199   H         2 RES2   0.0000
   491 H244     8.0557   0.9249  23.1371   H         2 RES2   0.0000
   492 H245     8.1833   0.3721  21.6754   H         2 RES2   0.0000
   493 C146     6.1353  11.2128  27.0904   C.3       2 RES2   0.0000
   494 H246     6.4712  11.2633  27.9903   H         2 RES2   0.0000
   495 H247     5.3151  11.7072  27.0280   H         2 RES2   0.0000
   496 H248     6.7810  11.5876  26.4870   H         2 RES2   0.0000
   497 C147     5.3278   9.6607  25.2958   C.3       2 RES2   0.0000
   498 H249     5.9445  10.0700  24.6820   H         2 RES2   0.0000
   499 H250     4.4828  10.1152  25.2490   H         2 RES2   0.0000
   500 H251     5.2086   8.7385  25.0617   H         2 RES2   0.0000
   501 C148     8.5610  10.5537  22.1800   C.3       2 RES2   0.0000
   502 H252     8.3130  10.8381  21.2853   H         2 RES2   0.0000
   503 H253     7.8454  10.0036  22.5337   H         2 RES2   0.0000
   504 C149     5.6092   4.8317  22.5545   C.3       2 RES2   0.0000
   505 H254     6.0407   4.0184  22.8198   H         2 RES2   0.0000
   506 H255     4.9809   4.6483  21.8523   H         2 RES2   0.0000
   507 H256     5.1469   5.2091  23.3088   H         2 RES2   0.0000
   508 C150     7.1774   9.7750  31.2934   C.3       2 RES2   0.0000
   509 H257     7.9256  10.3757  31.2413   H         2 RES2   0.0000
   510 H258     6.6399  10.0009  32.0528   H         2 RES2   0.0000
   511 H259     6.6496   9.8548  30.4923   H         2 RES2   0.0000
   512 C151     8.7538  11.6806  23.0071   C.3       2 RES2   0.0000
   513 H260     7.9115  11.9597  23.4024   H         2 RES2   0.0000
   514 H261     9.1118  12.4221  22.4921   H         2 RES2   0.0000
   515 C152     6.0868   7.2768  21.8991   C.3       2 RES2   0.0000
   516 H262     5.7555   7.5744  22.7522   H         2 RES2   0.0000
   517 H263     5.3687   7.2635  21.2645   H         2 RES2   0.0000
   518 H264     6.7734   7.8748  21.5974   H         2 RES2   0.0000
   519 C153     5.9388   2.2404  27.7822   C.3       2 RES2   0.0000
   520 H265     6.1650   1.8019  26.9552   H         2 RES2   0.0000
   521 H266     5.0261   2.0491  28.0059   H         2 RES2   0.0000
   522 H267     6.5150   1.9215  28.4792   H         2 RES2   0.0000
   523 C154     5.2427   4.3108  26.5702   C.3       2 RES2   0.0000
   524 H268     4.9210   5.1772  26.8303   H         2 RES2   0.0000
   525 H269     4.4977   3.7181  26.4454   H         2 RES2   0.0000
   526 H270     5.7330   4.3879  25.7484   H         2 RES2   0.0000
   527 C155     5.8440   4.4198  28.9318   C.3       2 RES2   0.0000
   528 H271     6.5165   4.1593  29.5664   H         2 RES2   0.0000
   529 H272     4.9826   4.1434  29.2491   H         2 RES2   0.0000
   530 H273     5.8533   5.3739  28.8278   H         2 RES2   0.0000
   531 C156    13.6548  12.0474  22.5493   C.3       2 RES2   0.0000
   532 H274    12.8846  12.1404  23.1111   H         2 RES2   0.0000
   533 H275    13.4230  11.5318  21.7743   H         2 RES2   0.0000
   534 H276    13.9558  12.9164  22.2736   H         2 RES2   0.0000
   535 C157    15.8889  10.8647  22.4817   C.3       2 RES2   0.0000
   536 H277    16.2681  11.6195  22.0292   H         2 RES2   0.0000
   537 H278    15.5395  10.2454  21.8367   H         2 RES2   0.0000
   538 H279    16.5660  10.4315  23.0071   H         2 RES2   0.0000
   539 C158    18.7163   6.2296  25.2490   C.3       2 RES2   0.0000
   540 H280    18.3357   6.6947  25.9980   H         2 RES2   0.0000
   541 H281    19.5212   6.6708  24.9733   H         2 RES2   0.0000
   542 H282    18.9214   5.3260  25.5039   H         2 RES2   0.0000
   543 C159    17.7619   5.6662  22.8042   C.3       2 RES2   0.0000
   544 H283    17.9419   4.7227  22.8406   H         2 RES2   0.0000
   545 H284    18.4334   6.0994  22.2736   H         2 RES2   0.0000
   546 H285    16.8984   5.8124  22.4141   H         2 RES2   0.0000
   547 C160    18.1765   7.7419  23.6885   C.3       2 RES2   0.0000
   548 H286    17.5284   8.0555  23.0539   H         2 RES2   0.0000
   549 H287    19.0454   7.7339  23.2776   H         2 RES2   0.0000
   550 H288    18.1869   8.3266  24.4479   H         2 RES2   0.0000
   551 O79     11.8278  24.0495  32.3197   O.3       3 RES3   0.0000
   552 C161    13.9511  23.2868  32.0684   C.3       3 RES3   0.0000
   553 H289    13.6873  23.1725  31.1529   H         3 RES3   0.0000
   554 H290    13.7847  22.4762  32.5522   H         3 RES3   0.0000
   555 H291    14.8877  23.4967  32.1048   H         3 RES3   0.0000
   556 C162    11.1026  25.0541  33.0255   C.3       3 RES3   0.0000
   557 H292    11.4209  25.9471  32.8331   H         3 RES3   0.0000
   558 H293    11.1026  24.9026  33.9878   H         3 RES3   0.0000
   559 C163    13.2183  24.3286  32.6354   C.3       3 RES3   0.0000
   560 H294    13.4893  25.1817  32.2609   H         3 RES3   0.0000
   561 H295    13.3503  24.3552  33.5977   H         3 RES3   0.0000
   562 C164     9.5599  24.7299  32.3077   C.3       3 RES3   0.0000
   563 H296     9.6866  24.3791  31.4234   H         3 RES3   0.0000
   564 H297     9.0524  25.5432  32.2609   H         3 RES3   0.0000
   565 H298     9.0872  24.0867  32.8435   H         3 RES3   0.0000
   566 O80     11.7038  16.2385  19.2707   O.3       4 RES4   0.0000
   567 C165    11.0813  14.9894  19.8574   C.3       4 RES4   0.0000
   568 H299    11.5381  14.2479  19.4283   H         4 RES4   0.0000
   569 H300    10.1707  14.9708  19.5219   H         4 RES4   0.0000
   570 C166    10.9677  14.5695  21.4601   C.3       4 RES4   0.0000
   571 H301    11.5224  13.8041  21.6286   H         4 RES4   0.0000
   572 H302    10.0554  14.3596  21.6702   H         4 RES4   0.0000
   573 H303    11.2612  15.3057  22.0031   H         4 RES4   0.0000
   574 H304    11.5129  17.0465  19.2150   H         4 RES4   0.0000
@<TRIPOS>BOND
     1     1    13    1
     2     2    15    1
     3     3    31    1
     4     4     7    1
     5     5    17    1
     6     6    13    1
     7     7    31    1
     8     8    17    1
     9     9    15    1
    10    10    13    1
    11    11    15    1
    12    12    25    1
    13    14    24   un
    14    16    46    1
    15    17    11    1
    16    18    40    1
    17    19     5    1
    18    20     2    1
    19    21     5    1
    20    22     1    1
    21    23    33    1
    22    24     6    1
    23    25     1    1
    24    26     8    1
    25    27     1    1
    26    28    29    1
    27    30    28    1
    28    31     9    1
    29    32     7    1
    30    33    59   un
    31    34     4    1
    32    35    14    1
    33    36     3    1
    34    37     4    1
    35    38     6    1
    36    39     3    1
    37    40    20   un
    38    41    35    1
    39    42    41    1
    40    43    41    1
    41    44    41    1
    42    45     9    1
    43    46    27   un
    44    47    23    1
    45    48    47    1
    46    49    47    1
    47    50    47    1
    48    51    19   un
    49    52     4    1
    50    53   130    1
    51    54     2    1
    52    55     1    1
    53    56     3    1
    54    57     2    1
    55    58     3    1
    56    59     2    1
    57    60     7    1
    58    61     5    1
    59    62     1    1
    60    63     6    1
    61    64    65    1
    62    66    64    1
    63    67    64    1
    64    68    69    1
    65    70    68    1
    66    71    68    1
    67    72    99    1
    68    73    26   un
    69    74    75    1
    70    76    74    1
    71    77    74    1
    72    78    79    1
    73    80    78    1
    74    81    78    1
    75    82    83    1
    76    84    82    1
    77    85     8    1
    78    86     5    1
    79    87     9    1
    80    88     9    1
    81    89     8    1
    82    90    16    1
    83    91    90    1
    84    92    90    1
    85    93    90    1
    86    94     7    1
    87    95    96    1
    88    97    95    1
    89    98    95    1
    90    99    63   un
    91   100   101    1
    92   102   100    1
    93   103   100    1
    94   104     4    1
    95   105   106    1
    96   107   105    1
    97   108   109    1
    98   110   108    1
    99   111   108    1
   100   112     4    1
   101   113     2    1
   102   114   115    1
   103   116   114    1
   104   117   114    1
   105   118   119    1
   106   120   118    1
   107   121   118    1
   108   122   123    1
   109   124   122    1
   110   125   122    1
   111   126   127    1
   112   128   126    1
   113   129   126    1
   114   130   131    1
   115   132   130    1
   116   133   130    1
   117   134   135    1
   118   136   134    1
   119   137   134    1
   120   138    78    1
   121   139   140    1
   122   141   139    1
   123   142   139    1
   124   143   118    1
   125   144   105    1
   126   145   144    1
   127   146   144    1
   128   147    16    1
   129   148   147    1
   130   149   147    1
   131   150   147    1
   132   151   122    1
   133   152    34   un
   134   153    32   un
   135   154    38   un
   136   155    58   un
   137   156    53    1
   138   157    10    1
   139   158   157    1
   140   159    12    1
   141   160   159    1
   142   161    22   un
   143   162    68    1
   144   163    51    1
   145   164    11    1
   146   165   164    1
   147   166    23    1
   148   167   166    1
   149   168   166    1
   150   169   166    1
   151   170   105    1
   152   171   170    1
   153   172   170    1
   154   173    64    1
   155   174   139    1
   156   175   157    1
   157   176   175    1
   158   177   175    1
   159   178    35    1
   160   179   178    1
   161   180   178    1
   162   181   178    1
   163   182   173    1
   164   183   182    1
   165   184   182    1
   166   185   182    1
   167   186   144    1
   168   187   186    1
   169   188   186    1
   170   189    53    1
   171   190   189    1
   172   191   189    1
   173   192   189    1
   174   193   173    1
   175   194   193    1
   176   195   193    1
   177   196   193    1
   178   197   151    1
   179   198   197    1
   180   199   197    1
   181   200   197    1
   182   201   143    1
   183   202   201    1
   184   203   201    1
   185   204   201    1
   186   205   151    1
   187   206   205    1
   188   207   205    1
   189   208   205    1
   190   209   157    1
   191   210   209    1
   192   211   209    1
   193   212    16    1
   194   213   212    1
   195   214   212    1
   196   215   212    1
   197   216    35    1
   198   217   216    1
   199   218   216    1
   200   219   216    1
   201   220    23    1
   202   221   220    1
   203   222   220    1
   204   223   220    1
   205   224   174    1
   206   225   224    1
   207   226   224    1
   208   227   224    1
   209   228    72    1
   210   229   228    1
   211   230   228    1
   212   231   228    1
   213   232   174    1
   214   233   232    1
   215   234   232    1
   216   235   232    1
   217   236    53    1
   218   237   236    1
   219   238   236    1
   220   239   236    1
   221   240   138    1
   222   241   240    1
   223   242   240    1
   224   243   240    1
   225   244   209    1
   226   245   244    1
   227   246   244    1
   228   247   175    1
   229   248   247    1
   230   249   247    1
   231   250    82    1
   232   251   250    1
   233   252   250    1
   234   253    28    1
   235   254   253    1
   236   255   253    1
   237   256    72    1
   238   257   256    1
   239   258   256    1
   240   259   256    1
   241   260    72    1
   242   261   260    1
   243   262   260    1
   244   263   260    1
   245   264    18    1
   246   265   264    1
   247   266   264    1
   248   267   264    1
   249   268    18    1
   250   269   268    1
   251   270   268    1
   252   271   268    1
   253   272    18    1
   254   273   272    1
   255   274   272    1
   256   275   272    1
   257     3    62    1
   258     4    62    1
   259     5   112    1
   260     6    25    1
   261     6    57    1
   262     7    34    1
   263     7   112    1
   264     8    21    1
   265     8    57    1
   266     9    54    1
   267    10    21    1
   268    10    37    2
   269    11    60    2
   270    12    36    2
   271    12    54    1
   272    14    55   un
   273    28   164    1
   274    33    85   un
   275    39   161   un
   276    40    87   un
   277    45   153   un
   278    46    52   un
   279    51    94   un
   280    56   152   un
   281    61   156   un
   282    73    86   un
   283    73   162    1
   284    74   163    1
   285    82   164    1
   286    88   155   un
   287    89    99   un
   288    95   163    1
   289   100   138    1
   290   104   156   un
   291   108   162    1
   292   113   154   un
   293   114   162    1
   294   126   143    1
   295   134   163    1
   296   138   152    1
   297   143   154    1
   298   151   161    1
   299   153   174    1
   300   155   173    1
   301   159   170    1
   302   159   186    1
   303   244   247    1
   304   250   253    1
   305   276   284    1
   306   277   291    1
   307   278   288    1
   308   279   296    1
   309   280   290    1
   310   281   294    1
   311   282   310    1
   312   283   288    1
   313   284   311    1
   314   285   296    1
   315   286   288    1
   316   287   292    1
   317   289   317    1
   318   290   315   un
   319   291   280    1
   320   292   278    1
   321   293   420    1
   322   294   306   un
   323   295   417    1
   324   296   281    1
   325   297   277    1
   326   298   277    1
   327   299   300    1
   328   301   299    1
   329   302   321    1
   330   303   276    1
   331   304   278    1
   332   305   341    1
   333   306   336   un
   334   307   276    1
   335   308   323   un
   336   309   280    1
   337   310   314   un
   338   311   276    1
   339   312   277    1
   340   313   283    1
   341   314   309   un
   342   315   312   un
   343   316   281    1
   344   317   318    1
   345   319   317    1
   346   320   317    1
   347   321   307   un
   348   322   281    1
   349   323   276    1
   350   324   325    1
   351   326   324    1
   352   327   324    1
   353   328   334   un
   354   329   330    1
   355   331   329    1
   356   332   329    1
   357   333   280    1
   358   334   278    1
   359   335   279    1
   360   336   279    1
   361   337   277    1
   362   338   284    1
   363   339   395    1
   364   340   284    1
   365   341   342    1
   366   343   341    1
   367   344   341    1
   368   345   352   un
   369   346   347    1
   370   348   346    1
   371   349   322   un
   372   350   284    1
   373   351   282    1
   374   352   278    1
   375   353   302    1
   376   354   353    1
   377   355   353    1
   378   356   353    1
   379   357   278    1
   380   358   289    1
   381   359   358    1
   382   360   358    1
   383   361   358    1
   384   362   282    1
   385   363   276    1
   386   364   276    1
   387   365   283    1
   388   366   367    1
   389   368   366    1
   390   369   366    1
   391   370   279    1
   392   371   304   un
   393   372   279    1
   394   373   282    1
   395   374   375    1
   396   376   374    1
   397   377   374    1
   398   378   283    1
   399   379   380    1
   400   381   379    1
   401   382   383    1
   402   384   382    1
   403   385   382    1
   404   386   387    1
   405   388   386    1
   406   389   390    1
   407   391   389    1
   408   392   389    1
   409   393   277    1
   410   394   306    1
   411   395   396    1
   412   397   395    1
   413   398   395    1
   414   399   329    1
   415   400   386    1
   416   401   400    1
   417   402   400    1
   418   403   349    1
   419   404   394    1
   420   405   404    1
   421   406   404    1
   422   407   404    1
   423   408   409    1
   424   410   408    1
   425   411   285    1
   426   412   411    1
   427   413   403    1
   428   414   413    1
   429   415   413    1
   430   416   413    1
   431   417   378   un
   432   418   287    1
   433   419   418    1
   434   420   311   un
   435   421   286    1
   436   422   421    1
   437   423   339    1
   438   424   289    1
   439   425   379    1
   440   426   425    1
   441   427   425    1
   442   428   429    1
   443   430   428    1
   444   431   428    1
   445   432   314    1
   446   433   315    1
   447   434   308    1
   448   435   418    1
   449   436   435    1
   450   437   435    1
   451   438   432    1
   452   439   438    1
   453   440   438    1
   454   441   438    1
   455   442   328    1
   456   443   433    1
   457   444   443    1
   458   445   443    1
   459   446   443    1
   460   447   305    1
   461   448   447    1
   462   449   447    1
   463   450   447    1
   464   451   289    1
   465   452   451    1
   466   453   451    1
   467   454   451    1
   468   455   305    1
   469   456   455    1
   470   457   455    1
   471   458   455    1
   472   459   442    1
   473   460   459    1
   474   461   459    1
   475   462   459    1
   476   463   432    1
   477   464   463    1
   478   465   463    1
   479   466   463    1
   480   467   299    1
   481   468   467    1
   482   469   467    1
   483   470   379    1
   484   471   470    1
   485   472   470    1
   486   473   434    1
   487   474   473    1
   488   475   473    1
   489   476   473    1
   490   477   434    1
   491   478   477    1
   492   479   477    1
   493   480   477    1
   494   481   302    1
   495   482   481    1
   496   483   481    1
   497   484   481    1
   498   485   432    1
   499   486   485    1
   500   487   485    1
   501   488   485    1
   502   489   399    1
   503   490   489    1
   504   491   489    1
   505   492   489    1
   506   493   403    1
   507   494   493    1
   508   495   493    1
   509   496   493    1
   510   497   403    1
   511   498   497    1
   512   499   497    1
   513   500   497    1
   514   501   346    1
   515   502   501    1
   516   503   501    1
   517   504   442    1
   518   505   504    1
   519   506   504    1
   520   507   504    1
   521   508   302    1
   522   509   508    1
   523   510   508    1
   524   511   508    1
   525   512   435    1
   526   513   512    1
   527   514   512    1
   528   515   442    1
   529   516   515    1
   530   517   515    1
   531   518   515    1
   532   519   293    1
   533   520   519    1
   534   521   519    1
   535   522   519    1
   536   523   293    1
   537   524   523    1
   538   525   523    1
   539   526   523    1
   540   527   293    1
   541   528   527    1
   542   529   527    1
   543   530   527    1
   544   531   339    1
   545   532   531    1
   546   533   531    1
   547   534   531    1
   548   535   339    1
   549   536   535    1
   550   537   535    1
   551   538   535    1
   552   539   295    1
   553   540   539    1
   554   541   539    1
   555   542   539    1
   556   543   295    1
   557   544   543    1
   558   545   543    1
   559   546   543    1
   560   547   295    1
   561   548   547    1
   562   549   547    1
   563   550   547    1
   564   279   298    1
   565   280   297    1
   566   280   363    1
   567   281   335    1
   568   281   364    1
   569   282   357    1
   570   282   363    1
   571   283   292    1
   572   283   298    1
   573   284   357    1
   574   284   364    1
   575   285   297    1
   576   285   303    2
   577   286   291    1
   578   286   351    2
   579   287   335    1
   580   287   338    2
   581   299   411    1
   582   305   371    1
   583   308   333   un
   584   313   371   un
   585   316   321   un
   586   324   433    1
   587   328   340   un
   588   337   424   un
   589   345   362   un
   590   345   399    1
   591   346   418    1
   592   349   350   un
   593   365   423   un
   594   366   394    1
   595   370   423   un
   596   372   424   un
   597   373   420   un
   598   374   394    1
   599   382   433    1
   600   386   467    1
   601   389   399    1
   602   393   417   un
   603   400   411    1
   604   408   421    1
   605   408   470    1
   606   421   425    1
   607   428   434    1
   608   501   512    1
   609   551   556    1
   610   552   553    1
   611   554   552    1
   612   555   552    1
   613   556   557    1
   614   558   556    1
   615   559   551    1
   616   560   559    1
   617   561   559    1
   618   562   556    1
   619   563   562    1
   620   564   562    1
   621   565   562    1
   622   552   559    1
   623   566   567    1
   624   567   568    1
   625   569   567    1
   626   570   567    1
   627   571   570    1
   628   572   570    1
   629   573   570    1
   630   574   566    1
@<TRIPOS>SUBSTRUCTURE
     1 RES1        1 GROUP             0 ****  ****    0  
     2 RES2      276 GROUP             0 ****  ****    0  
     3 RES3      551 GROUP             0 ****  ****    0  
     4 RES4      566 GROUP             0 ****  ****    0  
@<TRIPOS>CRYSIN
   16.3060   26.5770   52.0360   90.0000   91.5530   90.0000    14     1
