@<TRIPOS>MOLECULE
LUCCUK
   110   114     3     0     0
SMALL
NO_CHARGES
****
Generated from the CSD

@<TRIPOS>ATOM
     1 Fe1     10.6428  20.4779   3.7652   Fe        1 RES1   0.0000
     2 S1      12.2794  19.6213  -0.7280   S.2       1 RES1   0.0000
     3 O1       4.5324   9.7220   2.7019   O.2       1 RES1   0.0000
     4 O2       5.5175  16.3591   0.4910   O.2       1 RES1   0.0000
     5 N1      11.3224  20.3962   1.7576   N.2       1 RES1   0.0000
     6 N2       9.1398  18.8889   3.3089   N.ar      1 RES1   0.0000
     7 N3       6.4607  15.7615   2.4624   N.am      1 RES1   0.0000
     8 H1       6.4546  15.1448   3.0634   H         1 RES1   0.0000
     9 N4       6.5770  10.4984   2.0980   N.am      1 RES1   0.0000
    10 H2       6.9723  11.1678   1.7290   H         1 RES1   0.0000
    11 N5       9.1944   7.3959   3.1989   N.ar      1 RES1   0.0000
    12 C1      11.7133  20.0651   0.7274   C.1       1 RES1   0.0000
    13 C2       8.4427  18.8786   2.1612   C.ar      1 RES1   0.0000
    14 H3       8.5731  19.5759   1.5603   H         1 RES1   0.0000
    15 C3       7.5416  17.8928   1.8254   C.ar      1 RES1   0.0000
    16 H4       7.0844  17.9323   1.0166   H         1 RES1   0.0000
    17 C4       7.3227  16.8454   2.6974   C.ar      1 RES1   0.0000
    18 C5       8.0362  16.8542   3.9038   C.ar      1 RES1   0.0000
    19 H5       7.9164  16.1745   4.5273   H         1 RES1   0.0000
    20 C6       8.9068  17.8723   4.1508   C.ar      1 RES1   0.0000
    21 H6       9.3707  17.8620   4.9565   H         1 RES1   0.0000
    22 C7       5.6309  15.5696   1.4052   C.2       1 RES1   0.0000
    23 C8       4.8238  14.3113   1.4714   C.ar      1 RES1   0.0000
    24 C9       5.4065  13.0955   1.8239   C.ar      1 RES1   0.0000
    25 H7       6.3135  13.0618   2.0272   H         1 RES1   0.0000
    26 C10      4.6490  11.9412   1.8736   C.ar      1 RES1   0.0000
    27 C11      3.2936  12.0145   1.6130   C.ar      1 RES1   0.0000
    28 H8       2.7659  11.2527   1.6974   H         1 RES1   0.0000
    29 C12      2.7213  13.2068   1.2320   C.ar      1 RES1   0.0000
    30 H9       1.8150  13.2361   1.0226   H         1 RES1   0.0000
    31 C13      3.4716  14.3552   1.1582   C.ar      1 RES1   0.0000
    32 H10      3.0767  15.1565   0.8991   H         1 RES1   0.0000
    33 C14      5.2298  10.6112   2.2576   C.2       1 RES1   0.0000
    34 C15      7.4053   9.4100   2.4700   C.ar      1 RES1   0.0000
    35 C16      7.0276   8.4007   3.3495   C.ar      1 RES1   0.0000
    36 H11      6.1723   8.3788   3.7155   H         1 RES1   0.0000
    37 C17      7.9477   7.4457   3.6598   C.ar      1 RES1   0.0000
    38 H12      7.6825   6.7719   4.2426   H         1 RES1   0.0000
    39 C18      9.5375   8.3729   2.3691   C.ar      1 RES1   0.0000
    40 H13     10.4035   8.3714   2.0257   H         1 RES1   0.0000
    41 C19      8.6939   9.3836   1.9880   C.ar      1 RES1   0.0000
    42 H14      8.9903  10.0472   1.4082   H         1 RES1   0.0000
    43 S1A      9.0063  19.6213   8.2584   S.2       1 RES1   0.0000
    44 O1A     16.7533   9.7220   4.8285   O.2       1 RES1   0.0000
    45 O2A     15.7682  16.3591   7.0394   O.2       1 RES1   0.0000
    46 N1A      9.9632  20.3962   5.7728   N.2       1 RES1   0.0000
    47 N2A     12.1458  18.8889   4.2215   N.ar      1 RES1   0.0000
    48 N3A     14.8250  15.7615   5.0680   N.am      1 RES1   0.0000
    49 H1A     14.8310  15.1448   4.4670   H         1 RES1   0.0000
    50 N4A     14.7086  10.4984   5.4324   N.am      1 RES1   0.0000
    51 H2A     14.3133  11.1678   5.8014   H         1 RES1   0.0000
    52 N5A     12.0913   7.3959   4.3315   N.ar      1 RES1   0.0000
    53 C1A      9.5724  20.0651   6.8030   C.1       1 RES1   0.0000
    54 C2A     12.8430  18.8786   5.3692   C.ar      1 RES1   0.0000
    55 H3A     12.7126  19.5759   5.9701   H         1 RES1   0.0000
    56 C3A     13.7441  17.8928   5.7050   C.ar      1 RES1   0.0000
    57 H4A     14.2012  17.9323   6.5138   H         1 RES1   0.0000
    58 C4A     13.9630  16.8454   4.8330   C.ar      1 RES1   0.0000
    59 C5A     13.2495  16.8542   3.6266   C.ar      1 RES1   0.0000
    60 H5A     13.3693  16.1745   3.0031   H         1 RES1   0.0000
    61 C6A     12.3789  17.8723   3.3796   C.ar      1 RES1   0.0000
    62 H6A     11.9150  17.8620   2.5739   H         1 RES1   0.0000
    63 C7A     15.6548  15.5696   6.1252   C.2       1 RES1   0.0000
    64 C8A     16.4618  14.3113   6.0590   C.ar      1 RES1   0.0000
    65 C9A     15.8792  13.0955   5.7065   C.ar      1 RES1   0.0000
    66 H7A     14.9721  13.0618   5.5032   H         1 RES1   0.0000
    67 C10A    16.6367  11.9412   5.6568   C.ar      1 RES1   0.0000
    68 C11A    17.9921  12.0145   5.9174   C.ar      1 RES1   0.0000
    69 H8A     18.5198  11.2527   5.8331   H         1 RES1   0.0000
    70 C12A    18.5643  13.2068   6.2984   C.ar      1 RES1   0.0000
    71 H9A     19.4706  13.2361   6.5078   H         1 RES1   0.0000
    72 C13A    17.8141  14.3552   6.3722   C.ar      1 RES1   0.0000
    73 H10A    18.2089  15.1565   6.6313   H         1 RES1   0.0000
    74 C14A    16.0559  10.6112   5.2728   C.2       1 RES1   0.0000
    75 C15A    13.8804   9.4100   5.0604   C.ar      1 RES1   0.0000
    76 C16A    14.2581   8.4007   4.1809   C.ar      1 RES1   0.0000
    77 H11A    15.1134   8.3788   3.8149   H         1 RES1   0.0000
    78 C17A    13.3380   7.4457   3.8706   C.ar      1 RES1   0.0000
    79 H12A    13.6031   6.7719   3.2878   H         1 RES1   0.0000
    80 C18A    11.7481   8.3729   5.1613   C.ar      1 RES1   0.0000
    81 H13A    10.8822   8.3714   5.5047   H         1 RES1   0.0000
    82 C19A    12.5918   9.3836   5.5424   C.ar      1 RES1   0.0000
    83 H14A    12.2953  10.0472   6.1222   H         1 RES1   0.0000
    84 Fe1     10.6428   5.8297   3.7652   Fe        1 RES1   0.0000
    85 N5       9.1944  22.0441   3.1989   N.3       1 RES1   0.0000
    86 N5A     12.0913  22.0441   4.3315   N.3       1 RES1   0.0000
    87 O3       6.9641  13.9187   4.6463   O.2       2 RES2   0.0000
    88 N6       5.2492  12.5887   5.3345   N.am      2 RES2   0.0000
    89 C20      4.2513  13.6052   5.1960   C.3       2 RES2   0.0000
    90 H15      4.6784  14.4563   5.0725   H         2 RES2   0.0000
    91 H16      3.7086  13.6302   5.9867   H         2 RES2   0.0000
    92 H17      3.7003  13.4104   4.4339   H         2 RES2   0.0000
    93 C21      6.5210  12.8348   5.0378   C.2       2 RES2   0.0000
    94 H18      7.1249  12.1346   5.1312   H         2 RES2   0.0000
    95 C22      4.8537  11.2689   5.7367   C.3       2 RES2   0.0000
    96 H19      5.6314  10.7122   5.8135   H         2 RES2   0.0000
    97 H20      4.2608  10.8983   5.0800   H         2 RES2   0.0000
    98 H21      4.4060  11.3128   6.5861   H         2 RES2   0.0000
    99 O4      12.8544  12.4114   6.6494   O.2       3 RES3   0.0000
   100 N7      11.1181  13.8352   6.4596   N.am      3 RES3   0.0000
   101 C23     10.1409  12.9637   6.3858   C.3       3 RES3   0.0000
   102 H22     10.3668  12.2869   5.7397   H         3 RES3   0.0000
   103 H23      9.3349  13.4090   6.1132   H         3 RES3   0.0000
   104 H24     10.0088  12.5564   7.2427   H         3 RES3   0.0000
   105 C24     10.5461  15.1067   6.3918   C.3       3 RES3   0.0000
   106 H25      9.9346  15.2224   7.1223   H         3 RES3   0.0000
   107 H26     10.0758  15.2004   5.5605   H         3 RES3   0.0000
   108 H27     11.2379  15.7703   6.4445   H         3 RES3   0.0000
   109 C25     12.2525  13.2859   6.5710   C.2       3 RES3   0.0000
   110 H28     12.8559  13.9934   6.5951   H         3 RES3   0.0000
@<TRIPOS>BOND
     1     1     5    1
     2     2    12    2
     3     3    33    2
     4     4    22    2
     5     5    12    2
     6     6     1    1
     7     7     8    1
     8     9    10    1
     9    11    37   ar
    10    13     6   ar
    11    14    13    1
    12    15    13   ar
    13    16    15    1
    14    17     7    1
    15    18    17   ar
    16    19    18    1
    17    20     6   ar
    18    21    20    1
    19    22     7   am
    20    23    22    1
    21    24    23   ar
    22    25    24    1
    23    26    24   ar
    24    27    26   ar
    25    28    27    1
    26    29    27   ar
    27    30    29    1
    28    31    23   ar
    29    32    31    1
    30    33     9   am
    31    34     9    1
    32    35    34   ar
    33    36    35    1
    34    37    35   ar
    35    38    37    1
    36    39    11   ar
    37    40    39    1
    38    41    34   ar
    39    42    41    1
    40    43    53    2
    41    44    74    2
    42    45    63    2
    43    46     1    1
    44    47     1    1
    45    48    49    1
    46    50    51    1
    47    52    78   ar
    48    53    46    2
    49    54    47   ar
    50    55    54    1
    51    56    54   ar
    52    57    56    1
    53    58    48    1
    54    59    58   ar
    55    60    59    1
    56    61    47   ar
    57    62    61    1
    58    63    48   am
    59    64    63    1
    60    65    64   ar
    61    66    65    1
    62    67    65   ar
    63    68    67   ar
    64    69    68    1
    65    70    68   ar
    66    71    70    1
    67    72    64   ar
    68    73    72    1
    69    74    50   am
    70    75    50    1
    71    76    75   ar
    72    77    76    1
    73    78    76   ar
    74    79    78    1
    75    80    52   ar
    76    81    80    1
    77    82    75   ar
    78    83    82    1
    79    84    11   un
    80    85     1   un
    81    86     1   un
    82    15    17   ar
    83    18    20   ar
    84    26    33    1
    85    29    31   ar
    86    39    41   ar
    87    52    84   un
    88    56    58   ar
    89    59    61   ar
    90    67    74    1
    91    70    72   ar
    92    80    82   ar
    93    87    93    2
    94    88    89    1
    95    89    90    1
    96    91    89    1
    97    92    89    1
    98    93    88   am
    99    94    93    1
   100    95    88    1
   101    96    95    1
   102    97    95    1
   103    98    95    1
   104    99   109    2
   105   100   101    1
   106   101   102    1
   107   103   101    1
   108   104   101    1
   109   105   100    1
   110   106   105    1
   111   107   105    1
   112   108   105    1
   113   109   100   am
   114   110   109    1
@<TRIPOS>SUBSTRUCTURE
     1 RES1        1 GROUP             0 ****  ****    0  
     2 RES2       87 GROUP             0 ****  ****    0  
     3 RES3       99 GROUP             0 ****  ****    0  
@<TRIPOS>CRYSIN
   25.3667   14.6482   17.1303   90.0000  118.4550   90.0000    15     1
