@<TRIPOS>MOLECULE
LUCDAR
   110   114     3     0     0
SMALL
NO_CHARGES
****
Generated from the CSD

@<TRIPOS>ATOM
     1 Fe1     -1.9987  20.4906   3.8192   Fe        1 RES1   0.0000
     2 Se1     -3.6368  19.3177   8.3930   Se        1 RES1   0.0000
     3 O1       3.1149  16.4056   7.1159   O.2       1 RES1   0.0000
     4 O2       4.1021   9.8058   4.8030   O.2       1 RES1   0.0000
     5 N1      -2.6772  20.3893   5.8388   N.2       1 RES1   0.0000
     6 N2      -0.5166  18.9095   4.2760   N.ar      1 RES1   0.0000
     7 N3       2.1551  15.7909   5.1330   N.am      1 RES1   0.0000
     8 H1       2.1487  15.1660   4.5418   H         1 RES1   0.0000
     9 N4       2.0791  10.5326   5.5455   N.am      1 RES1   0.0000
    10 H2       1.7055  11.1662   5.9915   H         1 RES1   0.0000
    11 N5      -0.5583   7.4752   4.4058   N.ar      1 RES1   0.0000
    12 C1      -3.0526  19.9742   6.8363   C.1       1 RES1   0.0000
    13 C2       0.2003  18.9109   5.4049   C.ar      1 RES1   0.0000
    14 H3       0.0752  19.6188   5.9961   H         1 RES1   0.0000
    15 C3       1.1059  17.9364   5.7532   C.ar      1 RES1   0.0000
    16 H4       1.5828  17.9976   6.5491   H         1 RES1   0.0000
    17 C4       1.2988  16.8659   4.9023   C.ar      1 RES1   0.0000
    18 C5       0.5731  16.8586   3.7184   C.ar      1 RES1   0.0000
    19 H5       0.6841  16.1667   3.1058   H         1 RES1   0.0000
    20 C6      -0.3099  17.8767   3.4571   C.ar      1 RES1   0.0000
    21 H6      -0.7928  17.8447   2.6627   H         1 RES1   0.0000
    22 C7       3.0086  15.6117   6.2024   C.2       1 RES1   0.0000
    23 C8       3.8119  14.3489   6.1336   C.ar      1 RES1   0.0000
    24 C9       3.2401  13.1428   5.7746   C.ar      1 RES1   0.0000
    25 H7       2.3333  13.1108   5.5684   H         1 RES1   0.0000
    26 C10      3.9898  11.9863   5.7166   C.ar      1 RES1   0.0000
    27 C11      5.3627  12.0649   5.9870   C.ar      1 RES1   0.0000
    28 H8       5.8956  11.3061   5.9090   H         1 RES1   0.0000
    29 C12      5.9225  13.2652   6.3689   C.ar      1 RES1   0.0000
    30 H9       6.8274  13.3059   6.5690   H         1 RES1   0.0000
    31 C13      5.1519  14.4071   6.4621   C.ar      1 RES1   0.0000
    32 H10      5.5339  15.2083   6.7401   H         1 RES1   0.0000
    33 C14      3.4215  10.6710   5.3026   C.2       1 RES1   0.0000
    34 C15      1.2440   9.4780   5.1467   C.ar      1 RES1   0.0000
    35 C16      1.5917   8.5065   4.2026   C.ar      1 RES1   0.0000
    36 H11      2.4331   8.5065   3.8054   H         1 RES1   0.0000
    37 C17      0.6650   7.5597   3.8803   C.ar      1 RES1   0.0000
    38 H12      0.9034   6.9232   3.2463   H         1 RES1   0.0000
    39 C18     -0.8878   8.4031   5.3041   C.ar      1 RES1   0.0000
    40 H13     -1.7364   8.3754   5.6814   H         1 RES1   0.0000
    41 C19     -0.0265   9.3950   5.6936   C.ar      1 RES1   0.0000
    42 H14     -0.2968  10.0170   6.3307   H         1 RES1   0.0000
    43 Se1A    -0.3605  19.3177  -0.7547   Se        1 RES1   0.0000
    44 O1A     -7.1122  16.4056   0.5225   O.2       1 RES1   0.0000
    45 O2A     -8.0995   9.8058   2.8354   O.2       1 RES1   0.0000
    46 N1A     -1.3201  20.3893   1.7996   N.2       1 RES1   0.0000
    47 N2A     -3.4807  18.9095   3.3624   N.ar      1 RES1   0.0000
    48 N3A     -6.1524  15.7909   2.5054   N.am      1 RES1   0.0000
    49 H1A     -6.1460  15.1660   3.0966   H         1 RES1   0.0000
    50 N4A     -6.0764  10.5326   2.0929   N.am      1 RES1   0.0000
    51 H2A     -5.7029  11.1662   1.6468   H         1 RES1   0.0000
    52 N5A     -3.4390   7.4752   3.2326   N.ar      1 RES1   0.0000
    53 C1A     -0.9447  19.9742   0.8020   C.1       1 RES1   0.0000
    54 C2A     -4.1976  18.9109   2.2335   C.ar      1 RES1   0.0000
    55 H3A     -4.0725  19.6188   1.6423   H         1 RES1   0.0000
    56 C3A     -5.1032  17.9364   1.8852   C.ar      1 RES1   0.0000
    57 H4A     -5.5802  17.9976   1.0892   H         1 RES1   0.0000
    58 C4A     -5.2961  16.8659   2.7361   C.ar      1 RES1   0.0000
    59 C5A     -4.5704  16.8586   3.9200   C.ar      1 RES1   0.0000
    60 H5A     -4.6815  16.1667   4.5326   H         1 RES1   0.0000
    61 C6A     -3.6874  17.8767   4.1812   C.ar      1 RES1   0.0000
    62 H6A     -3.2046  17.8447   4.9756   H         1 RES1   0.0000
    63 C7A     -7.0060  15.6117   1.4360   C.2       1 RES1   0.0000
    64 C8A     -7.8092  14.3489   1.5048   C.ar      1 RES1   0.0000
    65 C9A     -7.2374  13.1428   1.8638   C.ar      1 RES1   0.0000
    66 H7A     -6.3307  13.1108   2.0700   H         1 RES1   0.0000
    67 C10A    -7.9871  11.9863   1.9218   C.ar      1 RES1   0.0000
    68 C11A    -9.3600  12.0649   1.6514   C.ar      1 RES1   0.0000
    69 H8A     -9.8930  11.3061   1.7293   H         1 RES1   0.0000
    70 C12A    -9.9199  13.2652   1.2695   C.ar      1 RES1   0.0000
    71 H9A    -10.8247  13.3059   1.0694   H         1 RES1   0.0000
    72 C13A    -9.1492  14.4071   1.1763   C.ar      1 RES1   0.0000
    73 H10A    -9.5312  15.2083   0.8983   H         1 RES1   0.0000
    74 C14A    -7.4188  10.6710   2.3358   C.2       1 RES1   0.0000
    75 C15A    -5.2414   9.4780   2.4916   C.ar      1 RES1   0.0000
    76 C16A    -5.5890   8.5065   3.4357   C.ar      1 RES1   0.0000
    77 H11A    -6.4304   8.5065   3.8329   H         1 RES1   0.0000
    78 C17A    -4.6623   7.5597   3.7581   C.ar      1 RES1   0.0000
    79 H12A    -4.9007   6.9232   4.3921   H         1 RES1   0.0000
    80 C18A    -3.1095   8.4031   2.3343   C.ar      1 RES1   0.0000
    81 H13A    -2.2609   8.3754   1.9570   H         1 RES1   0.0000
    82 C19A    -3.9708   9.3950   1.9447   C.ar      1 RES1   0.0000
    83 H14A    -3.7005  10.0170   1.3077   H         1 RES1   0.0000
    84 Fe1     -1.9987   5.9247   3.8192   Fe        1 RES1   0.0000
    85 N5      -0.5583  22.0411   4.4058   N.3       1 RES1   0.0000
    86 N5A     -3.4390  22.0411   3.2326   N.3       1 RES1   0.0000
    87 O3       1.6431  13.8813   3.0492   O.2       2 RES2   0.0000
    88 N6       3.4176  12.6840   2.2762   N.am      2 RES2   0.0000
    89 C20      2.1355  12.8500   2.5848   C.2       2 RES2   0.0000
    90 H15      1.5636  12.1319   2.4382   H         2 RES2   0.0000
    91 C21      4.3768  13.7458   2.4641   C.3       2 RES2   0.0000
    92 H16      3.9140  14.5790   2.5818   H         2 RES2   0.0000
    93 H17      4.9489  13.8026   1.6942   H         2 RES2   0.0000
    94 H18      4.9080  13.5623   3.2433   H         2 RES2   0.0000
    95 C22      3.8893  11.4007   1.8042   C.3       2 RES2   0.0000
    96 H19      4.4378  10.9929   2.4779   H         2 RES2   0.0000
    97 H20      4.4041  11.5231   1.0037   H         2 RES2   0.0000
    98 H21      3.1370  10.8327   1.6163   H         2 RES2   0.0000
    99 O4      -3.7109   2.1616  14.5282   O.2       3 RES3   0.0000
   100 N7      -5.4038   0.6657  14.5221   N.am      3 RES3   0.0000
   101 C23     -6.2978   1.3095  15.2706   C.3       3 RES3   0.0000
   102 H22     -6.3891   0.8608  16.1154   H         3 RES3   0.0000
   103 H23     -7.1448   1.3182  14.8200   H         3 RES3   0.0000
   104 H24     -6.0036   2.2111  15.4173   H         3 RES3   0.0000
   105 C24     -5.9151  -0.6773  14.1341   C.3       3 RES3   0.0000
   106 H25     -6.7586  -0.5812  13.6864   H         3 RES3   0.0000
   107 H26     -6.0281  -1.2163  14.9193   H         3 RES3   0.0000
   108 H27     -5.2876  -1.0997  13.5428   H         3 RES3   0.0000
   109 C25     -4.2971   1.1434  14.3220   C.2       3 RES3   0.0000
   110 H28     -3.7522   0.5346  13.8789   H         3 RES3   0.0000
@<TRIPOS>BOND
     1     1     5    1
     2     2    12    2
     3     3    22    2
     4     4    33    2
     5     5    12    2
     6     6     1    1
     7     7     8    1
     8     9    10    1
     9    11    37   ar
    10    13     6   ar
    11    14    13    1
    12    15    13   ar
    13    16    15    1
    14    17     7    1
    15    18    17   ar
    16    19    18    1
    17    20     6   ar
    18    21    20    1
    19    22     7   am
    20    23    22    1
    21    24    23   ar
    22    25    24    1
    23    26    24   ar
    24    27    26   ar
    25    28    27    1
    26    29    27   ar
    27    30    29    1
    28    31    23   ar
    29    32    31    1
    30    33     9   am
    31    34     9    1
    32    35    34   ar
    33    36    35    1
    34    37    35   ar
    35    38    37    1
    36    39    11   ar
    37    40    39    1
    38    41    34   ar
    39    42    41    1
    40    43    53    2
    41    44    63    2
    42    45    74    2
    43    46     1    1
    44    47     1    1
    45    48    49    1
    46    50    51    1
    47    52    78   ar
    48    53    46    2
    49    54    47   ar
    50    55    54    1
    51    56    54   ar
    52    57    56    1
    53    58    48    1
    54    59    58   ar
    55    60    59    1
    56    61    47   ar
    57    62    61    1
    58    63    48   am
    59    64    63    1
    60    65    64   ar
    61    66    65    1
    62    67    65   ar
    63    68    67   ar
    64    69    68    1
    65    70    68   ar
    66    71    70    1
    67    72    64   ar
    68    73    72    1
    69    74    50   am
    70    75    50    1
    71    76    75   ar
    72    77    76    1
    73    78    76   ar
    74    79    78    1
    75    80    52   ar
    76    81    80    1
    77    82    75   ar
    78    83    82    1
    79    84    11   un
    80    85     1   un
    81    86     1   un
    82    15    17   ar
    83    18    20   ar
    84    26    33    1
    85    29    31   ar
    86    39    41   ar
    87    52    84   un
    88    56    58   ar
    89    59    61   ar
    90    67    74    1
    91    70    72   ar
    92    80    82   ar
    93    87    89    2
    94    88    89   am
    95    89    90    1
    96    91    88    1
    97    92    91    1
    98    93    91    1
    99    94    91    1
   100    95    88    1
   101    96    95    1
   102    97    95    1
   103    98    95    1
   104    99   109    2
   105   100   101    1
   106   101   102    1
   107   103   101    1
   108   104   101    1
   109   105   100    1
   110   106   105    1
   111   107   105    1
   112   108   105    1
   113   109   100   am
   114   110   109    1
@<TRIPOS>SUBSTRUCTURE
     1 RES1        1 GROUP             0 ****  ****    0  
     2 RES2       87 GROUP             0 ****  ****    0  
     3 RES3       99 GROUP             0 ****  ****    0  
@<TRIPOS>CRYSIN
   25.2400   14.5659   17.2422   90.0000  117.6240   90.0000    15     1
