@<TRIPOS>MOLECULE
LUCDAR01
   110   114     3     0     0
SMALL
NO_CHARGES
****
Generated from the CSD

@<TRIPOS>ATOM
     1 Fe1     -2.0120  -1.4783   3.7651   Fe        1 RES1   0.0000
     2 Se1     -3.6118  -2.1828   8.3268   Se        1 RES1   0.0000
     3 O1       3.9814   2.2921   4.7320   O.2       1 RES1   0.0000
     4 O2       2.9723   8.8790   7.0573   O.2       1 RES1   0.0000
     5 N1      -2.6501  -1.5386   5.6175   N.2       1 RES1   0.0000
     6 N2      -0.6936  -0.0458   4.2772   N.ar      1 RES1   0.0000
     7 N3       1.9336   3.0385   5.4233   N.am      1 RES1   0.0000
     8 H1       1.5473   3.6874   5.8329   H         1 RES1   0.0000
     9 N4       2.0543   8.3146   5.0407   N.am      1 RES1   0.0000
    10 H2       2.0721   7.7072   4.4323   H         1 RES1   0.0000
    11 N5      -0.6528  11.4146   4.2094   N.ar      1 RES1   0.0000
    12 C1      -3.0264  -1.7850   6.6793   C.1       1 RES1   0.0000
    13 C2      -1.0388   0.9312   5.1371   C.ar      1 RES1   0.0000
    14 H3      -1.9007   0.9254   5.4850   H         1 RES1   0.0000
    15 C3      -0.1942   1.9311   5.5272   C.ar      1 RES1   0.0000
    16 H4      -0.4895   2.5815   6.1221   H         1 RES1   0.0000
    17 C4       1.1160   1.9798   5.0317   C.ar      1 RES1   0.0000
    18 C5       1.4815   0.9799   4.1266   C.ar      1 RES1   0.0000
    19 H5       2.3354   0.9670   3.7561   H         1 RES1   0.0000
    20 C6       0.5629   0.0158   3.7937   C.ar      1 RES1   0.0000
    21 H6       0.8253  -0.6432   3.1913   H         1 RES1   0.0000
    22 C7       3.2932   3.1660   5.2275   C.2       1 RES1   0.0000
    23 C8       3.8657   4.4925   5.6281   C.ar      1 RES1   0.0000
    24 C9       3.1065   5.6486   5.6898   C.ar      1 RES1   0.0000
    25 H7       2.2007   5.6142   5.4895   H         1 RES1   0.0000
    26 C10      3.6871   6.8548   6.0498   C.ar      1 RES1   0.0000
    27 C11      5.0339   6.9006   6.3766   C.ar      1 RES1   0.0000
    28 H8       5.4187   7.7000   6.6582   H         1 RES1   0.0000
    29 C12      5.8000   5.7603   6.2832   C.ar      1 RES1   0.0000
    30 H9       6.7066   5.7976   6.4820   H         1 RES1   0.0000
    31 C13      5.2320   4.5570   5.8977   C.ar      1 RES1   0.0000
    32 H10      5.7597   3.7963   5.8178   H         1 RES1   0.0000
    33 C14      2.8821   8.1083   6.1206   C.2       1 RES1   0.0000
    34 C15      1.1942   9.3761   4.8058   C.ar      1 RES1   0.0000
    35 C16      1.0076  10.4634   5.6582   C.ar      1 RES1   0.0000
    36 H11      1.4995  10.5350   6.4444   H         1 RES1   0.0000
    37 C17      0.0908  11.4261   5.3254   C.ar      1 RES1   0.0000
    38 H12     -0.0241  12.1366   5.9142   H         1 RES1   0.0000
    39 C18     -0.4473  10.3703   3.3766   C.ar      1 RES1   0.0000
    40 H13     -0.9345  10.3374   2.5859   H         1 RES1   0.0000
    41 C19      0.4375   9.3575   3.6326   C.ar      1 RES1   0.0000
    42 H14      0.5344   8.6598   3.0256   H         1 RES1   0.0000
    43 Se1A    -0.4122  -2.1828  -0.7965   Se        1 RES1   0.0000
    44 O1A     -8.0054   2.2921   2.7982   O.2       1 RES1   0.0000
    45 O2A     -6.9963   8.8790   0.4729   O.2       1 RES1   0.0000
    46 N1A     -1.3739  -1.5386   1.9127   N.2       1 RES1   0.0000
    47 N2A     -3.3304  -0.0458   3.2531   N.ar      1 RES1   0.0000
    48 N3A     -5.9575   3.0385   2.1070   N.am      1 RES1   0.0000
    49 H1A     -5.5713   3.6874   1.6973   H         1 RES1   0.0000
    50 N4A     -6.0783   8.3146   2.4895   N.am      1 RES1   0.0000
    51 H2A     -6.0961   7.7072   3.0979   H         1 RES1   0.0000
    52 N5A     -3.3711  11.4146   3.3208   N.ar      1 RES1   0.0000
    53 C1A     -0.9975  -1.7850   0.8509   C.1       1 RES1   0.0000
    54 C2A     -2.9852   0.9312   2.3931   C.ar      1 RES1   0.0000
    55 H3A     -2.1233   0.9254   2.0452   H         1 RES1   0.0000
    56 C3A     -3.8297   1.9311   2.0030   C.ar      1 RES1   0.0000
    57 H4A     -3.5345   2.5815   1.4082   H         1 RES1   0.0000
    58 C4A     -5.1399   1.9798   2.4985   C.ar      1 RES1   0.0000
    59 C5A     -5.5055   0.9799   3.4037   C.ar      1 RES1   0.0000
    60 H5A     -6.3594   0.9670   3.7741   H         1 RES1   0.0000
    61 C6A     -4.5869   0.0158   3.7365   C.ar      1 RES1   0.0000
    62 H6A     -4.8493  -0.6432   4.3389   H         1 RES1   0.0000
    63 C7A     -7.3172   3.1660   2.3027   C.2       1 RES1   0.0000
    64 C8A     -7.8897   4.4925   1.9021   C.ar      1 RES1   0.0000
    65 C9A     -7.1304   5.6486   1.8404   C.ar      1 RES1   0.0000
    66 H7A     -6.2247   5.6142   2.0407   H         1 RES1   0.0000
    67 C10A    -7.7111   6.8548   1.4804   C.ar      1 RES1   0.0000
    68 C11A    -9.0579   6.9006   1.1536   C.ar      1 RES1   0.0000
    69 H8A     -9.4427   7.7000   0.8720   H         1 RES1   0.0000
    70 C12A    -9.8240   5.7603   1.2470   C.ar      1 RES1   0.0000
    71 H9A    -10.7305   5.7976   1.0482   H         1 RES1   0.0000
    72 C13A    -9.2560   4.5570   1.6326   C.ar      1 RES1   0.0000
    73 H10A    -9.7837   3.7963   1.7124   H         1 RES1   0.0000
    74 C14A    -6.9060   8.1083   1.4097   C.2       1 RES1   0.0000
    75 C15A    -5.2182   9.3761   2.7244   C.ar      1 RES1   0.0000
    76 C16A    -5.0316  10.4634   1.8720   C.ar      1 RES1   0.0000
    77 H11A    -5.5235  10.5350   1.0859   H         1 RES1   0.0000
    78 C17A    -4.1147  11.4261   2.2048   C.ar      1 RES1   0.0000
    79 H12A    -3.9999  12.1366   1.6160   H         1 RES1   0.0000
    80 C18A    -3.5767  10.3703   4.1537   C.ar      1 RES1   0.0000
    81 H13A    -3.0895  10.3374   4.9443   H         1 RES1   0.0000
    82 C19A    -4.4614   9.3575   3.8976   C.ar      1 RES1   0.0000
    83 H14A    -4.5583   8.6598   4.5046   H         1 RES1   0.0000
    84 Fe1     -2.0120  12.8473   3.7651   Fe        1 RES1   0.0000
    85 N5      -0.6528  -2.9110   4.2094   N.3       1 RES1   0.0000
    86 N5A     -3.3711  -2.9110   3.3208   N.3       1 RES1   0.0000
    87 O3      -2.4425   7.8877  10.4399   O.2       2 RES2   0.0000
    88 N6      -0.6683   9.1498   9.7712   N.am      2 RES2   0.0000
    89 C20     -0.1858  10.4362   9.3254   C.3       2 RES2   0.0000
    90 H15     -0.9318  11.0293   9.1929   H         2 RES2   0.0000
    91 H16      0.2895  10.3316   8.4971   H         2 RES2   0.0000
    92 H17      0.4025  10.8058   9.9881   H         2 RES2   0.0000
    93 C21      0.3379   8.1198   9.9866   C.3       2 RES2   0.0000
    94 H18      0.8435   8.3260  10.7757   H         2 RES2   0.0000
    95 H19      0.9287   8.0868   9.2290   H         2 RES2   0.0000
    96 H20     -0.0920   7.2688  10.0950   H         2 RES2   0.0000
    97 C22     -1.9489   8.9435  10.0287   C.2       2 RES2   0.0000
    98 H21     -2.5292   9.6569   9.8872   H         2 RES2   0.0000
    99 O4       0.1675   4.8951   6.8043   O.2       3 RES3   0.0000
   100 N7      -1.4874   6.4551   6.7290   N.am      3 RES3   0.0000
   101 C23     -2.5354   5.6314   7.1477   C.3       3 RES3   0.0000
   102 H22     -3.3488   5.9107   6.7230   H         3 RES3   0.0000
   103 H23     -2.6319   5.6959   8.0995   H         3 RES3   0.0000
   104 H24     -2.3430   4.7217   6.9052   H         3 RES3   0.0000
   105 C24     -1.9539   7.8089   6.5392   C.3       3 RES3   0.0000
   106 H25     -1.2573   8.3346   6.1386   H         3 RES3   0.0000
   107 H26     -2.1917   8.1871   7.3887   H         3 RES3   0.0000
   108 H27     -2.7221   7.8046   5.9639   H         3 RES3   0.0000
   109 C25     -0.3679   5.9480   6.7832   C.2       3 RES3   0.0000
   110 H28      0.2738   6.6199   6.8194   H         3 RES3   0.0000
@<TRIPOS>BOND
     1     1     5    1
     2     2    12    2
     3     3    22    2
     4     4    33    2
     5     5    12    2
     6     6     1    1
     7     7     8    1
     8     9    10    1
     9    11    37   ar
    10    13     6   ar
    11    14    13    1
    12    15    13   ar
    13    16    15    1
    14    17     7    1
    15    18    17   ar
    16    19    18    1
    17    20     6   ar
    18    21    20    1
    19    22     7   am
    20    23    22    1
    21    24    23   ar
    22    25    24    1
    23    26    24   ar
    24    27    26   ar
    25    28    27    1
    26    29    27   ar
    27    30    29    1
    28    31    23   ar
    29    32    31    1
    30    33     9   am
    31    34     9    1
    32    35    34   ar
    33    36    35    1
    34    37    35   ar
    35    38    37    1
    36    39    11   ar
    37    40    39    1
    38    41    34   ar
    39    42    41    1
    40    43    53    2
    41    44    63    2
    42    45    74    2
    43    46     1    1
    44    47     1    1
    45    48    49    1
    46    50    51    1
    47    52    78   ar
    48    53    46    2
    49    54    47   ar
    50    55    54    1
    51    56    54   ar
    52    57    56    1
    53    58    48    1
    54    59    58   ar
    55    60    59    1
    56    61    47   ar
    57    62    61    1
    58    63    48   am
    59    64    63    1
    60    65    64   ar
    61    66    65    1
    62    67    65   ar
    63    68    67   ar
    64    69    68    1
    65    70    68   ar
    66    71    70    1
    67    72    64   ar
    68    73    72    1
    69    74    50   am
    70    75    50    1
    71    76    75   ar
    72    77    76    1
    73    78    76   ar
    74    79    78    1
    75    80    52   ar
    76    81    80    1
    77    82    75   ar
    78    83    82    1
    79    84    11   un
    80    85     1   un
    81    86     1   un
    82    15    17   ar
    83    18    20   ar
    84    26    33    1
    85    29    31   ar
    86    39    41   ar
    87    52    84   un
    88    56    58   ar
    89    59    61   ar
    90    67    74    1
    91    70    72   ar
    92    80    82   ar
    93    87    97    2
    94    88    89    1
    95    89    90    1
    96    91    89    1
    97    92    89    1
    98    93    88    1
    99    94    93    1
   100    95    93    1
   101    96    93    1
   102    97    88   am
   103    98    97    1
   104    99   109    2
   105   100   101    1
   106   101   102    1
   107   103   101    1
   108   104   101    1
   109   105   100    1
   110   106   105    1
   111   107   105    1
   112   108   105    1
   113   109   100   am
   114   110   109    1
@<TRIPOS>SUBSTRUCTURE
     1 RES1        1 GROUP             0 ****  ****    0  
     2 RES2       87 GROUP             0 ****  ****    0  
     3 RES3       99 GROUP             0 ****  ****    0  
@<TRIPOS>CRYSIN
   25.1307   14.3256   17.0759   90.0000  118.1190   90.0000    15     1
