@<TRIPOS>MOLECULE
LUFDAS
   143   150     1     0     0
SMALL
NO_CHARGES
****
Generated from the CSD

@<TRIPOS>ATOM
     1 Fe1      6.1630   2.4371  17.0476   Fe        1 RES1   0.0000
     2 O1       8.0801   0.2455  17.1394   O.2       1 RES1   0.0000
     3 O2       7.2624   3.8847  16.1600   O.2       1 RES1   0.0000
     4 C1       7.3737   1.1440  17.1133   C.1       1 RES1   0.0000
     5 C2       6.5375   3.2563  15.3787   C.2       1 RES1   0.0000
     6 C3       6.4572   3.5204  13.9306   C.ar      1 RES1   0.0000
     7 C4       5.3260   3.0858  13.2139   C.ar      1 RES1   0.0000
     8 C5       5.2855   3.2863  11.8306   C.ar      1 RES1   0.0000
     9 H1       4.5273   2.9975  11.3378   H         1 RES1   0.0000
    10 C6       6.3322   3.8987  11.1721   C.ar      1 RES1   0.0000
    11 H2       6.3072   3.9954  10.2263   H         1 RES1   0.0000
    12 C7       7.4202   4.3735  11.8869   C.ar      1 RES1   0.0000
    13 H3       8.1252   4.8132  11.4241   H         1 RES1   0.0000
    14 C8       7.5009   4.2201  13.2664   C.ar      1 RES1   0.0000
    15 C9       4.1245   2.4819  13.8670   C.ar      1 RES1   0.0000
    16 C10      3.8028   1.1385  13.6015   C.ar      1 RES1   0.0000
    17 C11      2.6384   0.6081  14.1470   C.ar      1 RES1   0.0000
    18 H4       2.4109  -0.2969  13.9722   H         1 RES1   0.0000
    19 C12      1.8082   1.3737  14.9366   C.ar      1 RES1   0.0000
    20 H5       1.0181   0.9941  15.3042   H         1 RES1   0.0000
    21 C13      2.1266   2.7004  15.1967   C.ar      1 RES1   0.0000
    22 H6       1.5481   3.2197  15.7429   H         1 RES1   0.0000
    23 C14      3.2788   3.2848  14.6723   C.ar      1 RES1   0.0000
    24 C15      4.7382   0.2323  12.8000   C.3       1 RES1   0.0000
    25 H7       5.3950   0.8159  12.3243   H         1 RES1   0.0000
    26 C16      5.5232  -0.6798  13.7410   C.3       1 RES1   0.0000
    27 H8       6.0508  -0.1341  14.3609   H         1 RES1   0.0000
    28 H9       6.1223  -1.2507  13.2176   H         1 RES1   0.0000
    29 H10      4.8983  -1.2392  14.2495   H         1 RES1   0.0000
    30 C17      3.9986  -0.5941  11.7451   C.3       1 RES1   0.0000
    31 H11      3.5055   0.0057  11.1468   H         1 RES1   0.0000
    32 H12      3.3711  -1.2028  12.1879   H         1 RES1   0.0000
    33 H13      4.6456  -1.1147  11.2241   H         1 RES1   0.0000
    34 C18      3.5983   4.7508  14.9587   C.3       1 RES1   0.0000
    35 H14      4.5680   4.7979  15.1996   H         1 RES1   0.0000
    36 C19      3.3983   5.6424  13.7285   C.3       1 RES1   0.0000
    37 H15      3.6916   6.5543  13.9358   H         1 RES1   0.0000
    38 H16      2.4492   5.6522  13.4835   H         1 RES1   0.0000
    39 H17      3.9258   5.2902  12.9812   H         1 RES1   0.0000
    40 C20      2.8192   5.3499  16.1284   C.3       1 RES1   0.0000
    41 H18      3.1431   6.2574  16.3066   H         1 RES1   0.0000
    42 H19      2.9484   4.7941  16.9248   H         1 RES1   0.0000
    43 H20      1.8661   5.3821  15.9043   H         1 RES1   0.0000
    44 C21      8.6477   4.8998  13.9456   C.ar      1 RES1   0.0000
    45 C22      8.5144   6.2754  14.2386   C.ar      1 RES1   0.0000
    46 C23      9.6233   6.9561  14.7489   C.ar      1 RES1   0.0000
    47 H21      9.5538   7.8835  14.9405   H         1 RES1   0.0000
    48 C24     10.8129   6.3070  14.9787   C.ar      1 RES1   0.0000
    49 H22     11.5531   6.7860  15.3337   H         1 RES1   0.0000
    50 C25     10.9358   4.9559  14.6952   C.ar      1 RES1   0.0000
    51 H23     11.7601   4.5145  14.8609   H         1 RES1   0.0000
    52 C26      9.8580   4.2360  14.1679   C.ar      1 RES1   0.0000
    53 C27      7.1999   7.0042  14.0317   C.3       1 RES1   0.0000
    54 H24      6.5327   6.3340  13.7063   H         1 RES1   0.0000
    55 C28      6.6794   7.5654  15.3555   C.3       1 RES1   0.0000
    56 H25      6.5709   6.8339  15.9997   H         1 RES1   0.0000
    57 H26      5.8154   8.0023  15.2087   H         1 RES1   0.0000
    58 H27      7.3204   8.2187  15.7088   H         1 RES1   0.0000
    59 C29      7.3154   8.0896  12.9671   C.3       1 RES1   0.0000
    60 H28      7.5422   7.6805  12.1061   H         1 RES1   0.0000
    61 H29      8.0180   8.7244  13.2221   H         1 RES1   0.0000
    62 H30      6.4612   8.5616  12.8880   H         1 RES1   0.0000
    63 C30     10.0276   2.7537  13.8722   C.3       1 RES1   0.0000
    64 H31      9.1532   2.4076  13.5312   H         1 RES1   0.0000
    65 C31     11.0837   2.5066  12.7914   C.3       1 RES1   0.0000
    66 H32     10.8369   2.9918  11.9765   H         1 RES1   0.0000
    67 H33     11.1352   1.5476  12.5970   H         1 RES1   0.0000
    68 H34     11.9549   2.8232  13.1084   H         1 RES1   0.0000
    69 C32     10.3593   1.9935  15.1632   C.3       1 RES1   0.0000
    70 H35      9.6746   2.1816  15.8383   H         1 RES1   0.0000
    71 H36     11.2351   2.2812  15.4951   H         1 RES1   0.0000
    72 H37     10.3796   1.0305  14.9791   H         1 RES1   0.0000
    73 O1B      4.2458   0.2455  16.9557   O.2       1 RES1   0.0000
    74 O2B      5.0635   3.8847  17.9352   O.2       1 RES1   0.0000
    75 C1B      4.9522   1.1440  16.9819   C.1       1 RES1   0.0000
    76 C2B      5.7884   3.2563  18.7164   C.2       1 RES1   0.0000
    77 C3B      5.8687   3.5204  20.1646   C.ar      1 RES1   0.0000
    78 C4B      6.9999   3.0858  20.8812   C.ar      1 RES1   0.0000
    79 C5B      7.0404   3.2863  22.2646   C.ar      1 RES1   0.0000
    80 H1B      7.7986   2.9975  22.7574   H         1 RES1   0.0000
    81 C6B      5.9937   3.8987  22.9231   C.ar      1 RES1   0.0000
    82 H2B      6.0187   3.9954  23.8689   H         1 RES1   0.0000
    83 C7B      4.9057   4.3735  22.2082   C.ar      1 RES1   0.0000
    84 H3B      4.2007   4.8132  22.6710   H         1 RES1   0.0000
    85 C8B      4.8250   4.2201  20.8287   C.ar      1 RES1   0.0000
    86 C9B      8.2014   2.4819  20.2282   C.ar      1 RES1   0.0000
    87 C10B     8.5231   1.1385  20.4937   C.ar      1 RES1   0.0000
    88 C11B     9.6875   0.6081  19.9482   C.ar      1 RES1   0.0000
    89 H4B      9.9150  -0.2969  20.1230   H         1 RES1   0.0000
    90 C12B    10.5177   1.3737  19.1585   C.ar      1 RES1   0.0000
    91 H5B     11.3078   0.9941  18.7910   H         1 RES1   0.0000
    92 C13B    10.1993   2.7004  18.8985   C.ar      1 RES1   0.0000
    93 H6B     10.7778   3.2197  18.3523   H         1 RES1   0.0000
    94 C14B     9.0471   3.2848  19.4229   C.ar      1 RES1   0.0000
    95 C15B     7.5877   0.2323  21.2951   C.3       1 RES1   0.0000
    96 H7B      6.9309   0.8159  21.7709   H         1 RES1   0.0000
    97 C16B     6.8027  -0.6798  20.3541   C.3       1 RES1   0.0000
    98 H8B      6.2751  -0.1341  19.7343   H         1 RES1   0.0000
    99 H9B      6.2036  -1.2507  20.8776   H         1 RES1   0.0000
   100 H10B     7.4276  -1.2392  19.8457   H         1 RES1   0.0000
   101 C17B     8.3273  -0.5941  22.3501   C.3       1 RES1   0.0000
   102 H11B     8.8204   0.0057  22.9483   H         1 RES1   0.0000
   103 H12B     8.9548  -1.2028  21.9073   H         1 RES1   0.0000
   104 H13B     7.6803  -1.1147  22.8710   H         1 RES1   0.0000
   105 C18B     8.7276   4.7508  19.1365   C.3       1 RES1   0.0000
   106 H14B     7.7579   4.7979  18.8955   H         1 RES1   0.0000
   107 C19B     8.9276   5.6424  20.3666   C.3       1 RES1   0.0000
   108 H15B     8.6343   6.5543  20.1593   H         1 RES1   0.0000
   109 H16B     9.8767   5.6522  20.6117   H         1 RES1   0.0000
   110 H17B     8.4001   5.2902  21.1140   H         1 RES1   0.0000
   111 C20B     9.5067   5.3499  17.9668   C.3       1 RES1   0.0000
   112 H18B     9.1828   6.2574  17.7886   H         1 RES1   0.0000
   113 H19B     9.3775   4.7941  17.1703   H         1 RES1   0.0000
   114 H20B    10.4598   5.3821  18.1909   H         1 RES1   0.0000
   115 C21B     3.6782   4.8998  20.1496   C.ar      1 RES1   0.0000
   116 C22B     3.8115   6.2754  19.8566   C.ar      1 RES1   0.0000
   117 C23B     2.7026   6.9561  19.3463   C.ar      1 RES1   0.0000
   118 H21B     2.7721   7.8835  19.1547   H         1 RES1   0.0000
   119 C24B     1.5130   6.3070  19.1165   C.ar      1 RES1   0.0000
   120 H22B     0.7728   6.7860  18.7614   H         1 RES1   0.0000
   121 C25B     1.3901   4.9559  19.3999   C.ar      1 RES1   0.0000
   122 H23B     0.5658   4.5145  19.2342   H         1 RES1   0.0000
   123 C26B     2.4679   4.2360  19.9273   C.ar      1 RES1   0.0000
   124 C27B     5.1260   7.0042  20.0634   C.3       1 RES1   0.0000
   125 H24B     5.7932   6.3340  20.3889   H         1 RES1   0.0000
   126 C28B     5.6465   7.5654  18.7396   C.3       1 RES1   0.0000
   127 H25B     5.7550   6.8339  18.0954   H         1 RES1   0.0000
   128 H26B     6.5105   8.0023  18.8864   H         1 RES1   0.0000
   129 H27B     5.0055   8.2187  18.3864   H         1 RES1   0.0000
   130 C29B     5.0105   8.0896  21.1281   C.3       1 RES1   0.0000
   131 H28B     4.7837   7.6805  21.9891   H         1 RES1   0.0000
   132 H29B     4.3079   8.7244  20.8731   H         1 RES1   0.0000
   133 H30B     5.8647   8.5616  21.2072   H         1 RES1   0.0000
   134 C30B     2.2983   2.7537  20.2230   C.3       1 RES1   0.0000
   135 H31B     3.1727   2.4076  20.5639   H         1 RES1   0.0000
   136 C31B     1.2422   2.5066  21.3038   C.3       1 RES1   0.0000
   137 H32B     1.4890   2.9918  22.1187   H         1 RES1   0.0000
   138 H33B     1.1907   1.5476  21.4981   H         1 RES1   0.0000
   139 H34B     0.3710   2.8232  20.9867   H         1 RES1   0.0000
   140 C32B     1.9666   1.9935  18.9319   C.3       1 RES1   0.0000
   141 H35B     2.6513   2.1816  18.2568   H         1 RES1   0.0000
   142 H36B     1.0908   2.2812  18.6000   H         1 RES1   0.0000
   143 H37B     1.9463   1.0305  19.1160   H         1 RES1   0.0000
@<TRIPOS>BOND
     1     1     3    1
     2     2     4    3
     3     3     5    2
     4     4     1    1
     5     5     1    1
     6     6     5    1
     7     7     6   ar
     8     8     7   ar
     9     9     8    1
    10    10     8   ar
    11    11    10    1
    12    12    10   ar
    13    13    12    1
    14    14     6   ar
    15    15     7    1
    16    16    15   ar
    17    17    16   ar
    18    18    17    1
    19    19    17   ar
    20    20    19    1
    21    21    19   ar
    22    22    21    1
    23    23    15   ar
    24    24    16    1
    25    25    24    1
    26    26    24    1
    27    27    26    1
    28    28    26    1
    29    29    26    1
    30    30    24    1
    31    31    30    1
    32    32    30    1
    33    33    30    1
    34    34    23    1
    35    35    34    1
    36    36    34    1
    37    37    36    1
    38    38    36    1
    39    39    36    1
    40    40    34    1
    41    41    40    1
    42    42    40    1
    43    43    40    1
    44    44    14    1
    45    45    44   ar
    46    46    45   ar
    47    47    46    1
    48    48    46   ar
    49    49    48    1
    50    50    48   ar
    51    51    50    1
    52    52    44   ar
    53    53    45    1
    54    54    53    1
    55    55    53    1
    56    56    55    1
    57    57    55    1
    58    58    55    1
    59    59    53    1
    60    60    59    1
    61    61    59    1
    62    62    59    1
    63    63    52    1
    64    64    63    1
    65    65    63    1
    66    66    65    1
    67    67    65    1
    68    68    65    1
    69    69    63    1
    70    70    69    1
    71    71    69    1
    72    72    69    1
    73    73    75    3
    74    74     1    1
    75    75     1    1
    76    76     1    1
    77    77    76    1
    78    78    77   ar
    79    79    78   ar
    80    80    79    1
    81    81    79   ar
    82    82    81    1
    83    83    81   ar
    84    84    83    1
    85    85    77   ar
    86    86    78    1
    87    87    86   ar
    88    88    87   ar
    89    89    88    1
    90    90    88   ar
    91    91    90    1
    92    92    90   ar
    93    93    92    1
    94    94    86   ar
    95    95    87    1
    96    96    95    1
    97    97    95    1
    98    98    97    1
    99    99    97    1
   100   100    97    1
   101   101    95    1
   102   102   101    1
   103   103   101    1
   104   104   101    1
   105   105    94    1
   106   106   105    1
   107   107   105    1
   108   108   107    1
   109   109   107    1
   110   110   107    1
   111   111   105    1
   112   112   111    1
   113   113   111    1
   114   114   111    1
   115   115    85    1
   116   116   115   ar
   117   117   116   ar
   118   118   117    1
   119   119   117   ar
   120   120   119    1
   121   121   119   ar
   122   122   121    1
   123   123   115   ar
   124   124   116    1
   125   125   124    1
   126   126   124    1
   127   127   126    1
   128   128   126    1
   129   129   126    1
   130   130   124    1
   131   131   130    1
   132   132   130    1
   133   133   130    1
   134   134   123    1
   135   135   134    1
   136   136   134    1
   137   137   136    1
   138   138   136    1
   139   139   136    1
   140   140   134    1
   141   141   140    1
   142   142   140    1
   143   143   140    1
   144    12    14   ar
   145    21    23   ar
   146    50    52   ar
   147    74    76    2
   148    83    85   ar
   149    92    94   ar
   150   121   123   ar
@<TRIPOS>SUBSTRUCTURE
     1 RES1        1 GROUP             0 ****  ****    0  
@<TRIPOS>CRYSIN
   12.3259   19.1534   22.7301   90.0000   90.0000   90.0000    60     1
