@<TRIPOS>MOLECULE
LUFYUH
   172   186     2     0     0
SMALL
NO_CHARGES
****
Generated from the CSD

@<TRIPOS>ATOM
     1 Ba1      7.6668   4.6927   4.3449   Ba        1 RES1   0.0000
     2 Fe1      0.0000   0.0000   8.6898   Fe        1 RES1   0.0000
     3 S1       4.2262   1.9935   2.0115   S.2       1 RES1   0.0000
     4 O1       5.4253   5.5269   2.9424   O.3       1 RES1   0.0000
     5 N1       6.8909   2.4932   2.6400   N.2       1 RES1   0.0000
     6 C1       3.9561   4.8332   4.6751   C.3       1 RES1   0.0000
     7 H1       3.1403   5.0818   5.1809   H         1 RES1   0.0000
     8 H2       3.7506   4.0195   4.1502   H         1 RES1   0.0000
     9 H3       7.8815   8.1228   3.7366   H         1 RES1   0.0000
    10 S2       0.0000  -3.2809   5.0974   S.2       1 RES1   0.0000
    11 O2       7.9870   5.7495   1.7884   O.3       1 RES1   0.0000
    12 N2       5.0417   4.5354   5.6240   N.3       1 RES1   0.0000
    13 C2       4.3118   5.9678   3.7192   C.3       1 RES1   0.0000
    14 H4       3.5451   6.1759   3.1301   H         1 RES1   0.0000
    15 H5       4.5510   6.7829   4.2285   H         1 RES1   0.0000
    16 O3       7.6668   7.4261   4.3449   O.3       1 RES1   0.0000
    17 N3       1.5861   1.2488   7.7443   N.ar      1 RES1   0.0000
    18 C3       5.6704   6.3320   1.7988   C.3       1 RES1   0.0000
    19 H6       5.9402   7.2440   2.0716   H         1 RES1   0.0000
    20 H7       4.8516   6.3999   1.2444   H         1 RES1   0.0000
    21 N4       0.0000  -1.2936   7.0335   N.2       1 RES1   0.0000
    22 C4       6.7775   5.6744   1.0115   C.3       1 RES1   0.0000
    23 H8       6.5505   4.7291   0.8307   H         1 RES1   0.0000
    24 H9       6.9001   6.1383   0.1460   H         1 RES1   0.0000
    25 C5       9.1511   5.3781   1.0323   C.3       1 RES1   0.0000
    26 H10      9.2584   5.9923   0.2624   H         1 RES1   0.0000
    27 H11      9.0407   4.4588   0.6813   H         1 RES1   0.0000
    28 C6       4.9804   5.4431   6.7989   C.3       1 RES1   0.0000
    29 H12      4.8669   6.3725   6.4791   H         1 RES1   0.0000
    30 H13      4.1861   5.2104   7.3411   H         1 RES1   0.0000
    31 C7       5.0632   3.1017   5.9699   C.3       1 RES1   0.0000
    32 H14      5.8114   2.9470   6.6008   H         1 RES1   0.0000
    33 H15      5.2594   2.5871   5.1478   H         1 RES1   0.0000
    34 C8       3.7966   2.5366   6.5903   C.ar      1 RES1   0.0000
    35 C9       3.5482   2.5973   7.9546   C.ar      1 RES1   0.0000
    36 H16      4.1370   3.0771   8.5282   H         1 RES1   0.0000
    37 C10      2.4442   1.9526   8.4726   C.ar      1 RES1   0.0000
    38 H17      2.2847   2.0162   9.4076   H         1 RES1   0.0000
    39 C11      1.7940   1.2285   6.4079   C.ar      1 RES1   0.0000
    40 H18      1.1807   0.7574   5.8569   H         1 RES1   0.0000
    41 C12      2.8674   1.8645   5.8117   C.ar      1 RES1   0.0000
    42 H19      2.9655   1.8399   4.8680   H         1 RES1   0.0000
    43 C13      5.7808   2.2880   2.3845   C.1       1 RES1   0.0000
    44 C14      0.0000  -2.1145   6.2236   C.1       1 RES1   0.0000
    45 Ba1H    -7.6668  -4.6927  13.0347   Ba        1 RES1   0.0000
    46 Fe1E    15.3336   0.0000   0.0000   Fe        1 RES1   0.0000
    47 Fe1E   -15.3336   0.0000  17.3796   Fe        1 RES1   0.0000
    48 S1G     11.1074   1.9935   6.6783   S.2       1 RES1   0.0000
    49 S1H     -4.2262  -1.9935  15.3681   S.2       1 RES1   0.0000
    50 S1O    -11.1074  -1.9935  10.7013   S.2       1 RES1   0.0000
    51 O1G      9.9083   5.5269   5.7474   O.3       1 RES1   0.0000
    52 O1H     -5.4253  -5.5269  14.4372   O.3       1 RES1   0.0000
    53 O1O     -9.9083  -5.5269  11.6322   O.3       1 RES1   0.0000
    54 N1G      8.4427   2.4932   6.0498   N.2       1 RES1   0.0000
    55 N1H     -6.8909  -2.4932  14.7396   N.2       1 RES1   0.0000
    56 N1O     -8.4427  -2.4932  11.3298   N.2       1 RES1   0.0000
    57 C1G     11.3775   4.8332   4.0147   C.3       1 RES1   0.0000
    58 C1H     -3.9561  -4.8332  12.7045   C.3       1 RES1   0.0000
    59 C1O    -11.3775  -4.8332  13.3649   C.3       1 RES1   0.0000
    60 H1G     12.1933   5.0818   3.5089   H         1 RES1   0.0000
    61 H1H     -3.1403  -5.0818  12.1987   H         1 RES1   0.0000
    62 H1O    -12.1933  -5.0818  13.8707   H         1 RES1   0.0000
    63 H2G     11.5830   4.0195   4.5396   H         1 RES1   0.0000
    64 H2H     -3.7506  -4.0195  13.2294   H         1 RES1   0.0000
    65 H2O    -11.5830  -4.0195  12.8400   H         1 RES1   0.0000
    66 H3G      7.4521   8.1228   4.9532   H         1 RES1   0.0000
    67 H3H     -7.8815  -8.1228  13.6430   H         1 RES1   0.0000
    68 H3O     -7.4521  -8.1228  12.4264   H         1 RES1   0.0000
    69 S2B      0.0000   3.2809  12.2822   S.2       1 RES1   0.0000
    70 O2G      7.3466   5.7495   6.9014   O.3       1 RES1   0.0000
    71 O2H     -7.9870  -5.7495  15.5912   O.3       1 RES1   0.0000
    72 O2O     -7.3466  -5.7495  10.4782   O.3       1 RES1   0.0000
    73 N2G     10.2919   4.5354   3.0658   N.3       1 RES1   0.0000
    74 N2H     -5.0417  -4.5354  11.7556   N.3       1 RES1   0.0000
    75 N2O    -10.2919  -4.5354  14.3138   N.3       1 RES1   0.0000
    76 C2G     11.0218   5.9678   4.9706   C.3       1 RES1   0.0000
    77 C2H     -4.3118  -5.9678  13.6604   C.3       1 RES1   0.0000
    78 C2O    -11.0218  -5.9678  12.4090   C.3       1 RES1   0.0000
    79 H4G     11.7885   6.1759   5.5597   H         1 RES1   0.0000
    80 H4H     -3.5451  -6.1759  14.2495   H         1 RES1   0.0000
    81 H4O    -11.7885  -6.1759  11.8199   H         1 RES1   0.0000
    82 H5G     10.7826   6.7829   4.4613   H         1 RES1   0.0000
    83 H5H     -4.5510  -6.7829  13.1511   H         1 RES1   0.0000
    84 H5O    -10.7826  -6.7829  12.9183   H         1 RES1   0.0000
    85 O3H     -7.6668  -7.4261  13.0347   O.3       1 RES1   0.0000
    86 N3G     13.7475   1.2488   0.9455   N.ar      1 RES1   0.0000
    87 N3H     -1.5861  -1.2488   9.6353   N.ar      1 RES1   0.0000
    88 N3O    -13.7475  -1.2488  16.4341   N.ar      1 RES1   0.0000
    89 N3B      1.5861  -1.2488   9.6353   N.3       1 RES1   0.0000
    90 N3J     -1.5861   1.2488   7.7443   N.3       1 RES1   0.0000
    91 C3G      9.6632   6.3320   6.8910   C.3       1 RES1   0.0000
    92 C3H     -5.6704  -6.3320  15.5808   C.3       1 RES1   0.0000
    93 C3O     -9.6632  -6.3320  10.4886   C.3       1 RES1   0.0000
    94 H6G      9.3934   7.2440   6.6182   H         1 RES1   0.0000
    95 H6H     -5.9402  -7.2440  15.3080   H         1 RES1   0.0000
    96 H6O     -9.3934  -7.2440  10.7614   H         1 RES1   0.0000
    97 H7G     10.4820   6.3999   7.4454   H         1 RES1   0.0000
    98 H7H     -4.8516  -6.3999  16.1352   H         1 RES1   0.0000
    99 H7O    -10.4820  -6.3999   9.9342   H         1 RES1   0.0000
   100 N4B      0.0000   1.2936  10.3461   N.2       1 RES1   0.0000
   101 C4G      8.5561   5.6744   7.6783   C.3       1 RES1   0.0000
   102 C4H     -6.7775  -5.6744  16.3681   C.3       1 RES1   0.0000
   103 C4O     -8.5561  -5.6744   9.7013   C.3       1 RES1   0.0000
   104 H8G      8.7831   4.7291   7.8591   H         1 RES1   0.0000
   105 H8H     -6.5505  -4.7291  16.5489   H         1 RES1   0.0000
   106 H8O     -8.7831  -4.7291   9.5205   H         1 RES1   0.0000
   107 H9G      8.4335   6.1383   8.5438   H         1 RES1   0.0000
   108 H9H     -6.9001  -6.1383  17.2336   H         1 RES1   0.0000
   109 H9O     -8.4335  -6.1383   8.8358   H         1 RES1   0.0000
   110 C5G      6.1825   5.3781   7.6575   C.3       1 RES1   0.0000
   111 C5H     -9.1511  -5.3781  16.3473   C.3       1 RES1   0.0000
   112 C5O     -6.1825  -5.3781   9.7221   C.3       1 RES1   0.0000
   113 H10G     6.0752   5.9923   8.4274   H         1 RES1   0.0000
   114 H10H    -9.2584  -5.9923  17.1172   H         1 RES1   0.0000
   115 H10O    -6.0752  -5.9923   8.9522   H         1 RES1   0.0000
   116 H11G     6.2929   4.4588   8.0085   H         1 RES1   0.0000
   117 H11H    -9.0407  -4.4588  16.6983   H         1 RES1   0.0000
   118 H11O    -6.2929  -4.4588   9.3711   H         1 RES1   0.0000
   119 C6G     10.3532   5.4431   1.8909   C.3       1 RES1   0.0000
   120 C6H     -4.9804  -5.4431  10.5807   C.3       1 RES1   0.0000
   121 C6O    -10.3532  -5.4431  15.4887   C.3       1 RES1   0.0000
   122 H12G    10.4667   6.3725   2.2107   H         1 RES1   0.0000
   123 H12H    -4.8669  -6.3725  10.9005   H         1 RES1   0.0000
   124 H12O   -10.4667  -6.3725  15.1689   H         1 RES1   0.0000
   125 H13G    11.1475   5.2104   1.3487   H         1 RES1   0.0000
   126 H13H    -4.1861  -5.2104  10.0385   H         1 RES1   0.0000
   127 H13O   -11.1475  -5.2104  16.0309   H         1 RES1   0.0000
   128 C7G     10.2704   3.1017   2.7199   C.3       1 RES1   0.0000
   129 C7H     -5.0632  -3.1017  11.4097   C.3       1 RES1   0.0000
   130 C7O    -10.2704  -3.1017  14.6597   C.3       1 RES1   0.0000
   131 H14G     9.5222   2.9470   2.0890   H         1 RES1   0.0000
   132 H14H    -5.8114  -2.9470  10.7788   H         1 RES1   0.0000
   133 H14O    -9.5222  -2.9470  15.2906   H         1 RES1   0.0000
   134 H15G    10.0742   2.5871   3.5420   H         1 RES1   0.0000
   135 H15H    -5.2594  -2.5871  12.2318   H         1 RES1   0.0000
   136 H15O   -10.0742  -2.5871  13.8376   H         1 RES1   0.0000
   137 C8G     11.5370   2.5366   2.0995   C.ar      1 RES1   0.0000
   138 C8H     -3.7966  -2.5366  10.7893   C.ar      1 RES1   0.0000
   139 C8O    -11.5370  -2.5366  15.2801   C.ar      1 RES1   0.0000
   140 C9G     11.7854   2.5973   0.7352   C.ar      1 RES1   0.0000
   141 C9H     -3.5482  -2.5973   9.4250   C.ar      1 RES1   0.0000
   142 C9O    -11.7854  -2.5973  16.6444   C.ar      1 RES1   0.0000
   143 H16G    11.1966   3.0771   0.1616   H         1 RES1   0.0000
   144 H16H    -4.1370  -3.0771   8.8514   H         1 RES1   0.0000
   145 H16O   -11.1966  -3.0771  17.2180   H         1 RES1   0.0000
   146 C10G    12.8894   1.9526   0.2172   C.ar      1 RES1   0.0000
   147 C10H    -2.4442  -1.9526   8.9070   C.ar      1 RES1   0.0000
   148 C10O   -12.8894  -1.9526  17.1624   C.ar      1 RES1   0.0000
   149 H17G    13.0489   2.0162  -0.7178   H         1 RES1   0.0000
   150 H17H    -2.2847  -2.0162   7.9720   H         1 RES1   0.0000
   151 H17O   -13.0489  -2.0162  18.0974   H         1 RES1   0.0000
   152 C11G    13.5396   1.2285   2.2819   C.ar      1 RES1   0.0000
   153 C11H    -1.7940  -1.2285  10.9717   C.ar      1 RES1   0.0000
   154 C11O   -13.5396  -1.2285  15.0977   C.ar      1 RES1   0.0000
   155 H18G    14.1529   0.7574   2.8329   H         1 RES1   0.0000
   156 H18H    -1.1807  -0.7574  11.5227   H         1 RES1   0.0000
   157 H18O   -14.1529  -0.7574  14.5467   H         1 RES1   0.0000
   158 C12G    12.4662   1.8645   2.8781   C.ar      1 RES1   0.0000
   159 C12H    -2.8674  -1.8645  11.5679   C.ar      1 RES1   0.0000
   160 C12O   -12.4662  -1.8645  14.5015   C.ar      1 RES1   0.0000
   161 H19G    12.3681   1.8399   3.8218   H         1 RES1   0.0000
   162 H19H    -2.9655  -1.8399  12.5116   H         1 RES1   0.0000
   163 H19O   -12.3681  -1.8399  13.5578   H         1 RES1   0.0000
   164 C13G     9.5528   2.2880   6.3053   C.1       1 RES1   0.0000
   165 C13H    -5.7808  -2.2880  14.9951   C.1       1 RES1   0.0000
   166 C13O    -9.5528  -2.2880  11.0743   C.1       1 RES1   0.0000
   167 C14B     0.0000   2.1145  11.1560   C.1       1 RES1   0.0000
   168 Cl1      1.3947   7.1472   6.4200   Cl        2 RES2   0.0000
   169 Cl2      0.0000   5.0124   7.7148   Cl        2 RES2   0.0000
   170 C15      0.0000   6.3016   6.3783   C.3       2 RES2   0.0000
   171 H20      0.0000   5.8044   5.5128   H         2 RES2   0.0000
   172 Cl1J    -1.3947   7.1472   6.4200   Cl        2 RES2   0.0000
@<TRIPOS>BOND
     1     1     4    1
     2     2    17    1
     3     3    43    2
     4     4    13    1
     5     5     1    1
     6     6     7    1
     7     8     6    1
     8     9    16    1
     9    10    44    2
    10    11     1    1
    11    12     1    1
    12    13     6    1
    13    14    13    1
    14    15    13    1
    15    16     1    1
    16    17    37   ar
    17    18     4    1
    18    19    18    1
    19    20    18    1
    20    21     2    1
    21    22    11    1
    22    23    22    1
    23    24    22    1
    24    25    11    1
    25    26    25    1
    26    27    25    1
    27    28    12    1
    28    29    28    1
    29    30    28    1
    30    31    12    1
    31    32    31    1
    32    33    31    1
    33    34    31    1
    34    35    34   ar
    35    36    35    1
    36    37    35   ar
    37    38    37    1
    38    39    17   ar
    39    40    39    1
    40    41    34   ar
    41    42    41    1
    42    43     5    2
    43    44    21    2
    44    45    52    1
    45    46    86   un
    46    47    88   un
    47    48   164    2
    48    49   165    2
    49    50   166    2
    50    51     1    1
    51    52    77    1
    52    53    45    1
    53    54     1    1
    54    55    45    1
    55    56    45    1
    56    57    60    1
    57    58    61    1
    58    59    62    1
    59    63    57    1
    60    64    58    1
    61    65    59    1
    62    66    16    1
    63    67    85    1
    64    68    85    1
    65    69   167    2
    66    70     1    1
    67    71    45    1
    68    72    45    1
    69    73     1    1
    70    74    45    1
    71    75    45    1
    72    76    51    1
    73    77    58    1
    74    78    53    1
    75    79    76    1
    76    80    77    1
    77    81    78    1
    78    82    76    1
    79    83    77    1
    80    84    78    1
    81    85    45    1
    82    86   146   ar
    83    87     2    1
    84    88   148   ar
    85    89     2   un
    86    90     2   un
    87    91    51    1
    88    92    52    1
    89    93    53    1
    90    94    91    1
    91    95    92    1
    92    96    93    1
    93    97    91    1
    94    98    92    1
    95    99    93    1
    96   100     2    1
    97   101    70    1
    98   102    71    1
    99   103    72    1
   100   104   101    1
   101   105   102    1
   102   106   103    1
   103   107   101    1
   104   108   102    1
   105   109   103    1
   106   110    28    1
   107   111    71    1
   108   112    72    1
   109   113   110    1
   110   114   111    1
   111   115   112    1
   112   116   110    1
   113   117   111    1
   114   118   112    1
   115   119    25    1
   116   120    74    1
   117   121    75    1
   118   122   119    1
   119   123   120    1
   120   124   121    1
   121   125   119    1
   122   126   120    1
   123   127   121    1
   124   128    73    1
   125   129    74    1
   126   130    75    1
   127   131   128    1
   128   132   129    1
   129   133   130    1
   130   134   128    1
   131   135   129    1
   132   136   130    1
   133   137   128    1
   134   138   129    1
   135   139   130    1
   136   140   137   ar
   137   141   138   ar
   138   142   139   ar
   139   143   140    1
   140   144   141    1
   141   145   142    1
   142   146   140   ar
   143   147    87   ar
   144   148   142   ar
   145   149   146    1
   146   150   147    1
   147   151   148    1
   148   152    86   ar
   149   153    87   ar
   150   154    88   ar
   151   155   152    1
   152   156   153    1
   153   157   154    1
   154   158   137   ar
   155   159   138   ar
   156   160   139   ar
   157   161   158    1
   158   162   159    1
   159   163   160    1
   160   164    54    2
   161   165    55    2
   162   166    56    2
   163   167   100    2
   164     6    12    1
   165    18    22    1
   166    39    41   ar
   167    57    73    1
   168    57    76    1
   169    58    74    1
   170    59    75    1
   171    59    78    1
   172    70   110    1
   173    73   119    1
   174    91   101    1
   175    92   102    1
   176    93   103    1
   177   111   121    1
   178   112   120    1
   179   141   147   ar
   180   152   158   ar
   181   153   159   ar
   182   154   160   ar
   183   168   170    1
   184   169   170    1
   185   170   171    1
   186   172   170    1
@<TRIPOS>SUBSTRUCTURE
     1 RES1        1 GROUP             0 ****  ****    0  
     2 RES2      168 GROUP             0 ****  ****    0  
@<TRIPOS>CRYSIN
   30.6672   14.4533   17.3796   90.0000   90.0000   90.0000    64     1
