@<TRIPOS>MOLECULE
LUPYEB
   163   188     5     0     0
SMALL
USER_CHARGES
****
Generated from the CSD

@<TRIPOS>ATOM
     1 Fe1      3.3910   1.8652   7.3268   Fe        1 RES1   0.0000
     2 N1       3.4745   2.1300   9.2434   N.2       1 RES1   0.0000
     3 N2       1.5700   2.5347   7.3041   N.2       1 RES1   0.0000
     4 N3       3.3130   1.5912   5.4181   N.2       1 RES1   0.0000
     5 N4       5.2158   1.1998   7.3502   N.2       1 RES1   0.0000
     6 N5       1.2226   2.9659   9.6667   N.2       1 RES1   0.0000
     7 N6       1.0580   2.3735   4.9425   N.2       1 RES1   0.0000
     8 N7       5.5523   0.7225   5.0030   N.2       1 RES1   0.0000
     9 N8       5.7516   1.4384   9.7108   N.2       1 RES1   0.0000
    10 N9       4.5583   4.7240   6.8121   N.1       1 RES1   0.0000
    11 N10      2.1946  -0.9802   7.7889   N.1       1 RES1   0.0000
    12 C1       4.5475   1.9051  10.0511   C.2       1 RES1   0.0000
    13 C2       4.2145   2.2493  11.4297   C.2       1 RES1   0.0000
    14 C3       4.9313   2.2072  12.5880   C.2       1 RES1   0.0000
    15 C4       4.2996   2.6251  13.7503   C.2       1 RES1   0.0000
    16 C5       2.9743   3.0810  13.7370   C.2       1 RES1   0.0000
    17 C6       2.2423   3.1220  12.5572   C.2       1 RES1   0.0000
    18 C7       2.8966   2.6988  11.4113   C.2       1 RES1   0.0000
    19 C8       2.4391   2.5982  10.0337   C.2       1 RES1   0.0000
    20 C9       0.8324   2.9182   8.4009   C.2       1 RES1   0.0000
    21 C10     -0.4852   3.3515   7.9898   C.2       1 RES1   0.0000
    22 C11     -1.5859   3.8373   8.7207   C.2       1 RES1   0.0000
    23 C12     -2.7155   4.1738   8.0062   C.2       1 RES1   0.0000
    24 C13     -2.7564   4.0552   6.6204   C.2       1 RES1   0.0000
    25 C14     -1.6700   3.5746   5.9019   C.2       1 RES1   0.0000
    26 C15     -0.5362   3.2163   6.6030   C.2       1 RES1   0.0000
    27 C16      0.7708   2.6697   6.2084   C.2       1 RES1   0.0000
    28 C17      2.2463   1.8674   4.6063   C.2       1 RES1   0.0000
    29 C18      2.5795   1.5271   3.2195   C.2       1 RES1   0.0000
    30 C19      1.8920   1.6068   2.0397   C.2       1 RES1   0.0000
    31 C20      2.5310   1.1886   0.8928   C.2       1 RES1   0.0000
    32 C21      3.8186   0.6801   0.9174   C.2       1 RES1   0.0000
    33 C22      4.5433   0.5994   2.0889   C.2       1 RES1   0.0000
    34 C23      3.8982   1.0157   3.2472   C.2       1 RES1   0.0000
    35 C24      4.3399   1.0895   4.6402   C.2       1 RES1   0.0000
    36 C25      5.9502   0.7857   6.2627   C.2       1 RES1   0.0000
    37 C26      7.2907   0.4119   6.6645   C.2       1 RES1   0.0000
    38 C27      8.4001  -0.0608   5.9696   C.2       1 RES1   0.0000
    39 C28      9.5552  -0.2937   6.6850   C.2       1 RES1   0.0000
    40 C29      9.6206  -0.0656   8.0513   C.2       1 RES1   0.0000
    41 C30      8.5217   0.4003   8.7432   C.2       1 RES1   0.0000
    42 C31      7.3573   0.6404   8.0421   C.2       1 RES1   0.0000
    43 C32      6.0350   1.1282   8.4419   C.2       1 RES1   0.0000
    44 C33      4.1043   3.6850   7.0294   C.1       1 RES1  -1.0000
    45 C34      2.6683   0.0577   7.6055   C.1       1 RES1   0.0000
    46 H1       1.0092   1.9564   2.0131   H         1 RES1   0.0000
    47 H2       2.0732   1.2438   0.0615   H         1 RES1   0.0000
    48 H3       4.2109   0.3718   0.1097   H         1 RES1   0.0000
    49 H4       5.4391   0.2837   2.1012   H         1 RES1   0.0000
    50 H5       8.3569  -0.2141   5.0338   H         1 RES1   0.0000
    51 H6      10.3201  -0.6219   6.2279   H         1 RES1   0.0000
    52 H7      10.4317  -0.2382   8.5167   H         1 RES1   0.0000
    53 H8       8.5673   0.5635   9.6780   H         1 RES1   0.0000
    54 H9      -1.7021   3.4930   4.9559   H         1 RES1   0.0000
    55 H10     -3.5494   4.2952   6.1561   H         1 RES1   0.0000
    56 H11     -3.4766   4.5008   8.4706   H         1 RES1   0.0000
    57 H12     -1.5498   3.9213   9.6667   H         1 RES1   0.0000
    58 H13      1.3429   3.4275  12.5347   H         1 RES1   0.0000
    59 H14      2.5692   3.3619  14.5498   H         1 RES1   0.0000
    60 H15      4.7723   2.6002  14.5734   H         1 RES1   0.0000
    61 H16      5.8345   1.9157  12.5992   H         1 RES1   0.0000
    62 O1       4.0329  10.7890  13.9030   O.3       2 RES2   0.0000
    63 O2       8.0657   8.7387  11.6255   O.3       2 RES2   1.0000
    64 C35      6.2403  11.5652  13.1855   C.ar      2 RES2   0.0000
    65 C36      4.9813  11.7983  13.7872   C.ar      2 RES2   0.0000
    66 C37      4.6490  13.0583  14.2413   C.ar      2 RES2   0.0000
    67 C38      5.6040  14.0835  14.1173   C.ar      2 RES2   0.0000
    68 C39      6.8442  13.8796  13.5556   C.ar      2 RES2   0.0000
    69 C40      7.1966  12.5971  13.0779   C.ar      2 RES2   0.0000
    70 C41      8.4387  12.2784  12.4414   C.ar      2 RES2   0.0000
    71 C42      8.7148  11.0260  11.9709   C.ar      2 RES2   0.0000
    72 C43      7.7562  10.0089  12.1042   C.ar      2 RES2   0.0000
    73 C44      6.5468  10.2647  12.7007   C.ar      2 RES2   0.0000
    74 C45      5.5563   9.2484  12.8432   C.ar      2 RES2   0.0000
    75 C46      5.8590   7.9555  12.3563   C.ar      2 RES2   0.0000
    76 C47      7.1143   7.7237  11.7464   C.ar      2 RES2   0.0000
    77 C48      7.4334   6.4808  11.2637   C.ar      2 RES2   0.0000
    78 C49      6.4889   5.4489  11.3846   C.ar      2 RES2   0.0000
    79 C50      5.2571   5.6434  11.9586   C.ar      2 RES2   0.0000
    80 C51      4.9124   6.9267  12.4732   C.ar      2 RES2   0.0000
    81 C52      3.6730   7.2351  13.1138   C.ar      2 RES2   0.0000
    82 C53      3.3934   8.4960  13.5904   C.ar      2 RES2   0.0000
    83 C54      4.3460   9.5077  13.4469   C.ar      2 RES2   0.0000
    84 H17      8.2776   6.3247  10.8568   H         2 RES2   0.0000
    85 H18      6.7115   4.5871  11.0546   H         2 RES2   0.0000
    86 H19      4.6351   4.9269  12.0140   H         2 RES2   0.0000
    87 H20      3.0193   6.5510  13.2050   H         2 RES2   0.0000
    88 H21      2.5627   8.6783  14.0127   H         2 RES2   0.0000
    89 H22      9.5486  10.8401  11.5558   H         2 RES2   0.0000
    90 H23      9.0920  12.9612  12.3440   H         2 RES2   0.0000
    91 H24      7.4673  14.5928  13.4910   H         2 RES2   0.0000
    92 H25      5.3795  14.9547  14.4207   H         2 RES2   0.0000
    93 H26      3.8010  13.2187  14.6369   H         2 RES2   0.0000
    94 O3      -3.8032  11.0840   6.0587   O.3       3 RES3   0.0000
    95 C55      0.2091   8.9820   3.8427   C.ar      3 RES3   0.0000
    96 C56     -0.6747   7.9549   3.9360   C.ar      3 RES3   0.0000
    97 C57     -2.0029   8.1893   4.5448   C.ar      3 RES3   0.0000
    98 C58     -2.9391   7.1847   4.7027   C.ar      3 RES3   0.0000
    99 C59     -4.1426   7.5004   5.3156   C.ar      3 RES3   0.0000
   100 C60     -4.4391   8.8137   5.7543   C.ar      3 RES3   0.0000
   101 C61     -3.5393   9.7847   5.6088   C.ar      3 RES3   0.0000
   102 C62     -2.2414   9.4971   4.9876   C.ar      3 RES3   0.0000
   103 C63     -2.8964  12.0820   5.9665   C.ar      3 RES3   0.0000
   104 C64     -1.6078  11.8168   5.3546   C.ar      3 RES3   0.0000
   105 H32     -5.2759   9.0061   6.1602   H         3 RES3   0.0000
   106 H33     -4.7842   6.8149   5.4561   H         3 RES3   0.0000
   107 H34     -2.7689   6.3080   4.3757   H         3 RES3   0.0000
   108 H35     -0.4369   7.0910   3.6182   H         3 RES3   0.0000
   109 H36      1.0703   8.8505   3.4614   H         3 RES3   0.0000
   110 O3A      0.8643  11.2591   4.1912   O.3       3 RES3   0.0000
   111 C55A    -3.1480  13.3612   6.4072   C.ar      3 RES3   0.0000
   112 C56A    -2.2642  14.3883   6.3140   C.ar      3 RES3   0.0000
   113 C57A    -0.9359  14.1539   5.7051   C.ar      3 RES3   0.0000
   114 C58A     0.0002  15.1584   5.5473   C.ar      3 RES3   0.0000
   115 C59A     1.2037  14.8428   4.9343   C.ar      3 RES3   0.0000
   116 C60A     1.5002  13.5295   4.4956   C.ar      3 RES3   0.0000
   117 C61A     0.6004  12.5585   4.6412   C.ar      3 RES3   0.0000
   118 C62A    -0.6975  12.8461   5.2623   C.ar      3 RES3   0.0000
   119 C63A    -0.0425  10.2612   4.2835   C.ar      3 RES3   0.0000
   120 C64A    -1.3311  10.5264   4.8954   C.ar      3 RES3   0.0000
   121 H32A     2.3370  13.3371   4.0897   H         3 RES3   0.0000
   122 H33A     1.8453  15.5283   4.7939   H         3 RES3   0.0000
   123 H34A    -0.1700  16.0352   5.8742   H         3 RES3   0.0000
   124 H35A    -2.5020  15.2522   6.6317   H         3 RES3   0.0000
   125 H36A    -4.0092  13.4927   6.7885   H         3 RES3   0.0000
   126 O4       1.8964  11.8548   0.9594   O.3       4 RES4   0.0000
   127 C65      2.7925  12.8862   0.8548   C.ar      4 RES4   0.0000
   128 C66      2.4344  14.1524   1.3427   C.ar      4 RES4   0.0000
   129 C67      3.3188  15.1777   1.2320   C.ar      4 RES4   0.0000
   130 C68      4.6052  15.0380   0.6201   C.ar      4 RES4   0.0000
   131 C69      5.5465  16.0632   0.4541   C.ar      4 RES4   0.0000
   132 C70      6.7525  15.8220  -0.1568   C.ar      4 RES4   0.0000
   133 C71      7.1003  14.5423  -0.6222   C.ar      4 RES4   0.0000
   134 C72      6.1890  13.5318  -0.4858   C.ar      4 RES4   0.0000
   135 C73      4.9451  13.7504   0.1302   C.ar      4 RES4   0.0000
   136 C74      4.0252  12.6970   0.2501   C.ar      4 RES4   0.0000
   137 H27      1.5825  14.2861   1.7394   H         4 RES4   0.0000
   138 H28      3.0747  16.0271   1.5775   H         4 RES4   0.0000
   139 H29      5.3466  16.9377   0.7667   H         4 RES4   0.0000
   140 H30      7.3692  16.5350  -0.2614   H         4 RES4   0.0000
   141 H31      7.9430  14.3819  -1.0322   H         4 RES4   0.0000
   142 O4A      6.5347  12.2704  -0.9594   O.3       4 RES4   1.0000
   143 C65A     5.6386  11.2390  -0.8548   C.ar      4 RES4   0.0000
   144 C66A     5.9967   9.9728  -1.3427   C.ar      4 RES4   0.0000
   145 C67A     5.1124   8.9475  -1.2320   C.ar      4 RES4   0.0000
   146 C68A     3.8260   9.0872  -0.6201   C.ar      4 RES4   0.0000
   147 C69A     2.8847   8.0620  -0.4541   C.ar      4 RES4   0.0000
   148 C70A     1.6787   8.3032   0.1568   C.ar      4 RES4   0.0000
   149 C71A     1.3308   9.5829   0.6222   C.ar      4 RES4   0.0000
   150 C72A     2.2422  10.5933   0.4858   C.ar      4 RES4   0.0000
   151 C73A     3.4860  10.3747  -0.1302   C.ar      4 RES4   0.0000
   152 C74A     4.4059  11.4281  -0.2501   C.ar      4 RES4   0.0000
   153 H27A     6.8487   9.8391  -1.7394   H         4 RES4   0.0000
   154 H28A     5.3564   8.0980  -1.5775   H         4 RES4   0.0000
   155 H29A     3.0845   7.1875  -0.7667   H         4 RES4   0.0000
   156 H30A     1.0619   7.5902   0.2614   H         4 RES4   0.0000
   157 H31A     0.4881   9.7432   1.0322   H         4 RES4   0.0000
   158 N11      0.4393  -6.2917   8.2143   N.1       5 RES5   0.0000
   159 C75      0.8036  -5.1294   8.0093   C.1       5 RES5   0.0000
   160 C76      1.1916  -3.8376   7.8084   C.3       5 RES5   0.0000
   161 H37      2.0333  -3.8237   7.3677   H         5 RES5   0.0000
   162 H38      0.5440  -3.4031   7.2662   H         5 RES5   0.0000
   163 H39      1.2625  -3.3890   8.6417   H         5 RES5   0.0000
@<TRIPOS>BOND
     1     1     2    1
     2     2    12    1
     3     3     1    1
     4     4     1    1
     5     5     1    1
     6     6    19    2
     7     7    27    2
     8     8    35    1
     9     9    12    2
    10    10    44    3
    11    11    45    3
    12    12    13    1
    13    13    14    1
    14    14    15    2
    15    15    16    1
    16    16    17    2
    17    17    18    1
    18    18    13    2
    19    19     2    1
    20    20     3    2
    21    21    20    1
    22    22    21    1
    23    23    22    2
    24    24    23    1
    25    25    24    2
    26    26    21    2
    27    27     3    1
    28    28     4    1
    29    29    28    2
    30    30    29    1
    31    31    30    2
    32    32    31    1
    33    33    32    2
    34    34    29    1
    35    35     4    1
    36    36     5    1
    37    37    36    1
    38    38    37    1
    39    39    38    2
    40    40    39    1
    41    41    40    2
    42    42    37    2
    43    43     5    2
    44    44     1    1
    45    45     1    1
    46    46    30    1
    47    47    31    1
    48    48    32    1
    49    49    33    1
    50    50    38    1
    51    51    39    1
    52    52    40    1
    53    53    41    1
    54    54    25    1
    55    55    24    1
    56    56    23    1
    57    57    22    1
    58    58    17    1
    59    59    16    1
    60    60    15    1
    61    61    14    1
    62     6    20    1
    63     7    28    1
    64     8    36    2
    65     9    43    1
    66    18    19    1
    67    25    26    1
    68    26    27    1
    69    33    34    1
    70    34    35    2
    71    41    42    1
    72    42    43    1
    73    62    65    1
    74    63    72    1
    75    64    65   ar
    76    65    66   ar
    77    66    67   ar
    78    67    68   ar
    79    68    69   ar
    80    69    64   ar
    81    70    69   ar
    82    71    70   ar
    83    72    71   ar
    84    73    64   ar
    85    74    73    1
    86    75    74   ar
    87    76    63    1
    88    77    76   ar
    89    78    77   ar
    90    79    78   ar
    91    80    75   ar
    92    81    80   ar
    93    82    81   ar
    94    83    62    1
    95    84    77    1
    96    85    78    1
    97    86    79    1
    98    87    81    1
    99    88    82    1
   100    89    71    1
   101    90    70    1
   102    91    68    1
   103    92    67    1
   104    93    66    1
   105    72    73   ar
   106    74    83   ar
   107    75    76   ar
   108    79    80   ar
   109    82    83   ar
   110    94   101    1
   111    95    96   ar
   112    96    97   ar
   113    97    98   ar
   114    98    99   ar
   115    99   100   ar
   116   100   101   ar
   117   101   102   ar
   118   102    97   ar
   119   103    94    1
   120   104   103   ar
   121   105   100    1
   122   106    99    1
   123   107    98    1
   124   108    96    1
   125   109    95    1
   126   110   117    1
   127   111   103   ar
   128   112   111   ar
   129   113   112   ar
   130   114   113   ar
   131   115   114   ar
   132   116   115   ar
   133   117   116   ar
   134   118   104   ar
   135   119    95   ar
   136   120   102   ar
   137   121   116    1
   138   122   115    1
   139   123   114    1
   140   124   112    1
   141   125   111    1
   142   104   120    1
   143   110   119    1
   144   113   118   ar
   145   117   118   ar
   146   119   120   ar
   147   126   127    1
   148   127   128   ar
   149   128   129   ar
   150   129   130   ar
   151   130   131   ar
   152   131   132   ar
   153   132   133   ar
   154   133   134   ar
   155   134   135   ar
   156   135   130   ar
   157   136   127   ar
   158   137   128    1
   159   138   129    1
   160   139   131    1
   161   140   132    1
   162   141   133    1
   163   142   134    1
   164   143   142    1
   165   144   143   ar
   166   145   144   ar
   167   146   145   ar
   168   147   146   ar
   169   148   147   ar
   170   149   148   ar
   171   150   126    1
   172   151   146   ar
   173   152   136    1
   174   153   144    1
   175   154   145    1
   176   155   147    1
   177   156   148    1
   178   157   149    1
   179   135   136   ar
   180   143   152   ar
   181   149   150   ar
   182   150   151   ar
   183   151   152   ar
   184   158   159    3
   185   159   160    1
   186   160   161    1
   187   162   160    1
   188   163   160    1
@<TRIPOS>SUBSTRUCTURE
     1 RES1        1 GROUP             0 ****  ****    0  
     2 RES2       62 GROUP             0 ****  ****    0  
     3 RES3       94 GROUP             0 ****  ****    0  
     4 RES4      126 GROUP             0 ****  ****    0  
     5 RES5      158 GROUP             0 ****  ****    0  
@<TRIPOS>CRYSIN
   10.7040   24.2320   10.4250   99.4500   93.6630   95.3820     2     1
