@<TRIPOS>MOLECULE
LUWJAO
    88   102     1     0     0
SMALL
NO_CHARGES
****
Generated from the CSD

@<TRIPOS>ATOM
     1 Fe1     33.5748   3.2712   6.2521   Fe        1 RES1   0.0000
     2 F1      31.0834   0.1722   9.9443   F         1 RES1   0.0000
     3 F2      29.0256  -1.1136  11.0454   F         1 RES1   0.0000
     4 F3      26.5046  -0.7253  10.1006   F         1 RES1   0.0000
     5 F4      26.0837   1.0440   8.1295   F         1 RES1   0.0000
     6 F5      28.1563   2.2748   6.9433   F         1 RES1   0.0000
     7 F6      32.9488   1.0660   1.4953   F         1 RES1   0.0000
     8 F7      32.7415  -0.8609  -0.4081   F         1 RES1   0.0000
     9 F8      33.7186  -3.3372   0.1424   F         1 RES1   0.0000
    10 F9      34.5900  -3.9306   2.6068   F         1 RES1   0.0000
    11 F10     34.6196  -2.0477   4.5241   F         1 RES1   0.0000
    12 F11     37.1131   5.3190   2.3445   F         1 RES1   0.0000
    13 F12     39.5644   6.0553   1.5926   F         1 RES1   0.0000
    14 F13     41.7216   5.9747   3.3709   F         1 RES1   0.0000
    15 F14     41.3240   4.7878   6.0316   F         1 RES1   0.0000
    16 F15     38.8199   3.7914   6.8079   F         1 RES1   0.0000
    17 F16     34.0401   7.8136   9.6404   F         1 RES1   0.0000
    18 F17     33.3253  10.3192  10.3889   F         1 RES1   0.0000
    19 F18     31.2928  11.5537   9.0048   F         1 RES1   0.0000
    20 F19     29.9921  10.2386   7.0093   F         1 RES1   0.0000
    21 F20     30.8021   7.7660   6.3598   F         1 RES1   0.0000
    22 N1      32.5279   1.6265   5.9742   N.2       1 RES1   0.0000
    23 N2      34.9072   2.6412   4.9548   N.2       1 RES1   0.0000
    24 N3      34.5012   5.0296   6.3268   N.2       1 RES1   0.0000
    25 N4      32.1684   3.9563   7.4487   N.2       1 RES1   0.0000
    26 N5      32.4031   4.0185   4.5884   N.2       1 RES1   0.0000
    27 N6      30.6351   4.5094   3.3588   N.pl3     1 RES1   0.0000
    28 C1      30.8402   1.9415   7.7301   C.2       1 RES1   0.0000
    29 C2      31.4472   1.1905   6.7228   C.2       1 RES1   0.0000
    30 C3      30.9840  -0.0513   6.2365   C.2       1 RES1   0.0000
    31 C4      31.7560  -0.3700   5.1615   C.2       1 RES1   0.0000
    32 C5      32.7183   0.6594   5.0312   C.2       1 RES1   0.0000
    33 C6      33.7779   0.6411   4.1108   C.2       1 RES1   0.0000
    34 C7      34.8375   1.5312   4.1420   C.2       1 RES1   0.0000
    35 C8      36.0134   1.3920   3.3605   C.2       1 RES1   0.0000
    36 C9      36.8467   2.4250   3.7391   C.2       1 RES1   0.0000
    37 C10     36.1403   3.2016   4.6700   C.2       1 RES1   0.0000
    38 C11     36.5590   4.4398   5.1424   C.2       1 RES1   0.0000
    39 C12     35.7680   5.3190   5.8509   C.2       1 RES1   0.0000
    40 C13     36.0980   6.6670   6.1010   C.2       1 RES1   0.0000
    41 C14     34.9982   7.2238   6.7037   C.2       1 RES1   0.0000
    42 C15     34.0444   6.2091   6.8791   C.2       1 RES1   0.0000
    43 C16     32.8621   6.3154   7.6154   C.2       1 RES1   0.0000
    44 C17     32.0288   5.2384   7.9489   C.2       1 RES1   0.0000
    45 C18     30.9650   5.3226   8.8711   C.2       1 RES1   0.0000
    46 C19     30.4320   4.0625   8.9423   C.2       1 RES1   0.0000
    47 C20     31.1617   3.2383   8.0566   C.2       1 RES1   0.0000
    48 C21     29.6854   1.2894   8.4213   C.ar      1 RES1   0.0000
    49 C22     29.8610   0.4066   9.4581   C.ar      1 RES1   0.0000
    50 C23     28.8120  -0.2601  10.0294   C.ar      1 RES1   0.0000
    51 C24     27.5388  -0.0696   9.5692   C.ar      1 RES1   0.0000
    52 C25     27.3336   0.8206   8.5532   C.ar      1 RES1   0.0000
    53 C26     28.3995   1.4873   7.9975   C.ar      1 RES1   0.0000
    54 C27     33.7927  -0.4249   3.0566   C.ar      1 RES1   0.0000
    55 C28     33.3570  -0.1758   1.7766   C.ar      1 RES1   0.0000
    56 C29     33.3189  -1.1209   0.7746   C.ar      1 RES1   0.0000
    57 C30     33.7715  -2.3738   1.0715   C.ar      1 RES1   0.0000
    58 C31     34.1966  -2.6851   2.3289   C.ar      1 RES1   0.0000
    59 C32     34.1903  -1.7071   3.2893   C.ar      1 RES1   0.0000
    60 C33     37.9591   4.6449   4.6040   C.ar      1 RES1   0.0000
    61 C34     38.1072   5.2164   3.2563   C.ar      1 RES1   0.0000
    62 C35     39.4544   5.6596   2.8777   C.ar      1 RES1   0.0000
    63 C36     40.5457   5.5351   3.8607   C.ar      1 RES1   0.0000
    64 C37     40.2813   4.9893   5.1997   C.ar      1 RES1   0.0000
    65 C38     38.9891   4.4288   5.6321   C.ar      1 RES1   0.0000
    66 C39     32.4814   7.6927   8.0878   C.ar      1 RES1   0.0000
    67 C40     32.9636   8.4840   9.0222   C.ar      1 RES1   0.0000
    68 C41     32.6041   9.7075   9.3452   C.ar      1 RES1   0.0000
    69 C42     31.6016  10.2203   8.6644   C.ar      1 RES1   0.0000
    70 C43     31.0348   9.5610   7.6727   C.ar      1 RES1   0.0000
    71 C44     31.5487   8.3704   7.4157   C.ar      1 RES1   0.0000
    72 C45     34.5139   2.5459   7.6415   C.2       1 RES1   0.0000
    73 C46     35.5227   1.4580   7.5130   C.ar      1 RES1   0.0000
    74 C47     36.8403   1.7693   7.8273   C.ar      1 RES1   0.0000
    75 C48     37.8386   0.8096   7.7717   C.ar      1 RES1   0.0000
    76 C49     37.4917  -0.4872   7.4140   C.ar      1 RES1   0.0000
    77 C50     36.1804  -0.8096   7.0771   C.ar      1 RES1   0.0000
    78 C51     35.1949   0.1575   7.1500   C.ar      1 RES1   0.0000
    79 C52     34.3193   2.9269   9.0795   C.ar      1 RES1   0.0000
    80 C53     33.8371   1.9452   9.9791   C.ar      1 RES1   0.0000
    81 C54     33.6087   2.1943  11.2608   C.ar      1 RES1   0.0000
    82 C55     33.8625   3.4324  11.7453   C.ar      1 RES1   0.0000
    83 C56     34.3235   4.4215  10.9273   C.ar      1 RES1   0.0000
    84 C57     34.5583   4.1687   9.5796   C.ar      1 RES1   0.0000
    85 C58     32.7817   4.1541   3.2702   C.2       1 RES1   0.0000
    86 C59     31.6820   4.4618   2.5234   C.2       1 RES1   0.0000
    87 C60     31.1109   4.2493   4.5797   C.2       1 RES1   0.0000
    88 C61     29.2794   4.7915   2.9333   C.3       1 RES1   0.0000
@<TRIPOS>BOND
     1     1    22    1
     2     2    49    1
     3     3    50    1
     4     4    51    1
     5     5    52    1
     6     6    53    1
     7     7    55    1
     8     8    56    1
     9     9    57    1
    10    10    58    1
    11    11    59    1
    12    12    61    1
    13    13    62    1
    14    14    63    1
    15    15    64    1
    16    16    65    1
    17    17    67    1
    18    18    68    1
    19    19    69    1
    20    20    70    1
    21    21    71    1
    22    22    29    1
    23    23     1    1
    24    24     1    1
    25    25     1    1
    26    26     1    1
    27    27    86    1
    28    28    29    2
    29    29    30    1
    30    30    31    2
    31    31    32    1
    32    32    22    1
    33    33    32    2
    34    34    23    2
    35    35    34    1
    36    36    35    2
    37    37    23    1
    38    38    37    2
    39    39    24    1
    40    40    39    2
    41    41    40    1
    42    42    24    1
    43    43    42    1
    44    44    25    1
    45    45    44    1
    46    46    45    2
    47    47    25    2
    48    48    28    1
    49    49    48   ar
    50    50    49   ar
    51    51    50   ar
    52    52    51   ar
    53    53    48   ar
    54    54    33    1
    55    55    54   ar
    56    56    55   ar
    57    57    56   ar
    58    58    57   ar
    59    59    54   ar
    60    60    38    1
    61    61    60   ar
    62    62    61   ar
    63    63    62   ar
    64    64    63   ar
    65    65    60   ar
    66    66    43    1
    67    67    66   ar
    68    68    67   ar
    69    69    68   ar
    70    70    69   ar
    71    71    66   ar
    72    72     1    2
    73    73    72    1
    74    74    73   ar
    75    75    74   ar
    76    76    75   ar
    77    77    76   ar
    78    78    73   ar
    79    79    72    1
    80    80    79   ar
    81    81    80   ar
    82    82    81   ar
    83    83    82   ar
    84    84    79   ar
    85    85    26    1
    86    86    85    2
    87    87    26    2
    88    88    27    1
    89    27    87    1
    90    28    47    1
    91    33    34    1
    92    36    37    1
    93    38    39    1
    94    41    42    2
    95    43    44    2
    96    46    47    1
    97    52    53   ar
    98    58    59   ar
    99    64    65   ar
   100    70    71   ar
   101    77    78   ar
   102    83    84   ar
@<TRIPOS>SUBSTRUCTURE
     1 RES1        1 GROUP             0 ****  ****    0  
@<TRIPOS>CRYSIN
   42.2990   42.2990   17.3670   90.0000   90.0000  120.0000   233     1
