@<TRIPOS>MOLECULE
MAFCIJ
   191   206     3     0     0
SMALL
USER_CHARGES
****
Generated from the CSD

@<TRIPOS>ATOM
     1 C1       6.3511  14.5927   6.5130   C.2       1 RES1   0.0000
     2 C2       5.0424  12.8180   6.4694   C.ar      1 RES1   0.0000
     3 C3       4.2734  11.7418   6.2844   C.ar      1 RES1   0.0000
     4 H1       4.0476  11.4842   5.4194   H         1 RES1   0.0000
     5 C4       3.8108  11.0119   7.3512   C.ar      1 RES1   0.0000
     6 H2       3.3090  10.2456   7.1948   H         1 RES1   0.0000
     7 C5       4.0808  11.3975   8.6549   C.ar      1 RES1   0.0000
     8 H3       3.7100  10.9133   9.3557   H         1 RES1   0.0000
     9 C6       4.8621  12.4481   8.9271   C.ar      1 RES1   0.0000
    10 H4       5.0368  12.6668   9.8134   H         1 RES1   0.0000
    11 C7       5.4316  13.2351   7.8874   C.ar      1 RES1   0.0000
    12 C8       5.7416  13.6129   4.2159   C.3       1 RES1   0.0000
    13 H5       5.6282  14.4931   3.8255   H         1 RES1   0.0000
    14 H6       5.0207  13.0479   3.8948   H         1 RES1   0.0000
    15 C9       7.0851  13.0266   3.7695   C.ar      1 RES1   0.0000
    16 C10      7.8025  12.2042   4.5942   C.ar      1 RES1   0.0000
    17 H7       7.5080  12.0413   5.4617   H         1 RES1   0.0000
    18 C11      9.0094  11.5903   4.1179   C.ar      1 RES1   0.0000
    19 H8       9.4480  10.9767   4.6605   H         1 RES1   0.0000
    20 C12      9.5377  11.8795   2.8904   C.ar      1 RES1   0.0000
    21 C13      8.8201  12.8141   2.1229   C.ar      1 RES1   0.0000
    22 H9       9.1595  13.0584   1.2933   H         1 RES1   0.0000
    23 C14      7.6300  13.3866   2.5448   C.ar      1 RES1   0.0000
    24 H10      7.1991  14.0136   2.0099   H         1 RES1   0.0000
    25 C15     10.7504  11.3168   2.3243   C.3       1 RES1   0.0000
    26 C16     10.5520  10.5397   1.0506   C.3       1 RES1   0.0000
    27 H11     10.1708  11.1128   0.3818   H         1 RES1   0.0000
    28 H12      9.9607   9.8010   1.2139   H         1 RES1   0.0000
    29 H13     11.3993  10.2082   0.7424   H         1 RES1   0.0000
    30 C17     11.8601  12.3478   2.0413   C.3       1 RES1   0.0000
    31 H14     11.4720  13.1400   1.6638   H         1 RES1   0.0000
    32 H15     12.4926  11.9749   1.4221   H         1 RES1   0.0000
    33 H16     12.3082  12.5695   2.8609   H         1 RES1   0.0000
    34 C18     11.4376  10.2485   3.3286   C.3       1 RES1   0.0000
    35 H17     12.2408   9.9070   2.9323   H         1 RES1   0.0000
    36 H18     10.8275   9.5258   3.4934   H         1 RES1   0.0000
    37 H19     11.6495  10.6825   4.1597   H         1 RES1   0.0000
    38 C19      7.2734  15.7397   6.1619   C.ar      1 RES1   0.0000
    39 C20      7.5671  16.2119   4.8990   C.ar      1 RES1   0.0000
    40 H20      7.1842  15.8600   4.1290   H         1 RES1   0.0000
    41 C21      8.5499  17.3333   4.8745   C.ar      1 RES1   0.0000
    42 H21      8.7991  17.7364   4.0750   H         1 RES1   0.0000
    43 C22      9.0604  17.7406   6.0394   C.ar      1 RES1   0.0000
    44 H22      9.6696  18.4429   6.0192   H         1 RES1   0.0000
    45 C23      8.7591  17.2113   7.2533   C.ar      1 RES1   0.0000
    46 C24      9.1906  17.4238   8.6304   C.2       1 RES1   0.0000
    47 C25     10.2671  17.9983  10.3778   C.ar      1 RES1   0.0000
    48 C26     11.2257  18.5512  11.3249   C.ar      1 RES1   0.0000
    49 H23     11.9524  19.0697  11.0635   H         1 RES1   0.0000
    50 C27     10.9677  18.2462  12.6177   C.ar      1 RES1   0.0000
    51 H24     11.5090  18.6261  13.2715   H         1 RES1   0.0000
    52 C28      9.9291  17.3845  13.0396   C.ar      1 RES1   0.0000
    53 H25      9.8389  17.1601  13.9368   H         1 RES1   0.0000
    54 C29      9.0557  16.8847  12.1087   C.ar      1 RES1   0.0000
    55 H26      8.3431  16.3398  12.3534   H         1 RES1   0.0000
    56 C30      9.2922  17.2448  10.7425   C.ar      1 RES1   0.0000
    57 C31     11.3623  18.8483   8.2167   C.3       1 RES1   0.0000
    58 H27     11.6824  19.6330   8.6888   H         1 RES1   0.0000
    59 H28     11.0260  19.1315   7.3531   H         1 RES1   0.0000
    60 C32     12.5672  17.8193   8.0126   C.ar      1 RES1   0.0000
    61 C33     13.7669  18.0514   8.3855   C.ar      1 RES1   0.0000
    62 H29     13.9372  18.8783   8.7755   H         1 RES1   0.0000
    63 C34     14.8131  17.2015   8.2603   C.ar      1 RES1   0.0000
    64 H30     15.6493  17.4117   8.6090   H         1 RES1   0.0000
    65 C35     14.5895  15.9777   7.5799   C.ar      1 RES1   0.0000
    66 C36     13.3144  15.7239   7.2424   C.ar      1 RES1   0.0000
    67 H31     13.1486  14.9369   6.7779   H         1 RES1   0.0000
    68 C37     12.2349  16.5227   7.5254   C.ar      1 RES1   0.0000
    69 H32     11.3575  16.2411   7.4064   H         1 RES1   0.0000
    70 C38     15.7110  14.9684   7.4030   C.3       1 RES1   0.0000
    71 C39     16.6922  15.4819   6.4232   C.3       1 RES1   0.0000
    72 H33     16.4691  15.1581   5.5483   H         1 RES1   0.0000
    73 H34     17.5712  15.1798   6.6630   H         1 RES1   0.0000
    74 H35     16.6719  16.4417   6.4252   H         1 RES1   0.0000
    75 C40     16.4201  14.7028   8.6985   C.3       1 RES1   0.0000
    76 H36     16.7908  15.5220   9.0319   H         1 RES1   0.0000
    77 H37     17.1168  14.0639   8.5574   H         1 RES1   0.0000
    78 H38     15.7891  14.3557   9.3382   H         1 RES1   0.0000
    79 C41     15.2372  13.6207   6.8994   C.3       1 RES1   0.0000
    80 H39     14.6485  13.2283   7.5414   H         1 RES1   0.0000
    81 H40     16.0020  13.0467   6.7715   H         1 RES1   0.0000
    82 H41     14.7840  13.7348   6.0640   H         1 RES1   0.0000
    83 C42      8.5343  13.2686  10.2498   C.2       1 RES1   0.0000
    84 C43     10.0340  12.2612   9.0087   C.ar      1 RES1   0.0000
    85 C44     10.9847  11.4014   8.4181   C.ar      1 RES1   0.0000
    86 H42     11.2973  10.6513   8.8721   H         1 RES1   0.0000
    87 C45     11.4017  11.6788   7.2478   C.ar      1 RES1   0.0000
    88 H43     11.9825  11.0769   6.8421   H         1 RES1   0.0000
    89 C46     11.0486  12.8298   6.5266   C.ar      1 RES1   0.0000
    90 H44     11.4555  13.0169   5.7125   H         1 RES1   0.0000
    91 C47     10.0743  13.6955   7.0464   C.ar      1 RES1   0.0000
    92 H45      9.7879  14.4566   6.5972   H         1 RES1   0.0000
    93 C48      9.5700  13.3197   8.2984   C.ar      1 RES1   0.0000
    94 C49      9.4884  11.1555  11.1752   C.3       1 RES1   0.0000
    95 H46      9.5054  11.5332  12.0679   H         1 RES1   0.0000
    96 H47     10.3142  10.6643  11.0396   H         1 RES1   0.0000
    97 C50      8.3175  10.2210  11.0446   C.ar      1 RES1   0.0000
    98 C51      7.4889  10.1619   9.9559   C.ar      1 RES1   0.0000
    99 H48      7.5740  10.8237   9.3091   H         1 RES1   0.0000
   100 C52      6.5164   9.1644   9.7490   C.ar      1 RES1   0.0000
   101 H49      5.9811   9.1550   8.9897   H         1 RES1   0.0000
   102 C53      6.3969   8.2161  10.7152   C.ar      1 RES1   0.0000
   103 C54      7.2352   8.1394  11.8393   C.ar      1 RES1   0.0000
   104 H50      7.1792   7.4591  12.4704   H         1 RES1   0.0000
   105 C55      8.1453   9.1644  11.9182   C.ar      1 RES1   0.0000
   106 H51      8.7178   9.1464  12.6513   H         1 RES1   0.0000
   107 C56      5.3611   7.0199  10.5356   C.3       1 RES1   0.0000
   108 C57      6.0077   5.9417   9.8144   C.3       1 RES1   0.0000
   109 H52      6.1471   6.2042   8.8996   H         1 RES1   0.0000
   110 H53      5.4641   5.1558   9.8440   H         1 RES1   0.0000
   111 H54      6.8628   5.7555  10.2202   H         1 RES1   0.0000
   112 C58      4.7513   6.4533  11.8447   C.3       1 RES1   0.0000
   113 H55      4.1571   7.1082  12.2259   H         1 RES1   0.0000
   114 H56      5.4599   6.2701  12.4671   H         1 RES1   0.0000
   115 H57      4.2699   5.6527  11.6544   H         1 RES1   0.0000
   116 C59      4.0912   7.4763   9.7055   C.3       1 RES1   0.0000
   117 H58      4.0662   8.4341   9.6596   H         1 RES1   0.0000
   118 H59      3.2950   7.1543  10.1338   H         1 RES1   0.0000
   119 H60      4.1448   7.1143   8.8171   H         1 RES1   0.0000
   120 C60      7.6280  13.7644  11.2133   C.ar      1 RES1   0.0000
   121 C61      7.4251  13.3768  12.5442   C.ar      1 RES1   0.0000
   122 H61      7.9129  12.6708  12.9022   H         1 RES1   0.0000
   123 C62      6.5078  14.0418  13.3199   C.ar      1 RES1   0.0000
   124 H62      6.3973  13.8042  14.2126   H         1 RES1   0.0000
   125 C63      5.7495  15.0609  12.7837   C.ar      1 RES1   0.0000
   126 H63      5.1323  15.4994  13.3236   H         1 RES1   0.0000
   127 C64      5.8832  15.4465  11.4528   C.ar      1 RES1   0.0000
   128 C65      5.2962  16.4460  10.6145   C.2       1 RES1   0.0000
   129 C66      4.0347  18.0613   9.7627   C.ar      1 RES1   0.0000
   130 C67      3.1537  19.0017   9.4633   C.ar      1 RES1   0.0000
   131 H64      2.5204  19.2604  10.0934   H         1 RES1   0.0000
   132 C68      3.1693  19.6293   8.1650   C.ar      1 RES1   0.0000
   133 H65      2.6084  20.3372   7.9426   H         1 RES1   0.0000
   134 C69      4.0521  19.1139   7.3104   C.ar      1 RES1   0.0000
   135 H66      4.0120  19.4706   6.4535   H         1 RES1   0.0000
   136 C70      5.0525  18.1006   7.4873   C.ar      1 RES1   0.0000
   137 H67      5.6476  17.8184   6.8319   H         1 RES1   0.0000
   138 C71      5.0003  17.5871   8.8210   C.ar      1 RES1   0.0000
   139 C72      3.3957  17.4671  12.1414   C.3       1 RES1   0.0000
   140 H68      3.1329  18.3967  12.2359   H         1 RES1   0.0000
   141 H69      3.9098  17.2202  12.9261   H         1 RES1   0.0000
   142 C73      2.1335  16.5837  12.0570   C.ar      1 RES1   0.0000
   143 C74      0.9627  17.0717  11.7685   C.ar      1 RES1   0.0000
   144 H70      0.8950  17.9909  11.6496   H         1 RES1   0.0000
   145 C75     -0.1781  16.3260  11.6270   C.ar      1 RES1   0.0000
   146 H71     -0.9825  16.7266  11.3862   H         1 RES1   0.0000
   147 C76     -0.1019  14.9252  11.8529   C.ar      1 RES1   0.0000
   148 C77      1.0382  14.4451  12.1659   C.ar      1 RES1   0.0000
   149 H72      1.1028  13.5240  12.2733   H         1 RES1   0.0000
   150 C78      2.2443  15.2321  12.3619   C.ar      1 RES1   0.0000
   151 H73      3.0371  14.8566  12.6715   H         1 RES1   0.0000
   152 C79     -1.3830  14.0752  11.7468   C.3       1 RES1   0.0000
   153 C80     -2.3259  14.7166  10.6989   C.3       1 RES1   0.0000
   154 H74     -2.1693  15.6642  10.6679   H         1 RES1   0.0000
   155 H75     -3.2366  14.5497  10.9440   H         1 RES1   0.0000
   156 H76     -2.1485  14.3356   9.8360   H         1 RES1   0.0000
   157 C81     -1.0389  12.6763  11.2487   C.3       1 RES1   0.0000
   158 H77     -0.1038  12.6177  11.0688   H         1 RES1   0.0000
   159 H78     -1.5355  12.4967  10.4416   H         1 RES1   0.0000
   160 H79     -1.2841  12.0305  11.9171   H         1 RES1   0.0000
   161 C82     -2.0680  13.8706  13.1239   C.3       1 RES1   0.0000
   162 H80     -1.8793  12.9849  13.4440   H         1 RES1   0.0000
   163 H81     -3.0149  13.9828  13.0290   H         1 RES1   0.0000
   164 H82     -1.7277  14.5153  13.7481   H         1 RES1   0.0000
   165 Fe1      7.2954  15.4477   8.9780   Fe        1 RES1   2.0000
   166 N1       6.1916  14.3487   7.7704   N.2       1 RES1   0.0000
   167 N2       7.8051  16.1627   7.2778   N.ar      1 RES1   0.0000
   168 N3       8.6094  16.7746   9.5749   N.2       1 RES1   0.0000
   169 N4       8.6067  14.0142   9.0958   N.2       1 RES1   0.0000
   170 N5       6.8454  14.7461  10.6989   N.ar      1 RES1   0.0000
   171 N6       5.7716  16.6211   9.4415   N.2       1 RES1   0.0000
   172 N7       5.6602  13.7171   5.6747   N.pl3     1 RES1   0.0000
   173 N8      10.2310  18.1970   9.0169   N.pl3     1 RES1   0.0000
   174 N9       9.3966  12.2081  10.2117   N.pl3     1 RES1   0.0000
   175 N10      4.2350  17.3136  10.9330   N.pl3     1 RES1   0.0000
   176 C83      4.0158  17.7780   3.2959   C.3       2 RES2   0.0000
   177 F1       3.6106  19.0549   3.4810   F         2 RES2   0.0000
   178 F2       4.3634  17.1444   4.3982   F         2 RES2   0.0000
   179 F3       3.0326  17.1051   2.6917   F         2 RES2   0.0000
   180 O1       6.3702  18.6614   2.9122   O.2       2 RES2   0.0000
   181 O2       5.8867  16.4637   2.1093   O.3       2 RES2  -1.0000
   182 O3       4.9548  18.4371   1.0070   O.2       2 RES2   0.0000
   183 S1       5.4810  17.8488   2.1556   S.o2      2 RES2   0.0000
   184 C84      1.7526  12.9715   2.8850   C.3       3 RES3   0.0000
   185 F4       1.0843  13.7840   2.1556   F         3 RES3   0.0000
   186 F5       2.4593  13.6581   3.8076   F         3 RES3   0.0000
   187 F6       0.8274  12.3694   3.6688   F         3 RES3   0.0000
   188 O4       3.7149  12.6272   1.3309   O.2       3 RES3   0.0000
   189 O5       3.3863  10.9410   3.0673   O.3       3 RES3  -1.0000
   190 O6       1.8026  11.1299   1.2111   O.2       3 RES3   0.0000
   191 S2       2.7510  11.7752   2.0124   S.o2      3 RES3   0.0000
@<TRIPOS>BOND
     1     1    38    1
     2     2     3   ar
     3     3     4    1
     4     5     3   ar
     5     6     5    1
     6     7     5   ar
     7     8     7    1
     8     9     7   ar
     9    10     9    1
    10    11     2   ar
    11    12    13    1
    12    14    12    1
    13    15    12    1
    14    16    15   ar
    15    17    16    1
    16    18    16   ar
    17    19    18    1
    18    20    18   ar
    19    21    20   ar
    20    22    21    1
    21    23    15   ar
    22    24    23    1
    23    25    20    1
    24    26    25    1
    25    27    26    1
    26    28    26    1
    27    29    26    1
    28    30    25    1
    29    31    30    1
    30    32    30    1
    31    33    30    1
    32    34    25    1
    33    35    34    1
    34    36    34    1
    35    37    34    1
    36    38    39   ar
    37    39    40    1
    38    41    39   ar
    39    42    41    1
    40    43    41   ar
    41    44    43    1
    42    45    43   ar
    43    46    45    1
    44    47    48   ar
    45    48    49    1
    46    50    48   ar
    47    51    50    1
    48    52    50   ar
    49    53    52    1
    50    54    52   ar
    51    55    54    1
    52    56    47   ar
    53    57    58    1
    54    59    57    1
    55    60    57    1
    56    61    60   ar
    57    62    61    1
    58    63    61   ar
    59    64    63    1
    60    65    63   ar
    61    66    65   ar
    62    67    66    1
    63    68    60   ar
    64    69    68    1
    65    70    65    1
    66    71    70    1
    67    72    71    1
    68    73    71    1
    69    74    71    1
    70    75    70    1
    71    76    75    1
    72    77    75    1
    73    78    75    1
    74    79    70    1
    75    80    79    1
    76    81    79    1
    77    82    79    1
    78    83   120    1
    79    84    85   ar
    80    85    86    1
    81    87    85   ar
    82    88    87    1
    83    89    87   ar
    84    90    89    1
    85    91    89   ar
    86    92    91    1
    87    93    84   ar
    88    94    95    1
    89    96    94    1
    90    97    94    1
    91    98    97   ar
    92    99    98    1
    93   100    98   ar
    94   101   100    1
    95   102   100   ar
    96   103   102   ar
    97   104   103    1
    98   105    97   ar
    99   106   105    1
   100   107   102    1
   101   108   107    1
   102   109   108    1
   103   110   108    1
   104   111   108    1
   105   112   107    1
   106   113   112    1
   107   114   112    1
   108   115   112    1
   109   116   107    1
   110   117   116    1
   111   118   116    1
   112   119   116    1
   113   120   121   ar
   114   121   122    1
   115   123   121   ar
   116   124   123    1
   117   125   123   ar
   118   126   125    1
   119   127   125   ar
   120   128   127    1
   121   129   130   ar
   122   130   131    1
   123   132   130   ar
   124   133   132    1
   125   134   132   ar
   126   135   134    1
   127   136   134   ar
   128   137   136    1
   129   138   129   ar
   130   139   140    1
   131   141   139    1
   132   142   139    1
   133   143   142   ar
   134   144   143    1
   135   145   143   ar
   136   146   145    1
   137   147   145   ar
   138   148   147   ar
   139   149   148    1
   140   150   142   ar
   141   151   150    1
   142   152   147    1
   143   153   152    1
   144   154   153    1
   145   155   153    1
   146   156   153    1
   147   157   152    1
   148   158   157    1
   149   159   157    1
   150   160   157    1
   151   161   152    1
   152   162   161    1
   153   163   161    1
   154   164   161    1
   155   165   166    1
   156   166     1    2
   157   167    38   ar
   158   168    46    2
   159   169    83    2
   160   170   120   ar
   161   171   128    2
   162   172     1    1
   163   173    46    1
   164   174    83    1
   165   175   128    1
   166     2   172    1
   167     9    11   ar
   168    11   166    1
   169    12   172    1
   170    21    23   ar
   171    45   167   ar
   172    47   173    1
   173    54    56   ar
   174    56   168    1
   175    57   173    1
   176    66    68   ar
   177    84   174    1
   178    91    93   ar
   179    93   169    1
   180    94   174    1
   181   103   105   ar
   182   127   170   ar
   183   129   175    1
   184   136   138   ar
   185   138   171    1
   186   139   175    1
   187   148   150   ar
   188   165   167    1
   189   165   168    1
   190   165   169    1
   191   165   170    1
   192   165   171    1
   193   176   177    1
   194   178   176    1
   195   179   176    1
   196   180   183    2
   197   181   183    1
   198   182   183    2
   199   183   176    1
   200   184   185    1
   201   186   184    1
   202   187   184    1
   203   188   191    2
   204   189   191    1
   205   190   191    2
   206   191   184    1
@<TRIPOS>SUBSTRUCTURE
     1 RES1        1 GROUP             0 ****  ****    0  
     2 RES2      176 GROUP             0 ****  ****    0  
     3 RES3      184 GROUP             0 ****  ****    0  
@<TRIPOS>CRYSIN
   14.4248   19.6746   28.0978   90.0000  104.3860   90.0000   231     1
