@<TRIPOS>MOLECULE
MAGYEZ
   120   123     8     0     0
SMALL
USER_CHARGES
****
Generated from the CSD

@<TRIPOS>ATOM
     1 Fe1      6.2853   7.6475  -1.1248   Fe        1 RES1   2.0000
     2 N1       7.7174   7.9538  -2.4643   N.ar      1 RES1   0.0000
     3 N2      10.9554   6.7979  -3.6964   N.pl3     1 RES1   0.0000
     4 H1      11.1496   6.2134  -3.1101   H         1 RES1   0.0000
     5 H2      11.4327   6.8776  -4.3920   H         1 RES1   0.0000
     6 N3       5.4506   9.1499  -2.0716   N.ar      1 RES1   0.0000
     7 N4       2.5784  11.3691  -2.0447   N.pl3     1 RES1   0.0000
     8 H3       2.2014  11.9411  -2.4902   H         1 RES1   0.0000
     9 H4       2.1264  10.9776  -1.3659   H         1 RES1   0.0000
    10 N5       7.0035   8.8949   0.2001   N.ar      1 RES1   0.0000
    11 N6       9.8129  11.0796   0.9414   N.pl3     1 RES1   0.0000
    12 H5      10.2848  10.9791   0.1891   H         1 RES1   0.0000
    13 H6      10.1061  11.5395   1.6286   H         1 RES1   0.0000
    14 N7       4.8536   7.4786   0.2100   N.ar      1 RES1   0.0000
    15 N8       1.6528   5.8345   0.9351   N.pl3     1 RES1   0.0000
    16 H7       0.9850   6.1752   1.3659   H         1 RES1   0.0000
    17 H8       1.5048   5.6621   0.1156   H         1 RES1   0.0000
    18 N9       7.1582   6.0721  -0.3288   N.ar      1 RES1   0.0000
    19 N10      9.1027   4.9311   2.5291   N.pl3     1 RES1   0.0000
    20 H9       9.5023   4.2603   2.7213   H         1 RES1   0.0000
    21 H10      9.3126   5.7568   2.9630   H         1 RES1   0.0000
    22 N11      5.5712   6.2816  -2.3495   N.ar      1 RES1   0.0000
    23 N12      3.5209   5.8159  -5.3302   N.pl3     1 RES1   0.0000
    24 H11      3.2769   5.1460  -5.8419   H         1 RES1   0.0000
    25 H12      2.9731   6.5203  -5.2115   H         1 RES1   0.0000
    26 C1       8.8709   7.2781  -2.5816   C.ar      1 RES1   0.0000
    27 H13      9.0713   6.6104  -1.9375   H         1 RES1   0.0000
    28 C2       9.7964   7.5112  -3.6113   C.ar      1 RES1   0.0000
    29 C3       9.4781   8.5036  -4.5380   C.ar      1 RES1   0.0000
    30 H14     10.0708   8.6947  -5.2556   H         1 RES1   0.0000
    31 C4       8.3035   9.2034  -4.4077   C.ar      1 RES1   0.0000
    32 H15      8.0930   9.8889  -5.0308   H         1 RES1   0.0000
    33 C5       7.4162   8.9181  -3.3717   C.ar      1 RES1   0.0000
    34 C6       6.1405   9.5964  -3.1500   C.ar      1 RES1   0.0000
    35 C7       5.6256  10.6261  -3.9328   C.ar      1 RES1   0.0000
    36 H16      6.1027  10.9165  -4.7019   H         1 RES1   0.0000
    37 C8       4.4332  11.2273  -3.6060   C.ar      1 RES1   0.0000
    38 H17      4.0828  11.9243  -4.1482   H         1 RES1   0.0000
    39 C9       3.7384  10.8032  -2.4660   C.ar      1 RES1   0.0000
    40 C10      4.2919   9.7384  -1.7442   C.ar      1 RES1   0.0000
    41 H18      3.8216   9.4170  -0.9845   H         1 RES1   0.0000
    42 C11      8.1280   9.6122   0.0830   C.ar      1 RES1   0.0000
    43 H19      8.5926   9.5896  -0.7439   H         1 RES1   0.0000
    44 C12      8.6530  10.3957   1.1211   C.ar      1 RES1   0.0000
    45 C13      7.9262  10.4424   2.3147   C.ar      1 RES1   0.0000
    46 H20      8.2410  10.9547   3.0502   H         1 RES1   0.0000
    47 C14      6.7533   9.7395   2.4103   C.ar      1 RES1   0.0000
    48 H21      6.2466   9.7865   3.2131   H         1 RES1   0.0000
    49 C15      6.2908   8.9604   1.3575   C.ar      1 RES1   0.0000
    50 C16      5.0675   8.1701   1.3544   C.ar      1 RES1   0.0000
    51 C17      4.1434   8.1068   2.3956   C.ar      1 RES1   0.0000
    52 H22      4.3030   8.5878   3.1994   H         1 RES1   0.0000
    53 C18      3.0041   7.3546   2.2653   C.ar      1 RES1   0.0000
    54 H23      2.3744   7.3159   2.9756   H         1 RES1   0.0000
    55 C19      2.7722   6.6499   1.0927   C.ar      1 RES1   0.0000
    56 C20      3.7330   6.7432   0.0862   C.ar      1 RES1   0.0000
    57 H24      3.5912   6.2668  -0.7239   H         1 RES1   0.0000
    58 C21      7.8791   6.0530   0.8006   C.ar      1 RES1   0.0000
    59 H25      8.0093   6.8700   1.2672   H         1 RES1   0.0000
    60 C22      8.4504   4.8846   1.3291   C.ar      1 RES1   0.0000
    61 C23      8.2702   3.7152   0.5926   C.ar      1 RES1   0.0000
    62 H26      8.6654   2.9044   0.8900   H         1 RES1   0.0000
    63 C24      7.5298   3.7306  -0.5537   C.ar      1 RES1   0.0000
    64 H27      7.4039   2.9273  -1.0444   H         1 RES1   0.0000
    65 C25      6.9592   4.9176  -1.0097   C.ar      1 RES1   0.0000
    66 C26      6.1086   5.0495  -2.1918   C.ar      1 RES1   0.0000
    67 C27      5.8402   4.0394  -3.1154   C.ar      1 RES1   0.0000
    68 H28      6.2356   3.1823  -3.0092   H         1 RES1   0.0000
    69 C28      5.0039   4.2840  -4.1797   C.ar      1 RES1   0.0000
    70 H29      4.8452   3.6052  -4.8238   H         1 RES1   0.0000
    71 C29      4.3930   5.5241  -4.3121   C.ar      1 RES1   0.0000
    72 C30      4.7264   6.5024  -3.3717   C.ar      1 RES1   0.0000
    73 H30      4.3369   7.3647  -3.4589   H         1 RES1   0.0000
    74 C31     14.7567   5.5041  -8.5948   C.2       2 RES2   0.0000
    75 C32     14.4745   6.6235  -9.5751   C.ar      2 RES2   0.0000
    76 C33     13.1795   7.1059  -9.7401   C.ar      2 RES2   0.0000
    77 H31     12.4688   6.7463  -9.2210   H         2 RES2   0.0000
    78 C34     15.4916   7.1596 -10.3526   C.ar      2 RES2   0.0000
    79 H32     16.3785   6.8333 -10.2528   H         2 RES2   0.0000
    80 O1      15.7231   4.7436  -8.8513   O.co2     2 RES2   0.0000
    81 O2      14.0001   5.3775  -7.5952   O.co2     2 RES2  -1.0000
    82 C34B    12.9239   8.1104 -10.6615   C.ar      2 RES2   0.0000
    83 C32B    13.9410   8.6465 -11.4391   C.ar      2 RES2   0.0000
    84 C31B    13.6589   9.7659 -12.4194   C.2       2 RES2   0.0000
    85 O1B     12.6924  10.5264 -12.1629   O.co2     2 RES2   0.0000
    86 O2B     14.4155   9.8925 -13.4190   O.co2     2 RES2  -1.0000
    87 C33B    15.2361   8.1641 -11.2741   C.ar      2 RES2   0.0000
    88 H31B    15.9468   8.5237 -11.7932   H         2 RES2   0.0000
    89 H32B    12.0371   8.4367 -10.7614   H         2 RES2   0.0000
    90 C35      0.5586   6.8110  -2.4723   C.2       3 RES3   0.0000
    91 C36      0.6505   7.2349  -3.9191   C.ar      3 RES3   0.0000
    92 C37      0.1781   6.4146  -4.9383   C.ar      3 RES3   0.0000
    93 H33     -0.2208   5.5781  -4.7250   H         3 RES3   0.0000
    94 C38      1.2239   8.4602  -4.2459   C.ar      3 RES3   0.0000
    95 H34      1.5443   9.0292  -3.5567   H         3 RES3   0.0000
    96 O3       0.8441   7.6492  -1.6144   O.co2     3 RES3   0.0000
    97 O4       0.1780   5.6342  -2.2252   O.co2     3 RES3  -1.0000
    98 C38B     0.2844   6.8098  -6.2612   C.ar      3 RES3   0.0000
    99 C36B     0.8578   8.0351  -6.5879   C.ar      3 RES3   0.0000
   100 C35B     0.9497   8.4590  -8.0348   C.2       3 RES3   0.0000
   101 O3B      0.6642   7.6208  -8.8927   O.co2     3 RES3   0.0000
   102 O4B      1.3303   9.6358  -8.2819   O.co2     3 RES3  -1.0000
   103 C37B     1.3302   8.8554  -5.5688   C.ar      3 RES3   0.0000
   104 H33B     1.7291   9.6919  -5.7821   H         3 RES3   0.0000
   105 H34B    -0.0360   6.2408  -6.9504   H         3 RES3   0.0000
   106 O5       1.4905   9.7053   0.0315   O.3       4 RES4   0.0000
   107 H35      0.9037   9.6659   0.6935   H         4 RES4   0.0000
   108 H36      1.3257   9.0246  -0.4413   H         4 RES4   0.0000
   109 O6       2.3176   3.9053  -2.0363   O.3       5 RES5   0.0000
   110 H37      1.5629   4.3520  -2.1645   H         5 RES5   0.0000
   111 H38      2.3997   3.5274  -2.7213   H         5 RES5   0.0000
   112 O7      12.6914   2.9578  -7.0177   O.3       6 RES6   0.0000
   113 H39     13.2934   3.5717  -7.3749   H         6 RES6   0.0000
   114 H40     13.0123   2.5959  -6.4608   H         6 RES6   0.0000
   115 O8      12.0410   7.1134  -6.5333   O.3       7 RES7   0.0000
   116 H41     12.7776   6.6272  -6.5774   H         7 RES7   0.0000
   117 H42     12.2814   7.9557  -6.4829   H         7 RES7   0.0000
   118 O9      14.2290   5.5491  -4.5244   O.3       8 RES8   0.0000
   119 H43     13.7767   5.4590  -5.3628   H         8 RES8   0.0000
   120 H44     14.0955   5.0299  -4.0095   H         8 RES8   0.0000
@<TRIPOS>BOND
     1     1     2    1
     2     2    26   ar
     3     3     4    1
     4     5     3    1
     5     6     1    1
     6     7     8    1
     7     9     7    1
     8    10     1    1
     9    11    12    1
    10    13    11    1
    11    14     1    1
    12    15    16    1
    13    17    15    1
    14    18     1    1
    15    19    20    1
    16    21    19    1
    17    22     1    1
    18    23    24    1
    19    25    23    1
    20    26    27    1
    21    28     3    1
    22    29    28   ar
    23    30    29    1
    24    31    29   ar
    25    32    31    1
    26    33     2   ar
    27    34     6   ar
    28    35    34   ar
    29    36    35    1
    30    37    35   ar
    31    38    37    1
    32    39     7    1
    33    40     6   ar
    34    41    40    1
    35    42    10   ar
    36    43    42    1
    37    44    11    1
    38    45    44   ar
    39    46    45    1
    40    47    45   ar
    41    48    47    1
    42    49    10   ar
    43    50    14   ar
    44    51    50   ar
    45    52    51    1
    46    53    51   ar
    47    54    53    1
    48    55    15    1
    49    56    14   ar
    50    57    56    1
    51    58    18   ar
    52    59    58    1
    53    60    19    1
    54    61    60   ar
    55    62    61    1
    56    63    61   ar
    57    64    63    1
    58    65    18   ar
    59    66    22   ar
    60    67    66   ar
    61    68    67    1
    62    69    67   ar
    63    70    69    1
    64    71    23    1
    65    72    22   ar
    66    73    72    1
    67    26    28   ar
    68    31    33   ar
    69    33    34    1
    70    37    39   ar
    71    39    40   ar
    72    42    44   ar
    73    47    49   ar
    74    49    50    1
    75    53    55   ar
    76    55    56   ar
    77    58    60   ar
    78    63    65   ar
    79    65    66    1
    80    69    71   ar
    81    71    72   ar
    82    74    75    1
    83    75    76   ar
    84    76    77    1
    85    78    75   ar
    86    79    78    1
    87    80    74    2
    88    81    74    1
    89    82    76   ar
    90    83    82   ar
    91    84    83    1
    92    85    84    2
    93    86    84    1
    94    87    78   ar
    95    88    87    1
    96    89    82    1
    97    83    87   ar
    98    90    91    1
    99    91    92   ar
   100    92    93    1
   101    94    91   ar
   102    95    94    1
   103    96    90    2
   104    97    90    1
   105    98    92   ar
   106    99    98   ar
   107   100    99    1
   108   101   100    2
   109   102   100    1
   110   103    94   ar
   111   104   103    1
   112   105    98    1
   113    99   103   ar
   114   106   107    1
   115   108   106    1
   116   109   110    1
   117   111   109    1
   118   112   113    1
   119   114   112    1
   120   115   116    1
   121   117   115    1
   122   118   119    1
   123   120   118    1
@<TRIPOS>SUBSTRUCTURE
     1 RES1        1 GROUP             0 ****  ****    0  
     2 RES2       74 GROUP             0 ****  ****    0  
     3 RES3       90 GROUP             0 ****  ****    0  
     4 RES4      106 GROUP             0 ****  ****    0  
     5 RES5      109 GROUP             0 ****  ****    0  
     6 RES6      112 GROUP             0 ****  ****    0  
     7 RES7      115 GROUP             0 ****  ****    0  
     8 RES8      118 GROUP             0 ****  ****    0  
@<TRIPOS>CRYSIN
   25.3990   15.2700   10.6148   90.0000   98.1690   90.0000    14     1
