@<TRIPOS>MOLECULE
MALGIQ
   117   121     3     0     0
SMALL
USER_CHARGES
****
Generated from the CSD

@<TRIPOS>ATOM
     1 Fe1     -0.3882   6.9582  21.7066   Fe        1 RES1   1.0000
     2 P1       0.8204   8.6749  20.8371   P.3       1 RES1   0.0000
     3 P2      -1.8389   7.0827  20.0446   P.3       1 RES1   0.0000
     4 P3       1.0381   6.9192  23.4021   P.3       1 RES1   0.0000
     5 C1       0.6291   5.7144  20.8261   C.1       1 RES1   0.0000
     6 O1       1.1975   4.9048  20.3956   O.2       1 RES1   0.0000
     7 C2      -1.5295   7.8655  22.7433   C.1       1 RES1   0.0000
     8 O2      -2.2862   8.3385  23.4439   O.2       1 RES1   0.0000
     9 O3      -2.9304   8.1986  20.3729   O.3       1 RES1   0.0000
    10 O4      -2.7918   5.8190  19.7630   O.3       1 RES1   0.0000
    11 O5       1.0556   5.6928  24.4164   O.3       1 RES1   0.0000
    12 O6       0.7791   8.1952  24.3470   O.3       1 RES1   0.0000
    13 C3      -1.4096   5.2675  22.4334   C.3       1 RES1   0.0000
    14 H1      -2.1980   5.5552  22.9399   H         1 RES1   0.0000
    15 H2      -0.8158   4.7525  23.0185   H         1 RES1   0.0000
    16 H3      -1.6931   4.7082  21.6793   H         1 RES1   0.0000
    17 C4       0.5492  10.3077  21.6364   C.3       1 RES1   0.0000
    18 H4       0.6471  10.1690  22.6208   H         1 RES1   0.0000
    19 C5       1.5816  11.3855  21.2299   C.3       1 RES1   0.0000
    20 H5       2.4957  11.0558  21.4209   H         1 RES1   0.0000
    21 H6       1.5162  11.5561  20.2547   H         1 RES1   0.0000
    22 C6       1.3404  12.6953  21.9961   C.3       1 RES1   0.0000
    23 H7       1.5312  12.5543  22.9556   H         1 RES1   0.0000
    24 H8       1.9592  13.3923  21.6591   H         1 RES1   0.0000
    25 C7      -0.0759  13.1694  21.8344   C.3       1 RES1   0.0000
    26 H9      -0.2262  13.4252  20.8906   H         1 RES1   0.0000
    27 H10     -0.2114  13.9766  22.3916   H         1 RES1   0.0000
    28 C8      -1.0999  12.1120  22.2321   C.3       1 RES1   0.0000
    29 H11     -2.0162  12.4497  22.0680   H         1 RES1   0.0000
    30 H12     -1.0132  11.9062  23.1960   H         1 RES1   0.0000
    31 C9      -0.8530  10.8443  21.4031   C.3       1 RES1   0.0000
    32 H13     -1.5161  10.1531  21.6523   H         1 RES1   0.0000
    33 H14     -0.9703  11.0513  20.4412   H         1 RES1   0.0000
    34 C10      0.7645   8.9376  19.0222   C.3       1 RES1   0.0000
    35 H15      1.1665   9.8222  18.8346   H         1 RES1   0.0000
    36 H16      1.3487   8.2566  18.6031   H         1 RES1   0.0000
    37 C11     -0.5812   8.8853  18.3171   C.3       1 RES1   0.0000
    38 H17     -0.4575   9.1343  17.3673   H         1 RES1   0.0000
    39 H18     -1.1878   9.5505  18.7290   H         1 RES1   0.0000
    40 C12     -1.2296   7.5028  18.3919   C.3       1 RES1   0.0000
    41 H19     -0.5669   6.8218  18.1110   H         1 RES1   0.0000
    42 H20     -1.9848   7.4676  17.7538   H         1 RES1   0.0000
    43 C13     -3.9955   8.5568  19.4491   C.3       1 RES1   0.0000
    44 H21     -3.6850   9.2719  18.8548   H         1 RES1   0.0000
    45 H22     -4.7746   8.8660  19.9536   H         1 RES1   0.0000
    46 H23     -4.2418   7.7734  18.9155   H         1 RES1   0.0000
    47 C14     -2.3168   4.6354  19.1130   C.3       1 RES1   0.0000
    48 H24     -2.0073   4.8605  18.2099   H         1 RES1   0.0000
    49 H25     -3.0435   3.9805  19.0548   H         1 RES1   0.0000
    50 H26     -1.5752   4.2556  19.6278   H         1 RES1   0.0000
    51 C15      2.6313   8.3987  20.9266   C.3       1 RES1   0.0000
    52 H27      2.8439   7.5881  20.4007   H         1 RES1   0.0000
    53 H28      3.0782   9.1616  20.4816   H         1 RES1   0.0000
    54 C16      3.2462   8.2350  22.3112   C.3       1 RES1   0.0000
    55 H29      2.9914   9.0138  22.8680   H         1 RES1   0.0000
    56 H30      4.2315   8.2373  22.2253   H         1 RES1   0.0000
    57 C17      2.8141   6.9480  23.0334   C.3       1 RES1   0.0000
    58 H31      3.3209   6.8661  23.8791   H         1 RES1   0.0000
    59 H32      3.0395   6.1680  22.4680   H         1 RES1   0.0000
    60 C18      0.0404   5.5609  25.4476   C.3       1 RES1   0.0000
    61 H33     -0.8217   5.8701  25.0970   H         1 RES1   0.0000
    62 H34      0.2905   6.1021  26.2228   H         1 RES1   0.0000
    63 H35     -0.0343   4.6206  25.7127   H         1 RES1   0.0000
    64 C19      1.6030   8.4863  25.5130   C.3       1 RES1   0.0000
    65 H36      1.8442   7.6483  25.9599   H         1 RES1   0.0000
    66 H37      1.1014   9.0559  26.1329   H         1 RES1   0.0000
    67 H38      2.4174   8.9513  25.2296   H         1 RES1   0.0000
    68 B1     -12.3398   6.7717  18.0077   B         2 RES2  -1.0000
    69 C20    -12.2615   5.3892  18.8955   C.ar      2 RES2   0.0000
    70 C21    -12.8745   5.3073  20.1563   C.ar      2 RES2   0.0000
    71 H39    -13.2171   6.1032  20.5468   H         2 RES2   0.0000
    72 C22    -13.0051   4.1101  20.8648   C.ar      2 RES2   0.0000
    73 H40    -13.4314   4.1010  21.7130   H         2 RES2   0.0000
    74 C23    -12.5096   2.9413  20.3228   C.ar      2 RES2   0.0000
    75 H41    -12.6136   2.1193  20.7872   H         2 RES2   0.0000
    76 C24    -11.8601   2.9709  19.1029   C.ar      2 RES2   0.0000
    77 H42    -11.4995   2.1727  18.7335   H         2 RES2   0.0000
    78 C25    -11.7375   4.1772  18.4189   C.ar      2 RES2   0.0000
    79 H43    -11.2757   4.1806  17.5875   H         2 RES2   0.0000
    80 C26    -13.7963   6.8309  17.2682   C.ar      2 RES2   0.0000
    81 C27    -14.8119   5.8940  17.4974   C.ar      2 RES2   0.0000
    82 H44    -14.6494   5.1902  18.1155   H         2 RES2   0.0000
    83 C28    -16.0556   5.9463  16.8552   C.ar      2 RES2   0.0000
    84 H45    -16.7023   5.2732  17.0280   H         2 RES2   0.0000
    85 C29    -16.3500   6.9650  15.9750   C.ar      2 RES2   0.0000
    86 H46    -17.2017   7.0162  15.5584   H         2 RES2   0.0000
    87 C30    -15.3750   7.9121  15.7119   C.ar      2 RES2   0.0000
    88 H47    -15.5538   8.6204  15.1045   H         2 RES2   0.0000
    89 C31    -14.1409   7.8325  16.3305   C.ar      2 RES2   0.0000
    90 H48    -13.4876   8.4863  16.1134   H         2 RES2   0.0000
    91 C32    -11.1124   6.7297  16.8702   C.ar      2 RES2   0.0000
    92 C33    -11.3123   6.6285  15.4973   C.ar      2 RES2   0.0000
    93 H49    -12.2059   6.5887  15.1764   H         2 RES2   0.0000
    94 C34    -10.2760   6.5830  14.5639   C.ar      2 RES2   0.0000
    95 H50    -10.4677   6.5296  13.6350   H         2 RES2   0.0000
    96 C35     -8.9561   6.6160  15.0054   C.ar      2 RES2   0.0000
    97 H51     -8.2368   6.5875  14.3855   H         2 RES2   0.0000
    98 C36     -8.7132   6.6899  16.3509   C.ar      2 RES2   0.0000
    99 H52     -7.8170   6.7081  16.6639   H         2 RES2   0.0000
   100 C37     -9.7624   6.7399  17.2697   C.ar      2 RES2   0.0000
   101 H53     -9.5593   6.7808  18.1964   H         2 RES2   0.0000
   102 C38    -12.0717   8.0861  18.9703   C.ar      2 RES2   0.0000
   103 C39    -11.1879   8.0133  20.0608   C.ar      2 RES2   0.0000
   104 H54    -10.7593   7.1867  20.2524   H         2 RES2   0.0000
   105 C40    -10.9158   9.1321  20.8796   C.ar      2 RES2   0.0000
   106 H55    -10.3189   9.0457  21.6141   H         2 RES2   0.0000
   107 C41    -11.5027  10.3316  20.6237   C.ar      2 RES2   0.0000
   108 H56    -11.3159  11.0842  21.1737   H         2 RES2   0.0000
   109 C42    -12.3681  10.4475  19.5669   C.ar      2 RES2   0.0000
   110 H57    -12.7793  11.2821  19.3784   H         2 RES2   0.0000
   111 C43    -12.6423   9.3447  18.7719   C.ar      2 RES2   0.0000
   112 H58    -13.2535   9.4515  18.0526   H         2 RES2   0.0000
   113 Cl1     -4.5818   5.9663  16.5633   Cl        3 RES3   0.0000
   114 Cl2     -6.2712   4.0584  15.2162   Cl        3 RES3   0.0000
   115 C44     -4.7056   4.3364  15.8932   C.3       3 RES3   0.0000
   116 H59     -4.0172   4.2158  15.1921   H         3 RES3   0.0000
   117 H60     -4.5341   3.6724  16.6078   H         3 RES3   0.0000
@<TRIPOS>BOND
     1     1     2    1
     2     2    17    1
     3     3     1    1
     4     4     1    1
     5     5     1    1
     6     6     5    3
     7     7     1    1
     8     8     7    3
     9     9     3    1
    10    10     3    1
    11    11     4    1
    12    12     4    1
    13    13     1    1
    14    14    13    1
    15    15    13    1
    16    16    13    1
    17    17    18    1
    18    19    17    1
    19    20    19    1
    20    21    19    1
    21    22    19    1
    22    23    22    1
    23    24    22    1
    24    25    22    1
    25    26    25    1
    26    27    25    1
    27    28    25    1
    28    29    28    1
    29    30    28    1
    30    31    17    1
    31    32    31    1
    32    33    31    1
    33    34     2    1
    34    35    34    1
    35    36    34    1
    36    37    34    1
    37    38    37    1
    38    39    37    1
    39    40     3    1
    40    41    40    1
    41    42    40    1
    42    43     9    1
    43    44    43    1
    44    45    43    1
    45    46    43    1
    46    47    10    1
    47    48    47    1
    48    49    47    1
    49    50    47    1
    50    51     2    1
    51    52    51    1
    52    53    51    1
    53    54    51    1
    54    55    54    1
    55    56    54    1
    56    57     4    1
    57    58    57    1
    58    59    57    1
    59    60    11    1
    60    61    60    1
    61    62    60    1
    62    63    60    1
    63    64    12    1
    64    65    64    1
    65    66    64    1
    66    67    64    1
    67    28    31    1
    68    37    40    1
    69    54    57    1
    70    68    69    1
    71    69    70   ar
    72    70    71    1
    73    72    70   ar
    74    73    72    1
    75    74    72   ar
    76    75    74    1
    77    76    74   ar
    78    77    76    1
    79    78    69   ar
    80    79    78    1
    81    80    68    1
    82    81    80   ar
    83    82    81    1
    84    83    81   ar
    85    84    83    1
    86    85    83   ar
    87    86    85    1
    88    87    85   ar
    89    88    87    1
    90    89    80   ar
    91    90    89    1
    92    91    68    1
    93    92    91   ar
    94    93    92    1
    95    94    92   ar
    96    95    94    1
    97    96    94   ar
    98    97    96    1
    99    98    96   ar
   100    99    98    1
   101   100    91   ar
   102   101   100    1
   103   102    68    1
   104   103   102   ar
   105   104   103    1
   106   105   103   ar
   107   106   105    1
   108   107   105   ar
   109   108   107    1
   110   109   107   ar
   111   110   109    1
   112   111   102   ar
   113   112   111    1
   114    76    78   ar
   115    87    89   ar
   116    98   100   ar
   117   109   111   ar
   118   113   115    1
   119   114   115    1
   120   115   116    1
   121   117   115    1
@<TRIPOS>SUBSTRUCTURE
     1 RES1        1 GROUP             0 ****  ****    0  
     2 RES2       68 GROUP             0 ****  ****    0  
     3 RES3      113 GROUP             0 ****  ****    0  
@<TRIPOS>CRYSIN
   17.8454   11.3696   22.7120   90.0000   98.3670   90.0000   231     1
