@<TRIPOS>MOLECULE
MAMJUF
   126   131     6     0     0
SMALL
USER_CHARGES
****
Generated from the CSD

@<TRIPOS>ATOM
     1 Fe1      9.4661   3.3641  15.7488   Fe        1 RES1   2.0000
     2 N1       7.9875   2.7418  16.8556   N.ar      1 RES1   0.0000
     3 N2       8.3544   2.6359  14.3304   N.ar      1 RES1   0.0000
     4 N3       8.6701   5.1635  15.5295   N.ar      1 RES1   0.0000
     5 N4      10.3547   4.2676  17.2506   N.ar      1 RES1   0.0000
     6 N5      10.4769   1.6972  15.9604   N.ar      1 RES1   0.0000
     7 N6      10.9392   3.7863  14.5708   N.ar      1 RES1   0.0000
     8 N7       7.6798   3.8543  10.1808   N.3       1 RES1   0.0000
     9 H1       7.2354   4.4654  10.7692   H         1 RES1   0.0000
    10 N8       7.6035   7.3723  12.0208   N.4       1 RES1   1.0000
    11 H2       8.0969   6.5583  11.8992   H         1 RES1   0.0000
    12 H3       8.2320   8.0665  12.2280   H         1 RES1   0.0000
    13 N9      11.0888   5.9296  10.8714   N.3       1 RES1   0.0000
    14 H4      10.5671   5.1257  10.8162   H         1 RES1   0.0000
    15 N10      8.6059   6.4751   9.4901   N.3       1 RES1   0.0000
    16 C1       7.8756   2.8174  18.2093   C.ar      1 RES1   0.0000
    17 H5       8.5676   3.2672  18.7011   H         1 RES1   0.0000
    18 C2       6.8434   2.2919  18.8973   C.ar      1 RES1   0.0000
    19 H6       6.8461   2.3033  19.8559   H         1 RES1   0.0000
    20 C3       5.8085   1.7527  18.2259   C.ar      1 RES1   0.0000
    21 H7       5.0268   1.4540  18.6983   H         1 RES1   0.0000
    22 C4       5.8838   1.6355  16.8556   C.ar      1 RES1   0.0000
    23 H8       5.2019   1.1693  16.3666   H         1 RES1   0.0000
    24 C5       6.9419   2.1886  16.2063   C.ar      1 RES1   0.0000
    25 C6       7.1628   2.1533  14.7227   C.ar      1 RES1   0.0000
    26 C7       6.1575   1.7892  13.8690   C.ar      1 RES1   0.0000
    27 H9       5.3023   1.4893  14.1868   H         1 RES1   0.0000
    28 C8       6.4534   1.8812  12.4987   C.ar      1 RES1   0.0000
    29 H10      5.7827   1.6241  11.8605   H         1 RES1   0.0000
    30 C9       7.6704   2.3260  12.0456   C.ar      1 RES1   0.0000
    31 C10      8.5857   2.6384  13.0126   C.ar      1 RES1   0.0000
    32 H11      9.4672   2.8804  12.7197   H         1 RES1   0.0000
    33 C11      7.8814   5.5591  14.5487   C.ar      1 RES1   0.0000
    34 H12      7.5458   4.8976  13.9381   H         1 RES1   0.0000
    35 C12      7.5102   6.8960  14.3470   C.ar      1 RES1   0.0000
    36 C13      7.8758   7.7881  15.2559   C.ar      1 RES1   0.0000
    37 H13      7.5854   8.6990  15.1786   H         1 RES1   0.0000
    38 C14      8.6769   7.4063  16.3058   C.ar      1 RES1   0.0000
    39 H14      8.9528   8.0564  16.9550   H         1 RES1   0.0000
    40 C15      9.0841   6.0921  16.4356   C.ar      1 RES1   0.0000
    41 C16     10.0131   5.5894  17.4219   C.ar      1 RES1   0.0000
    42 C17     10.4705   6.3151  18.5243   C.ar      1 RES1   0.0000
    43 H15     10.1761   7.2185  18.6597   H         1 RES1   0.0000
    44 C18     11.3256   5.7443  19.4001   C.ar      1 RES1   0.0000
    45 H16     11.6605   6.2408  20.1488   H         1 RES1   0.0000
    46 C19     11.7099   4.4402  19.1929   C.ar      1 RES1   0.0000
    47 H17     12.3098   4.0144  19.8117   H         1 RES1   0.0000
    48 C20     11.2388   3.7460  18.1126   C.ar      1 RES1   0.0000
    49 H18     11.5546   2.8514  17.9634   H         1 RES1   0.0000
    50 C21     10.1295   0.5922  16.6649   C.ar      1 RES1   0.0000
    51 H19      9.2453   0.5594  17.0379   H         1 RES1   0.0000
    52 C22     10.9328  -0.4574  16.8777   C.ar      1 RES1   0.0000
    53 H20     10.6417  -1.2121  17.3915   H         1 RES1   0.0000
    54 C23     12.1332  -0.4145  16.3528   C.ar      1 RES1   0.0000
    55 H21     12.7344  -1.1428  16.5213   H         1 RES1   0.0000
    56 C24     12.5688   0.6363  15.5681   C.ar      1 RES1   0.0000
    57 H22     13.4453   0.6350  15.1758   H         1 RES1   0.0000
    58 C25     11.6930   1.6947  15.3692   C.ar      1 RES1   0.0000
    59 C26     13.0412   2.9963  13.6977   C.ar      1 RES1   0.0000
    60 H23     13.7423   2.3398  13.7060   H         1 RES1   0.0000
    61 C27     13.1130   4.0950  12.8662   C.ar      1 RES1   0.0000
    62 H24     13.8799   4.2122  12.2998   H         1 RES1   0.0000
    63 C28     11.9293   2.8640  14.5210   C.ar      1 RES1   0.0000
    64 C29     12.0933   5.0299  12.8413   C.ar      1 RES1   0.0000
    65 C30     11.0633   4.8611  13.7198   C.ar      1 RES1   0.0000
    66 H25     10.3811   5.5364  13.7475   H         1 RES1   0.0000
    67 C31      8.0493   2.5036  10.5593   C.3       1 RES1   0.0000
    68 H26      8.9909   2.3701  10.4405   H         1 RES1   0.0000
    69 H27      7.5791   1.8661  10.0178   H         1 RES1   0.0000
    70 C32      8.0492   4.1857   8.8215   C.3       1 RES1   0.0000
    71 H28      7.5539   3.6414   8.2054   H         1 RES1   0.0000
    72 H29      8.9843   4.0156   8.6861   H         1 RES1   0.0000
    73 C33      7.7558   5.6360   8.5701   C.3       1 RES1   0.0000
    74 H30      6.8257   5.8136   8.7331   H         1 RES1   0.0000
    75 H31      7.9492   5.8565   7.6556   H         1 RES1   0.0000
    76 C34      6.7206   7.2110  13.1148   C.3       1 RES1   0.0000
    77 H32      6.1035   6.4991  12.9325   H         1 RES1   0.0000
    78 H33      6.2166   8.0186  13.2474   H         1 RES1   0.0000
    79 C35      6.9312   7.7087  10.7665   C.3       1 RES1   0.0000
    80 H34      6.4643   8.5415  10.8604   H         1 RES1   0.0000
    81 H35      6.2889   7.0283  10.5510   H         1 RES1   0.0000
    82 C36      7.9556   7.8170   9.6586   C.3       1 RES1   0.0000
    83 H36      7.5287   8.0816   8.8408   H         1 RES1   0.0000
    84 H37      8.6143   8.4773   9.8851   H         1 RES1   0.0000
    85 C37     12.0549   6.1916  11.8909   C.3       1 RES1   0.0000
    86 H38     11.8209   6.9943  12.3633   H         1 RES1   0.0000
    87 H39     12.9202   6.3176  11.4931   H         1 RES1   0.0000
    88 C38     10.9920   7.0220   9.9404   C.3       1 RES1   0.0000
    89 H40     11.8418   7.1631   9.5149   H         1 RES1   0.0000
    90 H41     10.7532   7.8271  10.4045   H         1 RES1   0.0000
    91 C39      9.9310   6.6982   8.8823   C.3       1 RES1   0.0000
    92 H42      9.8754   7.4239   8.2551   H         1 RES1   0.0000
    93 H43     10.1951   5.9119   8.3988   H         1 RES1   0.0000
    94 P1      12.6198   3.1122   8.1728   P.3       2 RES2  -1.0000
    95 F1      12.8600   1.5964   8.1004   F         2 RES2   0.0000
    96 F2      13.5220   3.3806   7.0285   F         2 RES2   0.0000
    97 F3      11.4139   2.9119   7.2743   F         2 RES2   0.0000
    98 F4      11.6467   2.9093   9.3713   F         2 RES2   0.0000
    99 F5      12.3248   4.6519   8.2717   F         2 RES2   0.0000
   100 F6      13.7376   3.2873   9.1502   F         2 RES2   0.0000
   101 P2      18.9602   2.3549   8.7950   P.3       3 RES3  -1.0000
   102 F7      20.3119   1.5674   8.8381   F         3 RES3   0.0000
   103 F8      19.4827   3.3075   9.8520   F         3 RES3   0.0000
   104 F9      17.6412   3.1324   8.7745   F         3 RES3   0.0000
   105 F10     18.5601   1.6544   7.5368   F         3 RES3   0.0000
   106 F11     19.6762   3.2987   7.8158   F         3 RES3   0.0000
   107 F12     18.3718   1.3961   9.6807   F         3 RES3   0.0000
   108 P3      16.8240   1.4692  14.7877   P.3       4 RES4  -1.0000
   109 F13     17.6712   0.5758  13.7530   F         4 RES4   0.0000
   110 F14     16.0328   2.3045  15.7781   F         4 RES4   0.0000
   111 F15     18.0187   2.4368  14.6316   F         4 RES4   0.0000
   112 F16     17.5735   0.7094  15.8831   F         4 RES4   0.0000
   113 F17     16.1444   2.2252  13.6453   F         4 RES4   0.0000
   114 F18     15.7782   0.4649  14.7669   F         4 RES4   0.0000
   115 C40      9.4496   4.9153   5.1774   C.1       5 RES5   0.0000
   116 C41     10.5422   5.8540   5.0420   C.3       5 RES5   0.0000
   117 H44     10.2659   6.7145   5.3625   H         5 RES5   0.0000
   118 H45     10.7898   5.9233   4.1165   H         5 RES5   0.0000
   119 H46     11.2944   5.5465   5.5531   H         5 RES5   0.0000
   120 N11      8.6035   4.1958   5.3100   N.1       5 RES5   0.0000
   121 C42      1.1073   0.1827   5.8322   C.1       6 RES6   0.0000
   122 C43      0.8852  -0.1046   7.2826   C.3       6 RES6   0.0000
   123 H47      1.6883   0.0869   7.7744   H         6 RES6   0.0000
   124 H48      0.6541  -1.0294   7.3959   H         6 RES6   0.0000
   125 H49      0.1710   0.4460   7.6114   H         6 RES6   0.0000
   126 N12      1.2598   0.6363   4.9619   N.1       6 RES6   0.0000
@<TRIPOS>BOND
     1     1     2    1
     2     2    16   ar
     3     3     1    1
     4     4     1    1
     5     5     1    1
     6     6     1    1
     7     7     1    1
     8     8     9    1
     9    10    11    1
    10    12    10    1
    11    13    14    1
    12    15    73    1
    13    16    17    1
    14    18    16   ar
    15    19    18    1
    16    20    18   ar
    17    21    20    1
    18    22    20   ar
    19    23    22    1
    20    24     2   ar
    21    25     3   ar
    22    26    25   ar
    23    27    26    1
    24    28    26   ar
    25    29    28    1
    26    30    28   ar
    27    31     3   ar
    28    32    31    1
    29    33     4   ar
    30    34    33    1
    31    35    33   ar
    32    36    35   ar
    33    37    36    1
    34    38    36   ar
    35    39    38    1
    36    40     4   ar
    37    41     5   ar
    38    42    41   ar
    39    43    42    1
    40    44    42   ar
    41    45    44    1
    42    46    44   ar
    43    47    46    1
    44    48     5   ar
    45    49    48    1
    46    50     6   ar
    47    51    50    1
    48    52    50   ar
    49    53    52    1
    50    54    52   ar
    51    55    54    1
    52    56    54   ar
    53    57    56    1
    54    58     6   ar
    55    59    60    1
    56    61    59   ar
    57    62    61    1
    58    63     7   ar
    59    64    61   ar
    60    65     7   ar
    61    66    65    1
    62    67     8    1
    63    68    67    1
    64    69    67    1
    65    70     8    1
    66    71    70    1
    67    72    70    1
    68    73    70    1
    69    74    73    1
    70    75    73    1
    71    76    10    1
    72    77    76    1
    73    78    76    1
    74    79    10    1
    75    80    79    1
    76    81    79    1
    77    82    15    1
    78    83    82    1
    79    84    82    1
    80    85    13    1
    81    86    85    1
    82    87    85    1
    83    88    13    1
    84    89    88    1
    85    90    88    1
    86    91    15    1
    87    92    91    1
    88    93    91    1
    89    22    24   ar
    90    24    25    1
    91    30    67    1
    92    30    31   ar
    93    35    76    1
    94    38    40   ar
    95    40    41    1
    96    46    48   ar
    97    56    58   ar
    98    58    63    1
    99    59    63   ar
   100    64    65   ar
   101    64    85    1
   102    79    82    1
   103    88    91    1
   104    94    95    1
   105    96    94    1
   106    97    94    1
   107    98    94    1
   108    99    94    1
   109   100    94    1
   110   101   102    1
   111   103   101    1
   112   104   101    1
   113   105   101    1
   114   106   101    1
   115   107   101    1
   116   108   109    1
   117   110   108    1
   118   111   108    1
   119   112   108    1
   120   113   108    1
   121   114   108    1
   122   115   116    1
   123   116   117    1
   124   118   116    1
   125   119   116    1
   126   120   115    3
   127   121   122    1
   128   122   123    1
   129   124   122    1
   130   125   122    1
   131   126   121    3
@<TRIPOS>SUBSTRUCTURE
     1 RES1        1 GROUP             0 ****  ****    0  
     2 RES2       94 GROUP             0 ****  ****    0  
     3 RES3      101 GROUP             0 ****  ****    0  
     4 RES4      108 GROUP             0 ****  ****    0  
     5 RES5      115 GROUP             0 ****  ****    0  
     6 RES6      121 GROUP             0 ****  ****    0  
@<TRIPOS>CRYSIN
   15.0050   12.6000   27.9200   90.0000   98.3000   90.0000   231     1
