@<TRIPOS>MOLECULE
MAPMIZ
   108   115     3     0     0
SMALL
USER_CHARGES
****
Generated from the CSD

@<TRIPOS>ATOM
     1 Fe1     -0.0754   0.3869  11.4238   Fe        1 RES1   0.0000
     2 O1      -0.9325   1.3429   7.5995   O.2       1 RES1   0.0000
     3 O2       0.7462  -3.4484  12.4675   O.2       1 RES1   0.0000
     4 O3       3.2758   2.4756  12.3099   O.2       1 RES1   0.0000
     5 O4      -3.5417   1.1579  13.3845   O.2       1 RES1   0.0000
     6 N1      -0.6025   6.0908   9.1748   N.ar      1 RES1   0.0000
     7 N2      -0.6477   1.4523   9.8991   N.am      1 RES1   0.0000
     8 N3       0.0129  -0.9392  10.1003   N.ar      1 RES1   0.0000
     9 N4       0.4027  -1.1481  12.5575   N.am      1 RES1  -1.0000
    10 N5      -0.2068  -3.1484  16.3424   N.ar      1 RES1   0.0000
    11 N6       5.1168   1.3597   8.1002   N.ar      1 RES1   0.0000
    12 N7       1.7972   0.9728  11.3338   N.am      1 RES1   0.0000
    13 N8      -0.1142   1.6976  12.7656   N.ar      1 RES1   0.0000
    14 N9      -1.9514   0.1822  11.9935   N.am      1 RES1   0.0000
    15 N10     -5.5183  -2.0999  10.1397   N.ar      1 RES1   0.0000
    16 C1      -0.4790   5.5904  11.5082   C.ar      1 RES1   0.0000
    17 C2      -0.7760   6.8983  11.8289   C.ar      1 RES1   0.0000
    18 C3      -1.0042   7.7954  10.8148   C.ar      1 RES1   0.0000
    19 C4      -0.9249   7.3524   9.5123   C.ar      1 RES1   0.0000
    20 C5      -0.3559   5.2273  10.1692   C.ar      1 RES1   0.0000
    21 C6       0.0377   3.8255   9.7908   C.3       1 RES1   0.0000
    22 C7      -1.1151   2.8344   9.9427   C.3       1 RES1   0.0000
    23 C8      -0.6365   0.8495   8.7008   C.2       1 RES1   0.0000
    24 C9      -0.2442  -0.5986   8.8274   C.ar      1 RES1   0.0000
    25 C10     -0.1885  -1.5546   7.8273   C.ar      1 RES1   0.0000
    26 C11      0.1538  -2.8569   8.1593   C.ar      1 RES1   0.0000
    27 C12      0.4370  -3.1849   9.4927   C.ar      1 RES1   0.0000
    28 C13      0.3473  -2.1924  10.4533   C.ar      1 RES1   0.0000
    29 C14      0.5284  -2.3284  11.9456   C.2       1 RES1   0.0000
    30 C15      0.5219  -1.1677  14.0104   C.3       1 RES1   0.0000
    31 C16     -0.8209  -1.5139  14.6912   C.3       1 RES1   0.0000
    32 C17     -0.6285  -1.8924  16.1301   C.ar      1 RES1   0.0000
    33 C18     -0.0390  -3.5311  17.6168   C.ar      1 RES1   0.0000
    34 C19     -0.2717  -2.7251  18.7054   C.ar      1 RES1   0.0000
    35 C20     -0.6833  -1.4228  18.4776   C.ar      1 RES1   0.0000
    36 C21     -0.8504  -0.9995  17.1681   C.ar      1 RES1   0.0000
    37 C22      3.7029  -0.4668   7.4996   C.ar      1 RES1   0.0000
    38 C23      4.7036  -1.0177   6.7246   C.ar      1 RES1   0.0000
    39 C24      5.9231  -0.3715   6.6472   C.ar      1 RES1   0.0000
    40 C25      6.0732   0.7990   7.3393   C.ar      1 RES1   0.0000
    41 C26      3.9460   0.7177   8.1874   C.ar      1 RES1   0.0000
    42 C27      2.9120   1.2967   9.1270   C.3       1 RES1   0.0000
    43 C28      2.8394   0.4850  10.4280   C.3       1 RES1   0.0000
    44 C29      2.1628   1.9177  12.2087   C.2       1 RES1   0.0000
    45 C30      1.0349   2.2877  13.1201   C.ar      1 RES1   0.0000
    46 C31      1.0846   3.1050  14.2256   C.ar      1 RES1   0.0000
    47 C32     -0.0941   3.3391  14.9444   C.ar      1 RES1   0.0000
    48 C33     -1.2895   2.7461  14.5280   C.ar      1 RES1   0.0000
    49 C34     -1.2707   1.9064  13.4295   C.ar      1 RES1   0.0000
    50 C35     -2.3868   1.0570  12.9063   C.2       1 RES1   0.0000
    51 C36     -2.8510  -0.8817  11.5968   C.3       1 RES1   0.0000
    52 C37     -3.6045  -0.6210  10.2859   C.3       1 RES1   0.0000
    53 C38     -4.2514  -1.8742   9.7655   C.ar      1 RES1   0.0000
    54 C39     -6.1018  -3.2185   9.6685   C.ar      1 RES1   0.0000
    55 C40     -5.4923  -4.1367   8.8667   C.ar      1 RES1   0.0000
    56 C41     -4.1847  -3.9138   8.5053   C.ar      1 RES1   0.0000
    57 C42     -3.5533  -2.7700   8.9722   C.ar      1 RES1   0.0000
    58 H1      -0.3590   4.9441  12.1946   H         1 RES1   0.0000
    59 H2      -0.8214   7.1730  12.7375   H         1 RES1   0.0000
    60 H3      -1.2127   8.7024  11.0061   H         1 RES1   0.0000
    61 H4      -1.1076   7.9720   8.8161   H         1 RES1   0.0000
    62 H5       0.7918   3.5353  10.3619   H         1 RES1   0.0000
    63 H6       0.3490   3.8185   8.8513   H         1 RES1   0.0000
    64 H7      -1.5749   2.9970  10.8035   H         1 RES1   0.0000
    65 H8      -1.7695   2.9802   9.2142   H         1 RES1   0.0000
    66 H9      -0.3815  -1.3219   6.9271   H         1 RES1   0.0000
    67 H10      0.1957  -3.5241   7.4855   H         1 RES1   0.0000
    68 H11      0.6858  -4.0708   9.7318   H         1 RES1   0.0000
    69 H12      0.8276  -0.2804  14.3241   H         1 RES1   0.0000
    70 H13      1.2030  -1.8364  14.2734   H         1 RES1   0.0000
    71 H14     -1.4270  -0.7331  14.6363   H         1 RES1   0.0000
    72 H15     -1.2480  -2.2667  14.2087   H         1 RES1   0.0000
    73 H16      0.2615  -4.4185  17.7785   H         1 RES1   0.0000
    74 H17     -0.1544  -3.0517  19.5901   H         1 RES1   0.0000
    75 H18     -0.8477  -0.8313  19.2033   H         1 RES1   0.0000
    76 H19     -1.1126  -0.1051  16.9824   H         1 RES1   0.0000
    77 H20      2.8560  -0.8929   7.5615   H         1 RES1   0.0000
    78 H21      4.5570  -1.8279   6.2506   H         1 RES1   0.0000
    79 H22      6.6340  -0.7289   6.1311   H         1 RES1   0.0000
    80 H23      6.9103   1.2448   7.2788   H         1 RES1   0.0000
    81 H24      2.0254   1.2911   8.6853   H         1 RES1   0.0000
    82 H25      3.1444   2.2359   9.3365   H         1 RES1   0.0000
    83 H26      2.6612  -0.4640  10.2086   H         1 RES1   0.0000
    84 H27      3.7156   0.5313  10.8865   H         1 RES1   0.0000
    85 H28      1.9037   3.5031  14.4971   H         1 RES1   0.0000
    86 H29     -0.0823   3.8984  15.7123   H         1 RES1   0.0000
    87 H30     -2.1008   2.9157  14.9908   H         1 RES1   0.0000
    88 H31     -3.5123  -1.0233  12.3184   H         1 RES1   0.0000
    89 H32     -2.3297  -1.7186  11.5012   H         1 RES1   0.0000
    90 H33     -4.2985   0.0673  10.4378   H         1 RES1   0.0000
    91 H34     -2.9722  -0.2734   9.6080   H         1 RES1   0.0000
    92 H35     -7.0056  -3.3797   9.9132   H         1 RES1   0.0000
    93 H36     -5.9579  -4.9077   8.5658   H         1 RES1   0.0000
    94 H37     -3.7231  -4.5292   7.9483   H         1 RES1   0.0000
    95 H38     -2.6456  -2.6003   8.7486   H         1 RES1   0.0000
    96 Na1     -5.5236   2.2947  13.5941   Na        2 RES2   1.0000
    97 O5      -6.6852   0.4808  14.3635   O.2       3 RES3   0.0000
    98 N11     -7.5375  -0.2944  16.3199   N.am      3 RES3   0.0000
    99 C43     -7.0458  -0.4191  15.0892   C.2       3 RES3   0.0000
   100 C44     -7.6455   1.0191  16.9219   C.3       3 RES3   0.0000
   101 C45     -7.8974  -1.4425  17.1231   C.3       3 RES3   0.0000
   102 H39     -6.9704  -1.3023  14.7474   H         3 RES3   0.0000
   103 H40     -8.5802   1.3135  16.9008   H         3 RES3   0.0000
   104 H41     -7.0926   1.6555  16.4212   H         3 RES3   0.0000
   105 H42     -7.3364   0.9799  17.8516   H         3 RES3   0.0000
   106 H43     -7.2685  -1.5308  17.8685   H         3 RES3   0.0000
   107 H44     -7.8644  -2.2513  16.5703   H         3 RES3   0.0000
   108 H45     -8.8053  -1.3233  17.4733   H         3 RES3   0.0000
@<TRIPOS>BOND
     1     1     7    1
     2     2    23    2
     3     3    29    2
     4     4    44    2
     5     5    50    2
     6     6    19   ar
     7     7    22    1
     8     8     1    1
     9     9     1    1
    10    10    32   ar
    11    11    40   ar
    12    12     1    1
    13    13     1    1
    14    14     1    1
    15    15    53   ar
    16    16    17   ar
    17    17    18   ar
    18    18    19   ar
    19    19    61    1
    20    20     6   ar
    21    21    20    1
    22    22    21    1
    23    23     7   am
    24    24     8   ar
    25    25    24   ar
    26    26    25   ar
    27    27    26   ar
    28    28     8   ar
    29    29     9   am
    30    30     9    1
    31    31    30    1
    32    32    31    1
    33    33    10   ar
    34    34    33   ar
    35    35    34   ar
    36    36    32   ar
    37    37    38   ar
    38    38    39   ar
    39    39    40   ar
    40    40    80    1
    41    41    11   ar
    42    42    41    1
    43    43    12    1
    44    44    12   am
    45    45    13   ar
    46    46    45   ar
    47    47    46   ar
    48    48    47   ar
    49    49    13   ar
    50    50    14   am
    51    51    14    1
    52    52    51    1
    53    53    52    1
    54    54    15   ar
    55    55    54   ar
    56    56    55   ar
    57    57    53   ar
    58    58    16    1
    59    59    17    1
    60    60    18    1
    61    62    21    1
    62    63    21    1
    63    64    22    1
    64    65    22    1
    65    66    25    1
    66    67    26    1
    67    68    27    1
    68    69    30    1
    69    70    30    1
    70    71    31    1
    71    72    31    1
    72    73    33    1
    73    74    34    1
    74    75    35    1
    75    76    36    1
    76    77    37    1
    77    78    38    1
    78    79    39    1
    79    81    42    1
    80    82    42    1
    81    83    43    1
    82    84    43    1
    83    85    46    1
    84    86    47    1
    85    87    48    1
    86    88    51    1
    87    89    51    1
    88    90    52    1
    89    91    52    1
    90    92    54    1
    91    93    55    1
    92    94    56    1
    93    95    57    1
    94    16    20   ar
    95    23    24    1
    96    27    28   ar
    97    28    29    1
    98    35    36   ar
    99    37    41   ar
   100    42    43    1
   101    44    45    1
   102    48    49   ar
   103    49    50    1
   104    56    57   ar
   105    97    99    2
   106    98    99   am
   107    99   102    1
   108   100    98    1
   109   101    98    1
   110   103   100    1
   111   104   100    1
   112   105   100    1
   113   106   101    1
   114   107   101    1
   115   108   101    1
@<TRIPOS>SUBSTRUCTURE
     1 RES1        1 GROUP             0 ****  ****    0  
     2 RES2       96 GROUP             0 ****  ****    0  
     3 RES3       97 GROUP             0 ****  ****    0  
@<TRIPOS>CRYSIN
   10.7230   14.0180   14.2680   90.0000   99.6700   90.0000     4     1
