@<TRIPOS>MOLECULE
MASPIH
   121   129     1     0     0
SMALL
NO_CHARGES
****
Generated from the CSD

@<TRIPOS>ATOM
     1 Fe1      5.5788   3.2711   4.6369   Fe        1 RES1   0.0000
     2 N1       4.9495   4.0189   6.4196   N.2       1 RES1   0.0000
     3 N2       5.7776   5.1960   3.7891   N.2       1 RES1   0.0000
     4 N3       6.0634   0.4704   5.5603   N.1       1 RES1   0.0000
     5 N4       6.7166   2.2052   2.0650   N.1       1 RES1   0.0000
     6 N5       2.7775   2.4419   3.9181   N.1       1 RES1   0.0000
     7 S1       7.6783   3.7077   5.3557   S.3       1 RES1   0.0000
     8 C1       5.7819   1.5728   5.2804   C.1       1 RES1   0.0000
     9 C2       6.2619   2.6435   3.0411   C.1       1 RES1   0.0000
    10 C3       3.8388   2.8483   4.1510   C.1       1 RES1   0.0000
    11 C4       3.7222   3.6925   7.0725   C.ar      1 RES1   0.0000
    12 C5       3.7024   2.8284   8.1894   C.ar      1 RES1   0.0000
    13 C6       2.5008   2.5622   8.8474   C.ar      1 RES1   0.0000
    14 H1       2.5138   2.0088   9.6202   H         1 RES1   0.0000
    15 C7       1.2929   3.0741   8.4138   C.ar      1 RES1   0.0000
    16 C8       1.3115   3.8976   7.2988   C.ar      1 RES1   0.0000
    17 H2       0.4886   4.2454   6.9734   H         1 RES1   0.0000
    18 C9       2.4967   4.2354   6.6342   C.ar      1 RES1   0.0000
    19 C10      4.9644   2.2022   8.7226   C.3       1 RES1   0.0000
    20 H3       5.5498   1.9594   7.9751   H         1 RES1   0.0000
    21 H4       4.7378   1.3977   9.2346   H         1 RES1   0.0000
    22 H5       5.4253   2.8415   9.3058   H         1 RES1   0.0000
    23 C11      0.0045   2.8066   9.1492   C.3       1 RES1   0.0000
    24 H6      -0.2523   3.6035   9.6586   H         1 RES1   0.0000
    25 H7       0.1290   2.0522   9.7628   H         1 RES1   0.0000
    26 H8      -0.7014   2.5904   8.5034   H         1 RES1   0.0000
    27 C12      2.3999   5.2679   5.5618   C.3       1 RES1   0.0000
    28 H9       1.5131   5.2231   5.1455   H         1 RES1   0.0000
    29 H10      3.0881   5.1014   4.8842   H         1 RES1   0.0000
    30 H11      2.5330   6.1570   5.9516   H         1 RES1   0.0000
    31 C13      5.8916   4.6648   7.1696   C.ar      1 RES1   0.0000
    32 C14      5.5990   5.3869   8.3621   C.ar      1 RES1   0.0000
    33 H12      4.7212   5.3536   8.7227   H         1 RES1   0.0000
    34 C15      6.5662   6.1345   9.0059   C.ar      1 RES1   0.0000
    35 H13      6.3322   6.6231   9.7866   H         1 RES1   0.0000
    36 C16      7.8752   6.1875   8.5367   C.ar      1 RES1   0.0000
    37 H14      8.5258   6.7233   8.9750   H         1 RES1   0.0000
    38 C17      8.2099   5.4452   7.4226   C.ar      1 RES1   0.0000
    39 H15      9.1045   5.4435   7.1032   H         1 RES1   0.0000
    40 C18      7.2381   4.7003   6.7671   C.ar      1 RES1   0.0000
    41 C19      8.1273   4.9117   4.1482   C.ar      1 RES1   0.0000
    42 C20      9.4662   5.1690   3.8622   C.ar      1 RES1   0.0000
    43 H16     10.1498   4.6494   4.2681   H         1 RES1   0.0000
    44 C21      9.7949   6.1884   2.9809   C.ar      1 RES1   0.0000
    45 H17     10.7011   6.3643   2.7546   H         1 RES1   0.0000
    46 C22      8.7659   6.9467   2.4395   C.ar      1 RES1   0.0000
    47 H18      8.9842   7.6676   1.8608   H         1 RES1   0.0000
    48 C23      7.4251   6.6898   2.7146   C.ar      1 RES1   0.0000
    49 H19      6.7530   7.2469   2.3397   H         1 RES1   0.0000
    50 C24      7.0515   5.6028   3.5494   C.ar      1 RES1   0.0000
    51 C25      4.7555   6.0851   3.3652   C.ar      1 RES1   0.0000
    52 C26      4.4718   7.2411   4.1159   C.ar      1 RES1   0.0000
    53 C27      3.4396   8.0790   3.7260   C.ar      1 RES1   0.0000
    54 H20      3.2593   8.8546   4.2426   H         1 RES1   0.0000
    55 C28      2.6562   7.8235   2.6035   C.ar      1 RES1   0.0000
    56 C29      2.9664   6.7061   1.8504   C.ar      1 RES1   0.0000
    57 H21      2.4552   6.5207   1.0711   H         1 RES1   0.0000
    58 C30      4.0093   5.8396   2.1979   C.ar      1 RES1   0.0000
    59 C31      5.2383   7.5426   5.3817   C.3       1 RES1   0.0000
    60 H22      5.0560   8.4633   5.6610   H         1 RES1   0.0000
    61 H23      6.1976   7.4342   5.2168   H         1 RES1   0.0000
    62 H24      4.9558   6.9237   6.0887   H         1 RES1   0.0000
    63 C32      1.5445   8.7631   2.2041   C.3       1 RES1   0.0000
    64 H25      1.9285   9.5935   1.8535   H         1 RES1   0.0000
    65 H26      0.9898   8.9647   2.9868   H         1 RES1   0.0000
    66 H27      0.9935   8.3416   1.5135   H         1 RES1   0.0000
    67 C33      4.3681   4.7033   1.2779   C.3       1 RES1   0.0000
    68 H28      3.8783   4.7989   0.4350   H         1 RES1   0.0000
    69 H29      4.1276   3.8527   1.6999   H         1 RES1   0.0000
    70 H30      5.3317   4.7186   1.1004   H         1 RES1   0.0000
    71 C34      6.5625  -0.8088   5.8343   C.ar      1 RES1   0.0000
    72 C35      7.6940  -0.9081   6.6413   C.ar      1 RES1   0.0000
    73 C36      8.1717  -2.1867   6.9025   C.ar      1 RES1   0.0000
    74 H31      8.9465  -2.2988   7.4396   H         1 RES1   0.0000
    75 C37      7.5257  -3.3006   6.3854   C.ar      1 RES1   0.0000
    76 H32      7.8594  -4.1681   6.5804   H         1 RES1   0.0000
    77 C38      6.4150  -3.1670   5.5990   C.ar      1 RES1   0.0000
    78 H33      5.9937  -3.9452   5.2497   H         1 RES1   0.0000
    79 C39      5.8869  -1.9141   5.2995   C.ar      1 RES1   0.0000
    80 C40      8.3448   0.3238   7.2169   C.3       1 RES1   0.0000
    81 H34      8.6529   0.9012   6.4872   H         1 RES1   0.0000
    82 H35      9.1084   0.0611   7.7722   H         1 RES1   0.0000
    83 H36      7.6935   0.8102   7.7649   H         1 RES1   0.0000
    84 C41      4.6538  -1.7675   4.4661   C.3       1 RES1   0.0000
    85 H37      4.6324  -2.4731   3.7856   H         1 RES1   0.0000
    86 H38      4.6586  -0.8911   4.0269   H         1 RES1   0.0000
    87 H39      3.8627  -1.8407   5.0395   H         1 RES1   0.0000
    88 C42      7.3170   1.7018   0.9035   C.ar      1 RES1   0.0000
    89 C43      7.2067   0.3324   0.6482   C.ar      1 RES1   0.0000
    90 C44      7.8321  -0.1490  -0.4987   C.ar      1 RES1   0.0000
    91 H40      7.7688  -1.0724  -0.7111   H         1 RES1   0.0000
    92 C45      8.5445   0.6934  -1.3340   C.ar      1 RES1   0.0000
    93 H41      8.9657   0.3428  -2.1094   H         1 RES1   0.0000
    94 C46      8.6459   2.0442  -1.0456   C.ar      1 RES1   0.0000
    95 H42      9.1427   2.6113  -1.6250   H         1 RES1   0.0000
    96 C47      8.0316   2.5824   0.0834   C.ar      1 RES1   0.0000
    97 C48      6.4603  -0.5754   1.5886   C.3       1 RES1   0.0000
    98 H43      6.9108  -0.5860   2.4585   H         1 RES1   0.0000
    99 H44      6.4395  -1.4834   1.2192   H         1 RES1   0.0000
   100 H45      5.5437  -0.2471   1.6999   H         1 RES1   0.0000
   101 C49      8.1954   4.0230   0.4431   C.3       1 RES1   0.0000
   102 H46      8.9390   4.4048  -0.0695   H         1 RES1   0.0000
   103 H47      8.3853   4.1004   1.4020   H         1 RES1   0.0000
   104 H48      7.3699   4.5079   0.2321   H         1 RES1   0.0000
   105 C50      1.5105   1.8579   3.8242   C.ar      1 RES1   0.0000
   106 C51      1.1615   0.8726   4.7549   C.ar      1 RES1   0.0000
   107 C52     -0.0745   0.2729   4.6091   C.ar      1 RES1   0.0000
   108 H49     -0.3386  -0.4052   5.2187   H         1 RES1   0.0000
   109 C53     -0.9330   0.6444   3.5915   C.ar      1 RES1   0.0000
   110 H50     -1.7777   0.2200   3.5059   H         1 RES1   0.0000
   111 C54     -0.5659   1.6312   2.6973   C.ar      1 RES1   0.0000
   112 H51     -1.1679   1.8816   2.0070   H         1 RES1   0.0000
   113 C55      0.6655   2.2632   2.7892   C.ar      1 RES1   0.0000
   114 C56      2.0796   0.4994   5.8836   C.3       1 RES1   0.0000
   115 H52      2.0681   1.2061   6.5622   H         1 RES1   0.0000
   116 H53      2.9919   0.3912   5.5404   H         1 RES1   0.0000
   117 H54      1.7800  -0.3429   6.2843   H         1 RES1   0.0000
   118 C57      1.0624   3.3295   1.8157   C.3       1 RES1   0.0000
   119 H55      1.4186   4.1003   2.3032   H         1 RES1   0.0000
   120 H56      0.2786   3.6052   1.2960   H         1 RES1   0.0000
   121 H57      1.7492   2.9794   1.2101   H         1 RES1   0.0000
@<TRIPOS>BOND
     1     1     2    1
     2     2    11    1
     3     3     1    1
     4     4     8    3
     5     5     9    3
     6     6    10    3
     7     7     1    1
     8     8     1    1
     9     9     1    1
    10    10     1    1
    11    11    12   ar
    12    12    13   ar
    13    13    14    1
    14    15    13   ar
    15    16    15   ar
    16    17    16    1
    17    18    11   ar
    18    19    12    1
    19    20    19    1
    20    21    19    1
    21    22    19    1
    22    23    15    1
    23    24    23    1
    24    25    23    1
    25    26    23    1
    26    27    18    1
    27    28    27    1
    28    29    27    1
    29    30    27    1
    30    31     2    1
    31    32    31   ar
    32    33    32    1
    33    34    32   ar
    34    35    34    1
    35    36    34   ar
    36    37    36    1
    37    38    36   ar
    38    39    38    1
    39    40     7    1
    40    41     7    1
    41    42    41   ar
    42    43    42    1
    43    44    42   ar
    44    45    44    1
    45    46    44   ar
    46    47    46    1
    47    48    46   ar
    48    49    48    1
    49    50     3    1
    50    51     3    1
    51    52    51   ar
    52    53    52   ar
    53    54    53    1
    54    55    53   ar
    55    56    55   ar
    56    57    56    1
    57    58    51   ar
    58    59    52    1
    59    60    59    1
    60    61    59    1
    61    62    59    1
    62    63    55    1
    63    64    63    1
    64    65    63    1
    65    66    63    1
    66    67    58    1
    67    68    67    1
    68    69    67    1
    69    70    67    1
    70    71     4    1
    71    72    71   ar
    72    73    72   ar
    73    74    73    1
    74    75    73   ar
    75    76    75    1
    76    77    75   ar
    77    78    77    1
    78    79    71   ar
    79    80    72    1
    80    81    80    1
    81    82    80    1
    82    83    80    1
    83    84    79    1
    84    85    84    1
    85    86    84    1
    86    87    84    1
    87    88     5    1
    88    89    88   ar
    89    90    89   ar
    90    91    90    1
    91    92    90   ar
    92    93    92    1
    93    94    92   ar
    94    95    94    1
    95    96    88   ar
    96    97    89    1
    97    98    97    1
    98    99    97    1
    99   100    97    1
   100   101    96    1
   101   102   101    1
   102   103   101    1
   103   104   101    1
   104   105     6    1
   105   106   105   ar
   106   107   106   ar
   107   108   107    1
   108   109   107   ar
   109   110   109    1
   110   111   109   ar
   111   112   111    1
   112   113   105   ar
   113   114   106    1
   114   115   114    1
   115   116   114    1
   116   117   114    1
   117   118   113    1
   118   119   118    1
   119   120   118    1
   120   121   118    1
   121    16    18   ar
   122    31    40   ar
   123    38    40   ar
   124    41    50   ar
   125    48    50   ar
   126    56    58   ar
   127    77    79   ar
   128    94    96   ar
   129   111   113   ar
@<TRIPOS>SUBSTRUCTURE
     1 RES1        1 GROUP             0 ****  ****    0  
@<TRIPOS>CRYSIN
   10.8768   12.2257   19.0930   82.1560   73.6160   74.2640     2     1
