@<TRIPOS>MOLECULE
MAVVUE
   139   150     1     0     0
SMALL
NO_CHARGES
****
Generated from the CSD

@<TRIPOS>ATOM
     1 C1       5.4346  10.0638   4.3275   C.2       1 RES1   0.0000
     2 C2       4.9305  11.3263   4.9967   C.ar      1 RES1   0.0000
     3 C3       4.5262  11.3142   6.3059   C.ar      1 RES1   0.0000
     4 H1       4.5692  10.5227   6.7932   H         1 RES1   0.0000
     5 C4       4.0557  12.4664   6.9100   C.ar      1 RES1   0.0000
     6 C5       4.0041  13.6646   6.1936   C.ar      1 RES1   0.0000
     7 H2       3.7013  14.4468   6.5934   H         1 RES1   0.0000
     8 C6       4.4161  13.6542   4.8687   C.ar      1 RES1   0.0000
     9 C7       4.8780  12.4983   4.2623   C.ar      1 RES1   0.0000
    10 H3       5.1507  12.5093   3.3730   H         1 RES1   0.0000
    11 C8       3.1895  13.4723   8.8975   C.3       1 RES1   0.0000
    12 H4       2.3973  13.8048   8.4483   H         1 RES1   0.0000
    13 H5       3.8604  14.1733   8.8885   H         1 RES1   0.0000
    14 C9       2.8523  13.1115  10.3167   C.ar      1 RES1   0.0000
    15 C10      1.5750  13.3125  10.7861   C.ar      1 RES1   0.0000
    16 H6       0.9126  13.6234  10.2112   H         1 RES1   0.0000
    17 C11      1.2765  13.0476  12.1111   C.ar      1 RES1   0.0000
    18 H7       0.4137  13.1916  12.4255   H         1 RES1   0.0000
    19 C12      2.2339  12.5726  12.9622   C.ar      1 RES1   0.0000
    20 H8       2.0223  12.4114  13.8537   H         1 RES1   0.0000
    21 C13      3.5026  12.3357  12.5108   C.ar      1 RES1   0.0000
    22 C14      3.7951  12.6043  11.1813   C.ar      1 RES1   0.0000
    23 H9       4.6535  12.4373  10.8647   H         1 RES1   0.0000
    24 C15      4.5288  11.8183  13.4540   C.2       1 RES1   0.0000
    25 C16      3.8252  15.9753   4.5206   C.3       1 RES1   0.0000
    26 H10      4.3490  16.3556   5.2437   H         1 RES1   0.0000
    27 H11      2.9203  15.8259   4.8350   H         1 RES1   0.0000
    28 C17      3.8278  16.8810   3.3394   C.ar      1 RES1   0.0000
    29 C18      2.9487  16.6780   2.3153   C.ar      1 RES1   0.0000
    30 H12      2.3035  16.0130   2.4007   H         1 RES1   0.0000
    31 C19      2.9865  17.4323   1.1520   C.ar      1 RES1   0.0000
    32 H13      2.3887  17.2625   0.4604   H         1 RES1   0.0000
    33 C20      3.9155  18.4256   1.0375   C.ar      1 RES1   0.0000
    34 H14      3.9619  18.9265   0.2560   H         1 RES1   0.0000
    35 C21      4.7765  18.6867   2.0638   C.ar      1 RES1   0.0000
    36 C22      4.7404  17.9152   3.2114   C.ar      1 RES1   0.0000
    37 H15      5.3339  18.0916   3.9053   H         1 RES1   0.0000
    38 C23      5.6642  19.8507   1.9672   C.2       1 RES1   0.0000
    39 C24      7.4706   4.3363   4.3252   C.2       1 RES1   0.0000
    40 C25      7.9643   3.0670   4.9967   C.ar      1 RES1   0.0000
    41 C26      8.0228   1.8898   4.2691   C.ar      1 RES1   0.0000
    42 H16      7.7562   1.8742   3.3775   H         1 RES1   0.0000
    43 C27      8.4830   0.7376   4.8777   C.ar      1 RES1   0.0000
    44 C28      8.9045   0.7267   6.1936   C.ar      1 RES1   0.0000
    45 H17      9.2159  -0.0518   6.5934   H         1 RES1   0.0000
    46 C29      8.8443   1.9235   6.8943   C.ar      1 RES1   0.0000
    47 C30      8.3729   3.0771   6.3127   C.ar      1 RES1   0.0000
    48 H18      8.3316   3.8636   6.8067   H         1 RES1   0.0000
    49 C31      9.6993   0.9118   8.8952   C.3       1 RES1   0.0000
    50 H19     10.4803   0.5614   8.4393   H         1 RES1   0.0000
    51 H20      9.0146   0.2246   8.8952   H         1 RES1   0.0000
    52 C32     10.0545   1.2783  10.3055   C.ar      1 RES1   0.0000
    53 C33     11.3224   1.0883  10.7928   C.ar      1 RES1   0.0000
    54 H21     11.9908   0.7745  10.2247   H         1 RES1   0.0000
    55 C34     11.6157   1.3503  12.1043   C.ar      1 RES1   0.0000
    56 H22     12.4793   1.2034  12.4165   H         1 RES1   0.0000
    57 C35     10.6644   1.8282  12.9712   C.ar      1 RES1   0.0000
    58 H23     10.8725   1.9951  13.8627   H         1 RES1   0.0000
    59 C36      9.4034   2.0556  12.4928   C.ar      1 RES1   0.0000
    60 C37      9.1075   1.7890  11.1813   C.ar      1 RES1   0.0000
    61 H24      8.2473   1.9548  10.8692   H         1 RES1   0.0000
    62 C38      8.3824   2.5940  13.4585   C.2       1 RES1   0.0000
    63 C39      9.0800  -1.5754   4.5318   C.3       1 RES1   0.0000
    64 H25      8.5561  -1.9433   5.2617   H         1 RES1   0.0000
    65 H26      9.9866  -1.4222   4.8417   H         1 RES1   0.0000
    66 C40      9.0696  -2.5013   3.3483   C.ar      1 RES1   0.0000
    67 C41      8.1630  -3.5101   3.2091   C.ar      1 RES1   0.0000
    68 H27      7.5557  -3.6736   3.8940   H         1 RES1   0.0000
    69 C42      8.1260  -4.2978   2.0660   C.ar      1 RES1   0.0000
    70 C43      8.9767  -4.0364   1.0263   C.ar      1 RES1   0.0000
    71 H28      8.9182  -4.5287   0.2403   H         1 RES1   0.0000
    72 C44      9.9152  -3.0431   1.1498   C.ar      1 RES1   0.0000
    73 H29     10.5164  -2.8790   0.4604   H         1 RES1   0.0000
    74 C45      9.9616  -2.2773   2.3243   C.ar      1 RES1   0.0000
    75 H30     10.6025  -1.6065   2.4119   H         1 RES1   0.0000
    76 C46      7.2383  -5.4528   1.9717   C.2       1 RES1   0.0000
    77 C47      7.3364   6.5440   7.6376   C.ar      1 RES1   0.0000
    78 H31      7.9918   6.0747   7.1750   H         1 RES1   0.0000
    79 C48      7.3691   6.5008   9.0142   C.ar      1 RES1   0.0000
    80 H32      8.0194   5.9941   9.4477   H         1 RES1   0.0000
    81 C49      6.4521   7.1969   9.7418   C.ar      1 RES1   0.0000
    82 C50      5.5412   7.9000   9.0120   C.ar      1 RES1   0.0000
    83 H33      4.9004   8.4153   9.4477   H         1 RES1   0.0000
    84 C51      5.5576   7.8625   7.6331   C.ar      1 RES1   0.0000
    85 H34      4.9004   8.3318   7.1728   H         1 RES1   0.0000
    86 C52      6.4556   7.1958  11.2204   C.ar      1 RES1   0.0000
    87 C53      7.5222   6.7009  11.9359   C.ar      1 RES1   0.0000
    88 H35      8.2602   6.3597  11.4845   H         1 RES1   0.0000
    89 C54      7.5101   6.7058  13.3192   C.ar      1 RES1   0.0000
    90 C55      5.3950   7.6771  13.3170   C.ar      1 RES1   0.0000
    91 C56      5.3726   7.6953  11.9359   C.ar      1 RES1   0.0000
    92 H36      4.6363   8.0410  11.4868   H         1 RES1   0.0000
    93 C57      8.6086   6.2080  14.1883   C.ar      1 RES1   0.0000
    94 C58      9.7862   5.7010  13.7055   C.ar      1 RES1   0.0000
    95 H37      9.9289   5.6428  12.7870   H         1 RES1   0.0000
    96 C59     10.7538   5.2804  14.5836   C.ar      1 RES1   0.0000
    97 H38     11.5667   4.9548  14.2714   H         1 RES1   0.0000
    98 C60     10.4984   5.3521  15.9310   C.ar      1 RES1   0.0000
    99 H39     11.1306   5.0642  16.5508   H         1 RES1   0.0000
   100 C61      9.3053   5.8498  16.3442   C.ar      1 RES1   0.0000
   101 H40      9.1410   5.8933  17.2582   H         1 RES1   0.0000
   102 C62      4.3095   8.1784  14.1906   C.ar      1 RES1   0.0000
   103 C63      3.1121   8.6799  13.6920   C.ar      1 RES1   0.0000
   104 H41      2.9616   8.7205  12.7758   H         1 RES1   0.0000
   105 C64      2.1392   9.1236  14.5926   C.ar      1 RES1   0.0000
   106 H42      1.3315   9.4690  14.2871   H         1 RES1   0.0000
   107 C65      2.3990   9.0401  15.9220   C.ar      1 RES1   0.0000
   108 H43      1.7633   9.3193  16.5418   H         1 RES1   0.0000
   109 C66      3.5947   8.5460  16.3465   C.ar      1 RES1   0.0000
   110 H44      3.7572   8.5103  17.2627   H         1 RES1   0.0000
   111 N1       6.4487   7.1961   6.9345   N.ar      1 RES1   0.0000
   112 N2       6.4539   7.2015  13.9793   N.ar      1 RES1   0.0000
   113 N3       8.3548   6.2803  15.5140   N.ar      1 RES1   0.0000
   114 N4       4.5512   8.1076  15.5146   N.ar      1 RES1   0.0000
   115 O1       5.5016   9.0415   5.0470   O.co2     1 RES1   0.0000
   116 O2       5.6823  10.0828   3.1038   O.co2     1 RES1   0.0000
   117 O3       3.6789  12.3380   8.2217   O.3       1 RES1   0.0000
   118 O4       4.4084  14.7540   4.0613   O.3       1 RES1   0.0000
   119 O5       5.5859  11.3277  12.8510   O.3       1 RES1   0.0000
   120 H45      6.1201  11.0582  13.4113   H         1 RES1   0.0000
   121 O6       4.3817  11.8209  14.6469   O.2       1 RES1   0.0000
   122 O7       6.1734  20.2921   3.0631   O.3       1 RES1   0.0000
   123 H46      6.6500  20.9390   2.9037   H         1 RES1   0.0000
   124 O8       5.8483  20.4360   0.8650   O.2       1 RES1   0.0000
   125 O9       7.4000   5.3509   5.0468   O.co2     1 RES1   0.0000
   126 O10      7.2297   4.3176   3.1056   O.co2     1 RES1   0.0000
   127 O11      9.2270   2.0596   8.2258   O.3       1 RES1   0.0000
   128 O12      8.4985  -0.3613   4.0503   O.3       1 RES1   0.0000
   129 O13      7.0543  -6.0488   0.8646   O.2       1 RES1   0.0000
   130 O14      6.7282  -5.8939   3.0519   O.3       1 RES1   0.0000
   131 H47      6.2500  -6.5382   2.8857   H         1 RES1   0.0000
   132 O15      8.5226   2.5614  14.6420   O.2       1 RES1   0.0000
   133 O16      7.2994   3.0728  12.8766   O.3       1 RES1   0.0000
   134 H48      7.1721   2.6775  12.1694   H         1 RES1   0.0000
   135 Fe1      6.4514   7.1978   4.7955   Fe        1 RES1   0.0000
   136 N2C      6.4539   7.1935   2.7508   N.3       1 RES1   0.0000
   137 N3C      8.3548   8.1147   4.2855   N.3       1 RES1   0.0000
   138 N4C      4.5512   6.2874   4.2861   N.3       1 RES1   0.0000
   139 Fe1C     6.4514   7.1972  16.0240   Fe        1 RES1   0.0000
@<TRIPOS>BOND
     1     1     2    1
     2     2     3   ar
     3     3     4    1
     4     5     3   ar
     5     6     5   ar
     6     7     6    1
     7     8     6   ar
     8     9     2   ar
     9    10     9    1
    10    11    12    1
    11    13    11    1
    12    14    11    1
    13    15    14   ar
    14    16    15    1
    15    17    15   ar
    16    18    17    1
    17    19    17   ar
    18    20    19    1
    19    21    19   ar
    20    22    14   ar
    21    23    22    1
    22    24    21    1
    23    25    26    1
    24    27    25    1
    25    28    25    1
    26    29    28   ar
    27    30    29    1
    28    31    29   ar
    29    32    31    1
    30    33    31   ar
    31    34    33    1
    32    35    33   ar
    33    36    28   ar
    34    37    36    1
    35    38    35    1
    36    39    40    1
    37    40    41   ar
    38    41    42    1
    39    43    41   ar
    40    44    43   ar
    41    45    44    1
    42    46    44   ar
    43    47    40   ar
    44    48    47    1
    45    49    50    1
    46    51    49    1
    47    52    49    1
    48    53    52   ar
    49    54    53    1
    50    55    53   ar
    51    56    55    1
    52    57    55   ar
    53    58    57    1
    54    59    57   ar
    55    60    52   ar
    56    61    60    1
    57    62    59    1
    58    63    64    1
    59    65    63    1
    60    66    63    1
    61    67    66   ar
    62    68    67    1
    63    69    67   ar
    64    70    69   ar
    65    71    70    1
    66    72    70   ar
    67    73    72    1
    68    74    66   ar
    69    75    74    1
    70    76    69    1
    71    77    78    1
    72    79    77   ar
    73    80    79    1
    74    81    79   ar
    75    82    81   ar
    76    83    82    1
    77    84    82   ar
    78    85    84    1
    79    86    81    1
    80    87    86   ar
    81    88    87    1
    82    89    87   ar
    83    90    91   ar
    84    91    86   ar
    85    92    91    1
    86    93    89    1
    87    94    93   ar
    88    95    94    1
    89    96    94   ar
    90    97    96    1
    91    98    96   ar
    92    99    98    1
    93   100    98   ar
    94   101   100    1
    95   102    90    1
    96   103   102   ar
    97   104   103    1
    98   105   103   ar
    99   106   105    1
   100   107   105   ar
   101   108   107    1
   102   109   107   ar
   103   110   109    1
   104   111    77   ar
   105   112    89   ar
   106   113    93   ar
   107   114   102   ar
   108   115     1    1
   109   116     1    2
   110   117     5    1
   111   118     8    1
   112   119    24    1
   113   120   119    1
   114   121    24    2
   115   122    38    1
   116   123   122    1
   117   124    38    2
   118   125    39    1
   119   126    39    2
   120   127    46    1
   121   128    43    1
   122   129    76    2
   123   130    76    1
   124   131   130    1
   125   132    62    2
   126   133    62    1
   127   134   133    1
   128   135   111    1
   129   136   135   un
   130   137   135   un
   131   138   135   un
   132   139   112   un
   133     8     9   ar
   134    11   117    1
   135    21    22   ar
   136    25   118    1
   137    35    36   ar
   138    46    47   ar
   139    49   127    1
   140    59    60   ar
   141    63   128    1
   142    72    74   ar
   143    84   111   ar
   144    90   112   ar
   145   100   113   ar
   146   109   114   ar
   147   113   139   un
   148   114   139   un
   149   115   135    1
   150   125   135    1
@<TRIPOS>SUBSTRUCTURE
     1 RES1        1 GROUP             0 ****  ****    0  
@<TRIPOS>CRYSIN
    8.6017   28.7900   22.4570   90.0000   90.0000   90.0000    14     1
