@<TRIPOS>MOLECULE
MEGDEH
   118   124     4     0     0
SMALL
USER_CHARGES
****
Generated from the CSD

@<TRIPOS>ATOM
     1 Fe1      1.0776   7.5852   6.4365   Fe        1 RES1   2.0000
     2 O1      -3.7071   6.1361   1.8314   O.3       1 RES1   0.0000
     3 O2       6.3709   3.1657   6.3156   O.3       1 RES1   0.0000
     4 O3       4.5915  13.2626   4.7327   O.3       1 RES1   0.0000
     5 O4      -1.0690   7.4208  12.9102   O.3       1 RES1   0.0000
     6 N1      -0.6637   8.3705   5.9396   N.2       1 RES1   0.0000
     7 N2       1.0568   9.0816   7.5590   N.ar      1 RES1   0.0000
     8 N3       2.8352   7.3547   7.3614   N.2       1 RES1   0.0000
     9 N4       1.8554   8.4011   4.8068   N.2       1 RES1   0.0000
    10 N5       1.0706   6.1096   5.2952   N.ar      1 RES1   0.0000
    11 N6       0.3964   6.1754   7.6683   N.2       1 RES1   0.0000
    12 C1      -3.8253   6.7901   0.5616   C.3       1 RES1   0.0000
    13 H1      -4.4047   6.2609  -0.0250   H         1 RES1   0.0000
    14 H2      -2.9376   6.8745   0.1548   H         1 RES1   0.0000
    15 H3      -4.2139   7.6806   0.6879   H         1 RES1   0.0000
    16 C2      -2.9458   6.7569   2.7829   C.ar      1 RES1   0.0000
    17 C3      -2.8783   6.1012   4.0102   C.ar      1 RES1   0.0000
    18 H4      -3.3397   5.2803   4.1350   H         1 RES1   0.0000
    19 C4      -2.1438   6.6402   5.0435   C.ar      1 RES1   0.0000
    20 H5      -2.0962   6.1877   5.8774   H         1 RES1   0.0000
    21 C5      -1.4741   7.8411   4.8695   C.ar      1 RES1   0.0000
    22 C6      -1.5142   8.4904   3.6409   C.ar      1 RES1   0.0000
    23 H6      -1.0413   9.3048   3.5169   H         1 RES1   0.0000
    24 C7      -2.2502   7.9434   2.5922   C.ar      1 RES1   0.0000
    25 H7      -2.2762   8.3808   1.7493   H         1 RES1   0.0000
    26 C8      -0.9851   9.4945   6.5228   C.2       1 RES1   0.0000
    27 C9      -2.2108  10.2989   6.2734   C.3       1 RES1   0.0000
    28 H8      -1.9680  11.1334   5.8222   H         1 RES1   0.0000
    29 H9      -2.6472  10.5050   7.1277   H         1 RES1   0.0000
    30 H10     -2.8264   9.7878   5.7065   H         1 RES1   0.0000
    31 C10      0.0099   9.9419   7.5018   C.ar      1 RES1   0.0000
    32 C11     -0.0174  11.0829   8.2918   C.ar      1 RES1   0.0000
    33 H11     -0.7504  11.6857   8.2479   H         1 RES1   0.0000
    34 C12      1.0471  11.3247   9.1462   C.ar      1 RES1   0.0000
    35 H12      1.0481  12.1020   9.6926   H         1 RES1   0.0000
    36 C13      2.1192  10.4290   9.2069   C.ar      1 RES1   0.0000
    37 H13      2.8468  10.5835   9.7977   H         1 RES1   0.0000
    38 C14      2.0989   9.3108   8.3876   C.ar      1 RES1   0.0000
    39 C15      3.1124   8.2583   8.2668   C.2       1 RES1   0.0000
    40 C16      4.3312   8.3224   9.1265   C.3       1 RES1   0.0000
    41 H14      4.0940   8.0852  10.0482   H         1 RES1   0.0000
    42 H15      4.6983   9.2318   9.1070   H         1 RES1   0.0000
    43 H16      5.0021   7.6921   8.7896   H         1 RES1   0.0000
    44 C17      3.7075   6.2392   7.1527   C.ar      1 RES1   0.0000
    45 C18      4.1191   5.4062   8.1853   C.ar      1 RES1   0.0000
    46 H17      3.7961   5.5588   9.0657   H         1 RES1   0.0000
    47 C19      4.9940   4.3545   7.9524   C.ar      1 RES1   0.0000
    48 H18      5.2581   3.7834   8.6641   H         1 RES1   0.0000
    49 C20      5.4817   4.1444   6.6618   C.ar      1 RES1   0.0000
    50 C21      5.0380   4.9515   5.6086   C.ar      1 RES1   0.0000
    51 H19      5.3462   4.7903   4.7245   H         1 RES1   0.0000
    52 C22      4.1547   5.9799   5.8532   C.ar      1 RES1   0.0000
    53 H20      3.8466   6.5175   5.1331   H         1 RES1   0.0000
    54 C23      6.9761   2.4274   7.4008   C.3       1 RES1   0.0000
    55 H21      7.6395   1.8013   7.0401   H         1 RES1   0.0000
    56 H22      6.2847   1.9280   7.8828   H         1 RES1   0.0000
    57 H23      7.4162   3.0515   8.0141   H         1 RES1   0.0000
    58 C24      3.8934  14.5050   4.6665   C.3       1 RES1   0.0000
    59 H24      4.5394  15.2400   4.6121   H         1 RES1   0.0000
    60 H25      3.3417  14.6143   5.4704   H         1 RES1   0.0000
    61 H26      3.3181  14.5156   3.8726   H         1 RES1   0.0000
    62 C25      3.8391  12.1183   4.7533   C.ar      1 RES1   0.0000
    63 C26      2.4549  12.0900   4.8504   C.ar      1 RES1   0.0000
    64 H27      1.9632  12.9007   4.9104   H         1 RES1   0.0000
    65 C27      1.7905  10.8636   4.8593   C.ar      1 RES1   0.0000
    66 H28      0.8434  10.8370   4.9261   H         1 RES1   0.0000
    67 C28      2.5139   9.6824   4.7703   C.ar      1 RES1   0.0000
    68 C29      3.9001   9.7241   4.6748   C.ar      1 RES1   0.0000
    69 H29      4.3953   8.9153   4.6185   H         1 RES1   0.0000
    70 C30      4.5567  10.9311   4.6614   C.ar      1 RES1   0.0000
    71 H30      5.5036  10.9545   4.5891   H         1 RES1   0.0000
    72 C31      1.8480   7.6509   3.7318   C.2       1 RES1   0.0000
    73 C32      2.3453   8.0290   2.3820   C.3       1 RES1   0.0000
    74 H31      1.6613   7.8220   1.7118   H         1 RES1   0.0000
    75 H32      3.1619   7.5259   2.1825   H         1 RES1   0.0000
    76 H33      2.5417   8.9883   2.3623   H         1 RES1   0.0000
    77 C33      1.3678   6.2890   3.9860   C.ar      1 RES1   0.0000
    78 C34      1.3007   5.2323   3.0961   C.ar      1 RES1   0.0000
    79 H34      1.4644   5.3685   2.1702   H         1 RES1   0.0000
    80 C35      0.9902   3.9709   3.5796   C.ar      1 RES1   0.0000
    81 H35      0.9555   3.2328   2.9827   H         1 RES1   0.0000
    82 C36      0.7292   3.7778   4.9307   C.ar      1 RES1   0.0000
    83 H36      0.5323   2.9122   5.2691   H         1 RES1   0.0000
    84 C37      0.7632   4.8865   5.7794   C.ar      1 RES1   0.0000
    85 C38      0.4529   4.9469   7.2146   C.2       1 RES1   0.0000
    86 C39      0.2783   3.6970   8.0051   C.3       1 RES1   0.0000
    87 H37      1.1574   3.3114   8.2033   H         1 RES1   0.0000
    88 H38     -0.2526   3.0548   7.4888   H         1 RES1   0.0000
    89 H39     -0.1853   3.9036   8.8443   H         1 RES1   0.0000
    90 C40      0.0592   6.4475   9.0377   C.ar      1 RES1   0.0000
    91 C41     -1.0727   7.2219   9.3005   C.ar      1 RES1   0.0000
    92 H40     -1.6056   7.5364   8.5796   H         1 RES1   0.0000
    93 C42     -1.4234   7.5338  10.5941   C.ar      1 RES1   0.0000
    94 H41     -2.1993   8.0545  10.7658   H         1 RES1   0.0000
    95 C43     -0.6279   7.0778  11.6613   C.ar      1 RES1   0.0000
    96 C44      0.5132   6.3418  11.4026   C.ar      1 RES1   0.0000
    97 H42      1.0677   6.0571  12.1194   H         1 RES1   0.0000
    98 C45      0.8494   6.0181  10.0929   C.ar      1 RES1   0.0000
    99 H43      1.6258   5.4991   9.9200   H         1 RES1   0.0000
   100 C46     -0.2844   6.9559  14.0169   C.3       1 RES1   0.0000
   101 H44     -0.6829   7.2709  14.8551   H         1 RES1   0.0000
   102 H45      0.6291   7.3022  13.9380   H         1 RES1   0.0000
   103 H46     -0.2622   5.9762  14.0130   H         1 RES1   0.0000
   104 P1      -0.1711  11.4570   0.8521   P.3       2 RES2  -1.0000
   105 F1       0.5783  10.3779   1.7499   F         2 RES2   0.0000
   106 F2      -0.9332  12.5526  -0.0485   F         2 RES2   0.0000
   107 F3      -1.2903  11.6259   1.9884   F         2 RES2   0.0000
   108 F4      -1.0490  10.2956   0.1757   F         2 RES2   0.0000
   109 F5       0.9337  11.3032  -0.2939   F         2 RES2   0.0000
   110 F6       0.6932  12.6302   1.5182   F         2 RES2   0.0000
   111 P2       6.7244   7.2436   2.4497   P.3       3 RES3  -1.0000
   112 F7       7.5917   6.5427   3.6001   F         3 RES3   0.0000
   113 F8       5.8390   7.9505   1.3155   F         3 RES3   0.0000
   114 F9       5.4009   6.9841   3.3121   F         3 RES3   0.0000
   115 F10      6.5435   5.8347   1.7373   F         3 RES3   0.0000
   116 F11      8.0422   7.5080   1.5888   F         3 RES3   0.0000
   117 F12      6.8997   8.6585   3.1663   F         3 RES3   0.0000
   118 O5       7.1710   3.4693   3.5224   O.3       4 RES4   0.0000
@<TRIPOS>BOND
     1     1     6    1
     2     2    12    1
     3     3    49    1
     4     4    58    1
     5     5    95    1
     6     6    21    1
     7     7     1    1
     8     8     1    1
     9     9     1    1
    10    10     1    1
    11    11     1    1
    12    12    13    1
    13    14    12    1
    14    15    12    1
    15    16     2    1
    16    17    16   ar
    17    18    17    1
    18    19    17   ar
    19    20    19    1
    20    21    19   ar
    21    22    21   ar
    22    23    22    1
    23    24    16   ar
    24    25    24    1
    25    26     6    2
    26    27    26    1
    27    28    27    1
    28    29    27    1
    29    30    27    1
    30    31     7   ar
    31    32    31   ar
    32    33    32    1
    33    34    32   ar
    34    35    34    1
    35    36    34   ar
    36    37    36    1
    37    38     7   ar
    38    39     8    2
    39    40    39    1
    40    41    40    1
    41    42    40    1
    42    43    40    1
    43    44     8    1
    44    45    44   ar
    45    46    45    1
    46    47    45   ar
    47    48    47    1
    48    49    47   ar
    49    50    49   ar
    50    51    50    1
    51    52    44   ar
    52    53    52    1
    53    54     3    1
    54    55    54    1
    55    56    54    1
    56    57    54    1
    57    58    59    1
    58    60    58    1
    59    61    58    1
    60    62     4    1
    61    63    62   ar
    62    64    63    1
    63    65    63   ar
    64    66    65    1
    65    67     9    1
    66    68    67   ar
    67    69    68    1
    68    70    62   ar
    69    71    70    1
    70    72     9    2
    71    73    72    1
    72    74    73    1
    73    75    73    1
    74    76    73    1
    75    77    10   ar
    76    78    77   ar
    77    79    78    1
    78    80    78   ar
    79    81    80    1
    80    82    80   ar
    81    83    82    1
    82    84    10   ar
    83    85    11    2
    84    86    85    1
    85    87    86    1
    86    88    86    1
    87    89    86    1
    88    90    11    1
    89    91    90   ar
    90    92    91    1
    91    93    91   ar
    92    94    93    1
    93    95    93   ar
    94    96    95   ar
    95    97    96    1
    96    98    90   ar
    97    99    98    1
    98   100     5    1
    99   101   100    1
   100   102   100    1
   101   103   100    1
   102    22    24   ar
   103    26    31    1
   104    36    38   ar
   105    38    39    1
   106    50    52   ar
   107    65    67   ar
   108    68    70   ar
   109    72    77    1
   110    82    84   ar
   111    84    85    1
   112    96    98   ar
   113   104   105    1
   114   106   104    1
   115   107   104    1
   116   108   104    1
   117   109   104    1
   118   110   104    1
   119   111   112    1
   120   113   111    1
   121   114   111    1
   122   115   111    1
   123   116   111    1
   124   117   111    1
@<TRIPOS>SUBSTRUCTURE
     1 RES1        1 GROUP             0 ****  ****    0  
     2 RES2      104 GROUP             0 ****  ****    0  
     3 RES3      111 GROUP             0 ****  ****    0  
     4 RES4      118 GROUP             0 ****  ****    0  
@<TRIPOS>CRYSIN
   18.4550   16.4501   17.2240   90.0000  114.8100   90.0000    14     1
