@<TRIPOS>MOLECULE
MEKNIZ
   119   131     1     0     0
SMALL
NO_CHARGES
****
Generated from the CSD

@<TRIPOS>ATOM
     1 Fe1      7.1349  18.0166   2.8854   Fe        1 RES1   0.0000
     2 O1       4.9249  16.6691   4.2173   O.3       1 RES1   0.0000
     3 O2       6.1058  18.3338   5.5861   O.3       1 RES1   0.0000
     4 O3       4.5809  19.0670   3.8202   O.3       1 RES1   0.0000
     5 N1       6.0339  16.5498   3.4128   N.2       1 RES1   0.0000
     6 N2       7.1706  18.4903   4.7389   N.2       1 RES1   0.0000
     7 N3       5.5285  19.0663   2.8277   N.2       1 RES1   0.0000
     8 B1       4.8246  18.0224   4.8659   B         1 RES1   0.0000
     9 C1       6.5140  15.3569   3.2455   C.2       1 RES1   0.0000
    10 O4       5.8830  14.2509   3.6748   O.3       1 RES1   0.0000
    11 C2       6.6156  13.3324   4.4423   C.ar      1 RES1   0.0000
    12 C3       7.5739  13.7261   5.3056   C.ar      1 RES1   0.0000
    13 C4       8.1952  12.7030   6.0835   C.ar      1 RES1   0.0000
    14 C5       7.8306  11.4317   5.9820   C.ar      1 RES1   0.0000
    15 C6       6.8714  11.0957   5.1025   C.ar      1 RES1   0.0000
    16 C7       6.2315  12.0149   4.3142   C.ar      1 RES1   0.0000
    17 C8       8.0883  19.3323   5.1060   C.2       1 RES1   0.0000
    18 O5       8.1089  19.9537   6.3109   O.3       1 RES1   0.0000
    19 C9       7.9011  21.3215   6.2613   C.ar      1 RES1   0.0000
    20 C10      7.0832  21.8804   5.3114   C.ar      1 RES1   0.0000
    21 C11      7.0077  23.2771   5.2064   C.ar      1 RES1   0.0000
    22 C12      7.6926  24.0444   6.0974   C.ar      1 RES1   0.0000
    23 C13      8.4159  23.4577   7.1107   C.ar      1 RES1   0.0000
    24 C14      8.5791  22.0836   7.1638   C.ar      1 RES1   0.0000
    25 C15      5.1937  19.5713   1.6862   C.2       1 RES1   0.0000
    26 O6       4.0346  20.1563   1.3330   O.3       1 RES1   0.0000
    27 C16      3.3929  21.0204   2.2240   C.ar      1 RES1   0.0000
    28 C17      2.0453  20.8704   2.3741   C.ar      1 RES1   0.0000
    29 C18      1.3629  21.7551   3.1958   C.ar      1 RES1   0.0000
    30 C19      2.0375  22.7380   3.8341   C.ar      1 RES1   0.0000
    31 C20      3.3743  22.8759   3.6517   C.ar      1 RES1   0.0000
    32 C21      4.0698  22.0229   2.8288   C.ar      1 RES1   0.0000
    33 C22      3.6309  18.0247   5.9058   C.3       1 RES1   0.0000
    34 C23      3.1902  19.4080   6.3617   C.3       1 RES1   0.0000
    35 C24      2.0919  19.3905   7.4050   C.3       1 RES1   0.0000
    36 C25      1.6515  20.8022   7.7951   C.3       1 RES1   0.0000
    37 H1       7.7822  14.5435   5.3899   H         1 RES1   0.0000
    38 H2       8.8437  13.1142   6.5787   H         1 RES1   0.0000
    39 H3       8.2234  10.9327   6.7864   H         1 RES1   0.0000
    40 H4       6.6179  10.3811   5.0552   H         1 RES1   0.0000
    41 H5       5.5556  11.8103   3.6009   H         1 RES1   0.0000
    42 H6       6.5946  21.2887   4.5012   H         1 RES1   0.0000
    43 H7       6.3920  23.7711   4.2473   H         1 RES1   0.0000
    44 H8       7.5438  24.8493   5.7592   H         1 RES1   0.0000
    45 H9       8.8696  23.9968   7.7213   H         1 RES1   0.0000
    46 H10      9.1856  21.5645   7.7559   H         1 RES1   0.0000
    47 H11      1.5119  20.0600   1.8582   H         1 RES1   0.0000
    48 H12      0.4117  21.6146   3.2547   H         1 RES1   0.0000
    49 H13      1.7212  23.2445   4.4435   H         1 RES1   0.0000
    50 H14      3.9292  23.4953   4.2473   H         1 RES1   0.0000
    51 H15      4.9950  22.0911   2.7007   H         1 RES1   0.0000
    52 H16      3.9347  17.5876   6.7287   H         1 RES1   0.0000
    53 H17      2.8733  17.6127   5.5399   H         1 RES1   0.0000
    54 H18      3.9367  19.8619   6.6364   H         1 RES1   0.0000
    55 H19      2.7414  19.8870   5.4938   H         1 RES1   0.0000
    56 H20      2.4613  18.7762   8.2753   H         1 RES1   0.0000
    57 H21      1.2090  18.8815   6.9018   H         1 RES1   0.0000
    58 H22      1.1423  20.8123   8.2291   H         1 RES1   0.0000
    59 H23      2.4220  21.4140   8.2522   H         1 RES1   0.0000
    60 H24      1.0466  21.2134   6.9364   H         1 RES1   0.0000
    61 N1F      8.2358  16.5498   2.3579   N.2       1 RES1   0.0000
    62 O1F      9.3448  16.6691   1.5535   O.3       1 RES1   0.0000
    63 B1F      9.4452  18.0224   0.9049   B         1 RES1   0.0000
    64 O2F      8.1640  18.3338   0.1847   O.3       1 RES1   0.0000
    65 N2F      7.0991  18.4903   1.0318   N.2       1 RES1   0.0000
    66 C8F      6.1815  19.3323   0.6648   C.2       1 RES1   0.0000
    67 O5F      6.1608  19.9537  -0.5401   O.3       1 RES1   0.0000
    68 C9F      6.3686  21.3215  -0.4905   C.ar      1 RES1   0.0000
    69 C10F     7.1866  21.8804   0.4594   C.ar      1 RES1   0.0000
    70 C11F     7.2620  23.2771   0.5644   C.ar      1 RES1   0.0000
    71 C12F     6.5772  24.0444  -0.3266   C.ar      1 RES1   0.0000
    72 C13F     5.8539  23.4577  -1.3400   C.ar      1 RES1   0.0000
    73 C14F     5.6907  22.0836  -1.3931   C.ar      1 RES1   0.0000
    74 H10F     5.0842  21.5645  -1.9851   H         1 RES1   0.0000
    75 H9F      5.4001  23.9968  -1.9505   H         1 RES1   0.0000
    76 H8F      6.7259  24.8493   0.0115   H         1 RES1   0.0000
    77 H7F      7.8778  23.7711   1.5235   H         1 RES1   0.0000
    78 H6F      7.6752  21.2887   1.2696   H         1 RES1   0.0000
    79 N3F      8.7413  19.0663   2.9431   N.2       1 RES1   0.0000
    80 O3F      9.6889  19.0670   1.9505   O.3       1 RES1   0.0000
    81 C22F    10.6388  18.0247  -0.1350   C.3       1 RES1   0.0000
    82 C23F    11.0796  19.4080  -0.5909   C.3       1 RES1   0.0000
    83 C24F    12.1779  19.3905  -1.6343   C.3       1 RES1   0.0000
    84 C25F    12.6183  20.8022  -2.0244   C.3       1 RES1   0.0000
    85 H22F    13.1274  20.8123  -2.4583   H         1 RES1   0.0000
    86 H23F    11.8478  21.4140  -2.4814   H         1 RES1   0.0000
    87 H24F    13.2232  21.2134  -1.1657   H         1 RES1   0.0000
    88 H20F    11.8084  18.7762  -2.5045   H         1 RES1   0.0000
    89 H21F    13.0607  18.8815  -1.1311   H         1 RES1   0.0000
    90 H18F    10.3330  19.8619  -0.8656   H         1 RES1   0.0000
    91 H19F    11.5284  19.8870   0.2770   H         1 RES1   0.0000
    92 H16F    10.3350  17.5876  -0.9579   H         1 RES1   0.0000
    93 H17F    11.3965  17.6127   0.2308   H         1 RES1   0.0000
    94 C15F     9.0760  19.5713   4.0845   C.2       1 RES1   0.0000
    95 O6F     10.2351  20.1563   4.4377   O.3       1 RES1   0.0000
    96 C16F    10.8769  21.0204   3.5467   C.ar      1 RES1   0.0000
    97 C17F    12.2245  20.8704   3.3967   C.ar      1 RES1   0.0000
    98 C18F    12.9069  21.7551   2.5749   C.ar      1 RES1   0.0000
    99 C19F    12.2323  22.7380   1.9367   C.ar      1 RES1   0.0000
   100 C20F    10.8954  22.8759   2.1190   C.ar      1 RES1   0.0000
   101 C21F    10.2000  22.0229   2.9419   C.ar      1 RES1   0.0000
   102 H15F     9.2747  22.0911   3.0700   H         1 RES1   0.0000
   103 H14F    10.3406  23.4953   1.5235   H         1 RES1   0.0000
   104 H13F    12.5486  23.2445   1.3273   H         1 RES1   0.0000
   105 H12F    13.8581  21.6146   2.5160   H         1 RES1   0.0000
   106 H11F    12.7578  20.0600   3.9126   H         1 RES1   0.0000
   107 C1F      7.7558  15.3569   2.5253   C.2       1 RES1   0.0000
   108 O4F      8.3867  14.2509   2.0959   O.3       1 RES1   0.0000
   109 C2F      7.6542  13.3324   1.3284   C.ar      1 RES1   0.0000
   110 C3F      6.6959  13.7261   0.4651   C.ar      1 RES1   0.0000
   111 C4F      6.0746  12.7030  -0.3128   C.ar      1 RES1   0.0000
   112 C5F      6.4391  11.4317  -0.2112   C.ar      1 RES1   0.0000
   113 C6F      7.3984  11.0957   0.6683   C.ar      1 RES1   0.0000
   114 C7F      8.0383  12.0149   1.4565   C.ar      1 RES1   0.0000
   115 H5F      8.7141  11.8103   2.1698   H         1 RES1   0.0000
   116 H4F      7.6518  10.3811   0.7156   H         1 RES1   0.0000
   117 H3F      6.0463  10.9327  -1.0157   H         1 RES1   0.0000
   118 H2F      5.4261  13.1142  -0.8079   H         1 RES1   0.0000
   119 H1F      6.4875  14.5435   0.3809   H         1 RES1   0.0000
@<TRIPOS>BOND
     1     1     5    1
     2     2     5    1
     3     3     6    1
     4     4     7    1
     5     5     9    2
     6     6     1    1
     7     7     1    1
     8     8     2    1
     9     9    10    1
    10    10    11    1
    11    11    12   ar
    12    12    13   ar
    13    13    14   ar
    14    14    15   ar
    15    15    16   ar
    16    16    11   ar
    17    17     6    2
    18    18    17    1
    19    19    18    1
    20    20    19   ar
    21    21    20   ar
    22    22    21   ar
    23    23    22   ar
    24    24    19   ar
    25    25     7    2
    26    26    25    1
    27    27    26    1
    28    28    27   ar
    29    29    28   ar
    30    30    29   ar
    31    31    30   ar
    32    32    27   ar
    33    33     8    1
    34    34    33    1
    35    35    34    1
    36    36    35    1
    37    37    12    1
    38    38    13    1
    39    39    14    1
    40    40    15    1
    41    41    16    1
    42    42    20    1
    43    43    21    1
    44    44    22    1
    45    45    23    1
    46    46    24    1
    47    47    28    1
    48    48    29    1
    49    49    30    1
    50    50    31    1
    51    51    32    1
    52    52    33    1
    53    53    33    1
    54    54    34    1
    55    55    34    1
    56    56    35    1
    57    57    35    1
    58    58    36    1
    59    59    36    1
    60    60    36    1
    61    61     1    1
    62    62    61    1
    63    63    62    1
    64    64    63    1
    65    65     1    1
    66    66    25    1
    67    67    66    1
    68    68    67    1
    69    69    68   ar
    70    70    69   ar
    71    71    70   ar
    72    72    71   ar
    73    73    68   ar
    74    74    73    1
    75    75    72    1
    76    76    71    1
    77    77    70    1
    78    78    69    1
    79    79     1    1
    80    80    63    1
    81    81    63    1
    82    82    81    1
    83    83    82    1
    84    84    83    1
    85    85    84    1
    86    86    84    1
    87    87    84    1
    88    88    83    1
    89    89    83    1
    90    90    82    1
    91    91    82    1
    92    92    81    1
    93    93    81    1
    94    94    17    1
    95    95    94    1
    96    96    95    1
    97    97    96   ar
    98    98    97   ar
    99    99    98   ar
   100   100    99   ar
   101   101    96   ar
   102   102   101    1
   103   103   100    1
   104   104    99    1
   105   105    98    1
   106   106    97    1
   107   107     9    1
   108   108   107    1
   109   109   108    1
   110   110   109   ar
   111   111   110   ar
   112   112   111   ar
   113   113   112   ar
   114   114   109   ar
   115   115   114    1
   116   116   113    1
   117   117   112    1
   118   118   111    1
   119   119   110    1
   120     3     8    1
   121     4     8    1
   122    23    24   ar
   123    31    32   ar
   124    61   107    2
   125    64    65    1
   126    65    66    2
   127    72    73   ar
   128    79    80    1
   129    79    94    2
   130   100   101   ar
   131   113   114   ar
@<TRIPOS>SUBSTRUCTURE
     1 RES1        1 GROUP             0 ****  ****    0  
@<TRIPOS>CRYSIN
   17.7180   25.0750   13.4450   90.0000  120.8600   90.0000    15     1
