@<TRIPOS>MOLECULE
MEMHUI
   119   129     4     0     0
SMALL
USER_CHARGES
****
Generated from the CSD

@<TRIPOS>ATOM
     1 Fe1      4.5025   2.7173   3.6413   Fe        1 RES1   2.0000
     2 N1       5.1496   1.2401   4.7945   N.ar      1 RES1   0.0000
     3 N2       3.5303   3.1011   5.2121   N.ar      1 RES1   0.0000
     4 N3       3.4620   4.2676   3.0050   N.ar      1 RES1   0.0000
     5 N4       3.2285   1.5535   2.6891   N.ar      1 RES1   0.0000
     6 N5       5.5003   2.3965   2.0784   N.ar      1 RES1   0.0000
     7 N6       6.0850   3.8455   4.0284   N.ar      1 RES1   0.0000
     8 C1       5.9817   0.2492   4.4581   C.ar      1 RES1   0.0000
     9 C2       6.3576  -0.7424   5.3443   C.ar      1 RES1   0.0000
    10 C3       5.8568  -0.7212   6.6305   C.ar      1 RES1   0.0000
    11 C4       4.9932   0.2951   7.0002   C.ar      1 RES1   0.0000
    12 C5       4.6604   1.2560   6.0673   C.ar      1 RES1   0.0000
    13 C6       3.7362   2.3656   6.3206   C.ar      1 RES1   0.0000
    14 C7       3.1354   2.6879   7.5183   C.ar      1 RES1   0.0000
    15 C8       2.2952   3.7999   7.5611   C.ar      1 RES1   0.0000
    16 C9       2.0445   4.5393   6.4018   C.ar      1 RES1   0.0000
    17 C10      2.6987   4.1512   5.2414   C.ar      1 RES1   0.0000
    18 C11      2.6062   4.7937   3.9230   C.ar      1 RES1   0.0000
    19 C12      1.7269   5.8112   3.6048   C.ar      1 RES1   0.0000
    20 C13      1.7132   6.3055   2.3131   C.ar      1 RES1   0.0000
    21 C14      2.5870   5.7830   1.3841   C.ar      1 RES1   0.0000
    22 C15      3.4488   4.7744   1.7638   C.ar      1 RES1   0.0000
    23 C16      1.9769   1.2370   3.0615   C.ar      1 RES1   0.0000
    24 C17      1.1346   0.4676   2.2750   C.ar      1 RES1   0.0000
    25 C18      1.5981  -0.0145   1.0646   C.ar      1 RES1   0.0000
    26 C19      2.8806   0.3065   0.6579   C.ar      1 RES1   0.0000
    27 C20      3.6584   1.1046   1.4783   C.ar      1 RES1   0.0000
    28 C21      4.9840   1.6167   1.1068   C.ar      1 RES1   0.0000
    29 C22      5.6189   1.4628  -0.1052   C.ar      1 RES1   0.0000
    30 C23      6.8169   2.1548  -0.3226   C.ar      1 RES1   0.0000
    31 C24      7.3670   2.9289   0.6941   C.ar      1 RES1   0.0000
    32 C25      6.6662   3.0353   1.8847   C.ar      1 RES1   0.0000
    33 C26      7.0120   3.8786   3.0320   C.ar      1 RES1   0.0000
    34 C27      8.1452   4.6693   3.1010   C.ar      1 RES1   0.0000
    35 C28      8.3432   5.4666   4.2148   C.ar      1 RES1   0.0000
    36 C29      7.4067   5.4333   5.2313   C.ar      1 RES1   0.0000
    37 C30      6.3003   4.6149   5.1070   C.ar      1 RES1   0.0000
    38 C31      0.9336   5.2271   8.8728   C.3       1 RES1   0.0000
    39 C32      0.5280   5.3987  10.3054   C.ar      1 RES1   0.0000
    40 C33      1.0726   4.6796  11.3304   C.ar      1 RES1   0.0000
    41 C34      0.6623   4.9106  12.6703   C.ar      1 RES1   0.0000
    42 C35      1.2338   4.2059  13.7528   C.ar      1 RES1   0.0000
    43 C36      0.8453   4.4740  15.0423   C.ar      1 RES1   0.0000
    44 C37     -0.1283   5.4438  15.3034   C.ar      1 RES1   0.0000
    45 C38     -0.7040   6.1307  14.2843   C.ar      1 RES1   0.0000
    46 C39     -0.3258   5.8844  12.9366   C.ar      1 RES1   0.0000
    47 C40     -0.8783   6.6031  11.8566   C.ar      1 RES1   0.0000
    48 C41     -0.4623   6.3710  10.5776   C.ar      1 RES1   0.0000
    49 C42      8.4404   2.9237  -1.8922   C.3       1 RES1   0.0000
    50 C43      8.6396   2.8923  -3.3749   C.ar      1 RES1   0.0000
    51 C44      7.8898   3.7511  -4.2030   C.ar      1 RES1   0.0000
    52 C45      8.0972   3.7697  -5.5511   C.ar      1 RES1   0.0000
    53 C46      9.0468   2.9102  -6.1472   C.ar      1 RES1   0.0000
    54 C47      9.2658   2.8871  -7.5489   C.ar      1 RES1   0.0000
    55 C48     10.1583   2.0217  -8.1022   C.ar      1 RES1   0.0000
    56 C49     10.8911   1.1493  -7.2875   C.ar      1 RES1   0.0000
    57 C50     10.7242   1.1594  -5.9282   C.ar      1 RES1   0.0000
    58 C51      9.7869   2.0282  -5.3284   C.ar      1 RES1   0.0000
    59 C52      9.5671   2.0571  -3.9276   C.ar      1 RES1   0.0000
    60 O1       1.7709   4.0750   8.7634   O.3       1 RES1   0.0000
    61 O2       7.3328   2.0413  -1.5627   O.3       1 RES1   0.0000
    62 H4       6.3334   0.2270   3.5652   H         1 RES1   0.0000
    63 H5       6.9578  -1.4394   5.0690   H         1 RES1   0.0000
    64 H6       6.1040  -1.4021   7.2595   H         1 RES1   0.0000
    65 H7       4.6312   0.3320   7.8889   H         1 RES1   0.0000
    66 H8       3.2918   2.1599   8.3056   H         1 RES1   0.0000
    67 H9       1.4428   5.2866   6.4100   H         1 RES1   0.0000
    68 H10      1.1338   6.1669   4.2709   H         1 RES1   0.0000
    69 H11      1.1046   7.0057   2.0672   H         1 RES1   0.0000
    70 H12      2.5961   6.1153   0.4842   H         1 RES1   0.0000
    71 H13      4.0644   4.4240   1.1165   H         1 RES1   0.0000
    72 H14      1.6521   1.5581   3.9056   H         1 RES1   0.0000
    73 H15      0.2423   0.2701   2.5675   H         1 RES1   0.0000
    74 H16      1.0346  -0.5605   0.5120   H         1 RES1   0.0000
    75 H17      3.2262  -0.0215  -0.1761   H         1 RES1   0.0000
    76 H18      5.2491   0.8951  -0.7849   H         1 RES1   0.0000
    77 H19      8.2063   3.3794   0.5737   H         1 RES1   0.0000
    78 H20      8.7850   4.6620   2.3856   H         1 RES1   0.0000
    79 H21      9.1140   6.0350   4.2782   H         1 RES1   0.0000
    80 H22      7.5238   5.9707   6.0183   H         1 RES1   0.0000
    81 H23      5.6586   4.5951   5.8202   H         1 RES1   0.0000
    82 H24      1.4162   6.0047   8.5814   H         1 RES1   0.0000
    83 H25      0.1521   5.1126   8.3261   H         1 RES1   0.0000
    84 H26      1.7377   4.0132  11.1430   H         1 RES1   0.0000
    85 H27      1.9018   3.5381  13.5844   H         1 RES1   0.0000
    86 H28      1.2465   3.9909  15.7690   H         1 RES1   0.0000
    87 H29     -0.3939   5.6217  16.2091   H         1 RES1   0.0000
    88 H30     -1.3726   6.7925  14.4749   H         1 RES1   0.0000
    89 H31     -1.5530   7.2655  12.0218   H         1 RES1   0.0000
    90 H32     -0.8460   6.8722   9.8534   H         1 RES1   0.0000
    91 H33      9.2382   2.6239  -1.4495   H         1 RES1   0.0000
    92 H34      8.2361   3.8194  -1.6124   H         1 RES1   0.0000
    93 H35      7.2249   4.3243  -3.8161   H         1 RES1   0.0000
    94 H36      7.5974   4.3786  -6.1004   H         1 RES1   0.0000
    95 H37      8.7824   3.4940  -8.1134   H         1 RES1   0.0000
    96 H38     10.2829   2.0058  -9.0538   H         1 RES1   0.0000
    97 H39     11.5160   0.5380  -7.6849   H         1 RES1   0.0000
    98 H40     11.2481   0.5727  -5.3786   H         1 RES1   0.0000
    99 H41     10.0800   1.4790  -3.3583   H         1 RES1   0.0000
   100 N7       5.1864   5.0468  -1.2397   N.1       2 RES2   0.0000
   101 C53      4.0064   3.2869  -2.6776   C.3       2 RES2   0.0000
   102 C54      4.6454   4.2846  -1.8766   C.1       2 RES2   0.0000
   103 H1       4.6601   2.8838  -3.2541   H         2 RES2   0.0000
   104 H2       3.3265   3.7068  -3.2101   H         2 RES2   0.0000
   105 H3       3.6088   2.6144  -2.1186   H         2 RES2   0.0000
   106 P1       5.3411   6.4944   8.6459   P.3       3 RES3  -1.0000
   107 F1       6.7173   7.0025   8.0058   F         3 RES3   0.0000
   108 F2       3.9753   6.0040   9.3035   F         3 RES3   0.0000
   109 F3       6.0307   6.5007  10.0761   F         3 RES3   0.0000
   110 F4       4.6728   6.4882   7.1996   F         3 RES3   0.0000
   111 F5       4.8932   8.0080   8.8503   F         3 RES3   0.0000
   112 F6       5.7890   4.9840   8.4206   F         3 RES3   0.0000
   113 P2       9.8411   0.5902   3.3275   P.3       4 RES4  -1.0000
   114 F7       9.3546  -0.5710   4.2998   F         4 RES4   0.0000
   115 F8      10.3052   1.7188   2.3376   F         4 RES4   0.0000
   116 F9       8.5289   0.3463   2.4340   F         4 RES4   0.0000
   117 F10     11.1468   0.7877   4.2137   F         4 RES4   0.0000
   118 F11     10.6201  -0.4858   2.4369   F         4 RES4   0.0000
   119 F12      9.0412   1.6334   4.2142   F         4 RES4   0.0000
@<TRIPOS>BOND
     1     1     2    1
     2     2     8   ar
     3     3     1    1
     4     4     1    1
     5     5     1    1
     6     6     1    1
     7     7     1    1
     8     8     9   ar
     9     9    10   ar
    10    10    11   ar
    11    11    12   ar
    12    12     2   ar
    13    13     3   ar
    14    14    13   ar
    15    15    14   ar
    16    16    15   ar
    17    17     3   ar
    18    18     4   ar
    19    19    18   ar
    20    20    19   ar
    21    21    20   ar
    22    22     4   ar
    23    23     5   ar
    24    24    23   ar
    25    25    24   ar
    26    26    25   ar
    27    27     5   ar
    28    28     6   ar
    29    29    28   ar
    30    30    29   ar
    31    31    30   ar
    32    32     6   ar
    33    33     7   ar
    34    34    33   ar
    35    35    34   ar
    36    36    35   ar
    37    37     7   ar
    38    38    39    1
    39    39    40   ar
    40    40    41   ar
    41    41    42   ar
    42    42    43   ar
    43    43    44   ar
    44    44    45   ar
    45    45    46   ar
    46    46    41   ar
    47    47    46   ar
    48    48    39   ar
    49    49    50    1
    50    50    51   ar
    51    51    52   ar
    52    52    53   ar
    53    53    54   ar
    54    54    55   ar
    55    55    56   ar
    56    56    57   ar
    57    57    58   ar
    58    58    53   ar
    59    59    50   ar
    60    60    15    1
    61    61    30    1
    62    62     8    1
    63    63     9    1
    64    64    10    1
    65    65    11    1
    66    66    14    1
    67    67    16    1
    68    68    19    1
    69    69    20    1
    70    70    21    1
    71    71    22    1
    72    72    23    1
    73    73    24    1
    74    74    25    1
    75    75    26    1
    76    76    29    1
    77    77    31    1
    78    78    34    1
    79    79    35    1
    80    80    36    1
    81    81    37    1
    82    82    38    1
    83    83    38    1
    84    84    40    1
    85    85    42    1
    86    86    43    1
    87    87    44    1
    88    88    45    1
    89    89    47    1
    90    90    48    1
    91    91    49    1
    92    92    49    1
    93    93    51    1
    94    94    52    1
    95    95    54    1
    96    96    55    1
    97    97    56    1
    98    98    57    1
    99    99    59    1
   100    12    13    1
   101    16    17   ar
   102    17    18    1
   103    21    22   ar
   104    26    27   ar
   105    27    28    1
   106    31    32   ar
   107    32    33    1
   108    36    37   ar
   109    38    60    1
   110    47    48   ar
   111    49    61    1
   112    58    59   ar
   113   100   102    3
   114   101   102    1
   115   103   101    1
   116   104   101    1
   117   105   101    1
   118   106   107    1
   119   108   106    1
   120   109   106    1
   121   110   106    1
   122   111   106    1
   123   112   106    1
   124   113   114    1
   125   115   113    1
   126   116   113    1
   127   117   113    1
   128   118   113    1
   129   119   113    1
@<TRIPOS>SUBSTRUCTURE
     1 RES1        1 GROUP             0 ****  ****    0  
     2 RES2      100 GROUP             0 ****  ****    0  
     3 RES3      106 GROUP             0 ****  ****    0  
     4 RES4      113 GROUP             0 ****  ****    0  
@<TRIPOS>CRYSIN
   12.6400   13.6170   14.7440   85.1940   85.9420   76.6070     2     1
