@<TRIPOS>MOLECULE
MEMJUJ
   153   176     1     0     0
SMALL
NO_CHARGES
****
Generated from the CSD

@<TRIPOS>ATOM
     1 Fe1     -0.4838   0.8193  18.8056   Fe        1 RES1   0.0000
     2 Fe2      1.9381  -0.4535  20.4546   Fe        1 RES1   0.0000
     3 Fe3      0.2177   1.6634  22.1236   Fe        1 RES1   0.0000
     4 Fe4     -2.4484   0.7754  24.1542   Fe        1 RES1   0.0000
     5 Fe5     -2.6029  -0.0468  21.3375   Fe        1 RES1   0.0000
     6 Fe6     -3.9246   0.7081  18.8398   Fe        1 RES1   0.0000
     7 Fe7     -5.5407  -1.8902  20.5486   Fe        1 RES1   0.0000
     8 Fe8     -5.3949   0.7388  22.0040   Fe        1 RES1   0.0000
     9 Fe9     -4.7773  -1.7044  23.6188   Fe        1 RES1   0.0000
    10 Fe10    -8.2261  -1.3065  22.6163   Fe        1 RES1   0.0000
    11 Cl1    -10.5276  -1.4513  23.0435   Cl        1 RES1   0.0000
    12 O1       0.4913   0.6159  20.4546   O.3       1 RES1   0.0000
    13 O2      -1.4264   0.7798  22.5081   O.3       1 RES1   0.0000
    14 O3      -2.2182   0.6715  19.6031   O.3       1 RES1   0.0000
    15 O4      -4.5004  -0.1814  20.4546   O.3       1 RES1   0.0000
    16 O5      -3.7797  -0.1331  23.0407   O.3       1 RES1   0.0000
    17 O6      -6.2084  -1.1558  22.2660   O.3       1 RES1   0.0000
    18 O7      -0.3529  -1.1426  18.4069   O.co2     1 RES1   0.0000
    19 O8       1.2713  -2.1374  19.6971   O.co2     1 RES1   0.0000
    20 O9      -1.3153   1.0724  16.9857   O.co2     1 RES1   0.0000
    21 O10     -3.3638   1.8668  17.3275   O.co2     1 RES1   0.0000
    22 O11      1.3265   0.9890  17.7148   O.co2     1 RES1   0.0000
    23 O12      2.8203  -0.2516  18.6889   O.co2     1 RES1   0.0000
    24 O13     -0.4052   2.7914  18.8825   O.co2     1 RES1   0.0000
    25 O14     -0.5549   3.2318  21.1382   O.co2     1 RES1   0.0000
    26 O15      3.3366   0.7710  21.1809   O.co2     1 RES1   0.0000
    27 O16      2.0911   2.5603  21.8160   O.co2     1 RES1   0.0000
    28 O17      1.2046   0.3658  23.2884   O.co2     1 RES1   0.0000
    29 O18      2.0959  -1.4074  22.2005   O.co2     1 RES1   0.0000
    30 O19      0.1238   2.9084  23.7185   O.co2     1 RES1   0.0000
    31 O20     -1.0788   1.6356  25.2251   O.co2     1 RES1   0.0000
    32 O21     -3.1398   2.6071  23.7698   O.co2     1 RES1   0.0000
    33 O22     -4.0829   2.2764  21.7334   O.co2     1 RES1   0.0000
    34 O23     -3.7037   0.7066  25.7064   O.co2     1 RES1   0.0000
    35 O24     -5.2908  -0.8485  25.2678   O.co2     1 RES1   0.0000
    36 O25     -1.6851  -0.9188  24.7267   O.co2     1 RES1   0.0000
    37 O26     -3.1832  -2.6217  24.4191   O.co2     1 RES1   0.0000
    38 O27     -2.0358  -1.9004  21.3204   O.co2     1 RES1   0.0000
    39 O28     -4.1164  -2.7183  21.8530   O.co2     1 RES1   0.0000
    40 O29     -5.4252   1.8873  18.8199   O.co2     1 RES1   0.0000
    41 O30     -6.6509   1.6839  20.7338   O.co2     1 RES1   0.0000
    42 O31     -4.2585  -0.7022  17.6038   O.co2     1 RES1   0.0000
    43 O32     -4.5321  -2.5676  18.9651   O.co2     1 RES1   0.0000
    44 O33     -6.4265  -3.6326  20.6540   O.co2     1 RES1   0.0000
    45 O34     -8.2440  -3.1674  21.9185   O.co2     1 RES1   0.0000
    46 O35     -6.9471  -1.2362  19.3638   O.co2     1 RES1   0.0000
    47 O36     -8.6559  -0.6247  20.7338   O.co2     1 RES1   0.0000
    48 O37     -6.2500   1.5522  23.5761   O.co2     1 RES1   0.0000
    49 O38     -8.2010   0.5969  23.4479   O.co2     1 RES1   0.0000
    50 O39     -7.7847  -2.0921  24.3906   O.co2     1 RES1   0.0000
    51 O40     -5.9029  -3.2932  24.1286   O.co2     1 RES1   0.0000
    52 N1       0.5018  -3.1981  17.8259   N.pl3     1 RES1   0.0000
    53 N2      -2.3786   2.3862  15.4136   N.pl3     1 RES1   0.0000
    54 N3       3.2878   0.8090  16.6297   N.3       1 RES1   0.0000
    55 N4      -0.0026   4.8893  19.7284   N.pl3     1 RES1   0.0000
    56 N5       4.3482   2.6978  21.8986   N.3       1 RES1   0.0000
    57 N6       2.5925  -1.1016  24.3735   N.pl3     1 RES1   0.0000
    58 N7       0.1034   3.5712  25.9969   N.pl3     1 RES1   0.0000
    59 N8      -3.7097   4.3905  22.2973   N.pl3     1 RES1   0.0000
    60 N9      -5.3438   0.4170  27.1105   N.pl3     1 RES1   0.0000
    61 N10     -1.6138  -2.8997  25.9741   N.pl3     1 RES1   0.0000
    62 N11     -2.3468  -4.1447  21.6708   N.pl3     1 RES1   0.0000
    63 N12     -7.4112   2.9055  19.1588   N.pl3     1 RES1   0.0000
    64 N13     -4.2604  -2.9289  16.7892   N.pl3     1 RES1   0.0000
    65 N14     -8.0824  -5.1424  20.8334   N.pl3     1 RES1   0.0000
    66 N15     -8.9364  -0.6379  18.5094   N.pl3     1 RES1   0.0000
    67 N16     -7.9719   2.2238  24.7865   N.pl3     1 RES1   0.0000
    68 N17     -7.6675  -4.2295  25.1995   N.pl3     1 RES1   0.0000
    69 C1       0.4587  -2.0643  18.7515   C.2       1 RES1   0.0000
    70 C2      -2.3155   1.6034  16.6952   C.2       1 RES1   0.0000
    71 C3       2.5308   0.4960  17.8231   C.2       1 RES1   0.0000
    72 C4      -0.1928   3.4629  19.9762   C.2       1 RES1   0.0000
    73 C5       3.2101   1.9180  21.5711   C.2       1 RES1   0.0000
    74 C6       1.8609  -0.6247  23.2172   C.2       1 RES1   0.0000
    75 C7      -0.3809   2.5880  24.8463   C.2       1 RES1   0.0000
    76 C8      -3.6039   3.0474  22.7957   C.2       1 RES1   0.0000
    77 C9      -4.7034  -0.0263  25.8517   C.2       1 RES1   0.0000
    78 C10     -2.2735  -1.9326  24.9631   C.2       1 RES1   0.0000
    79 C11     -2.8225  -2.8338  21.6109   C.2       1 RES1   0.0000
    80 C12     -6.3218   2.0292  19.5119   C.2       1 RES1   0.0000
    81 C13     -4.2838  -1.8756  17.8430   C.2       1 RES1   0.0000
    82 C14     -7.5334  -3.8638  21.2265   C.2       1 RES1   0.0000
    83 C15     -8.0894  -0.9100  19.6657   C.2       1 RES1   0.0000
    84 C16     -7.3968   1.4454  23.9236   C.2       1 RES1   0.0000
    85 C17     -7.1225  -3.0547  24.4618   C.2       1 RES1   0.0000
    86 C18     -0.4831  -3.1557  16.6326   C.3       1 RES1   0.0000
    87 C19      0.2752  -2.3452  15.7013   C.3       1 RES1   0.0000
    88 C20      2.0049  -4.2412  17.5212   C.3       1 RES1   0.0000
    89 C21      1.1925  -5.0810  18.1933   C.2       1 RES1   0.0000
    90 C22     -0.9974   2.3525  14.6105   C.3       1 RES1   0.0000
    91 C23     -1.2438   1.1119  13.7788   C.3       1 RES1   0.0000
    92 C24     -3.9376   2.8675  14.7244   C.3       1 RES1   0.0000
    93 C25     -3.3677   4.0467  15.4649   C.3       1 RES1   0.0000
    94 C26      4.9160   0.3599  16.9402   C.3       1 RES1   0.0000
    95 C27      4.6345  -0.9158  16.4218   C.2       1 RES1   0.0000
    96 C28      3.1564   2.1199  15.7497   C.3       1 RES1   0.0000
    97 C29      2.7002   1.2889  14.7728   C.2       1 RES1   0.0000
    98 C30      0.7672   5.1907  18.2645   C.3       1 RES1   0.0000
    99 C31     -0.6684   5.5609  17.6892   C.3       1 RES1   0.0000
   100 C32      1.0909   5.9442  21.2179   C.2       1 RES1   0.0000
   101 C33     -0.0165   6.1417  20.7024   C.3       1 RES1   0.0000
   102 C34      5.9455   1.9751  20.8163   C.3       1 RES1   0.0000
   103 C35      5.7026   1.4542  22.1435   C.3       1 RES1   0.0000
   104 C36      4.3957   4.1403  22.8840   C.3       1 RES1   0.0000
   105 C37      4.5394   4.8133  21.9442   C.2       1 RES1   0.0000
   106 C38      2.4382  -0.2077  25.6352   C.3       1 RES1   0.0000
   107 C39      3.4398   0.9831  25.5356   C.3       1 RES1   0.0000
   108 C40      3.2738  -2.6773  24.6726   C.3       1 RES1   0.0000
   109 C41      4.2912  -1.8873  24.2226   C.2       1 RES1   0.0000
   110 C42      1.1771   4.6567  25.5498   C.3       1 RES1   0.0000
   111 C43      0.3134   6.0202  25.4159   C.3       1 RES1   0.0000
   112 C44     -0.1413   3.0504  27.5121   C.3       1 RES1   0.0000
   113 C45     -1.4277   3.7643  27.5121   C.3       1 RES1   0.0000
   114 C46     -4.5810   4.9537  21.1752   C.3       1 RES1   0.0000
   115 C47     -3.5692   4.8893  20.0901   C.3       1 RES1   0.0000
   116 C48     -2.8727   5.3063  23.2884   C.3       1 RES1   0.0000
   117 C49     -3.7170   5.7437  24.5444   C.3       1 RES1   0.0000
   118 C50     -4.8185   1.7220  28.1273   C.3       1 RES1   0.0000
   119 C51     -3.9699   0.8997  28.9361   C.3       1 RES1   0.0000
   120 C52     -6.8252  -0.2063  27.4352   C.3       1 RES1   0.0000
   121 C53     -6.4120  -1.5610  27.9963   C.3       1 RES1   0.0000
   122 C54     -0.2798  -2.3744  26.6150   C.3       1 RES1   0.0000
   123 C55     -0.5903  -1.3738  27.7456   C.3       1 RES1   0.0000
   124 C56     -2.5542  -3.9457  26.9225   C.3       1 RES1   0.0000
   125 C57     -1.9613  -4.8703  26.1792   C.2       1 RES1   0.0000
   126 C58     -0.7579  -4.3261  21.3860   C.3       1 RES1   0.0000
   127 C59     -0.1220  -4.1681  22.6704   C.3       1 RES1   0.0000
   128 C60     -3.3086  -5.3926  22.2603   C.3       1 RES1   0.0000
   129 C61     -3.5874  -5.8066  20.9246   C.3       1 RES1   0.0000
   130 C62     -8.6701   3.1455  20.0103   C.3       1 RES1   0.0000
   131 C63     -8.5996   4.2837  20.9701   C.3       1 RES1   0.0000
   132 C64     -7.1966   3.7014  17.8060   C.3       1 RES1   0.0000
   133 C65     -7.6864   2.5617  16.8319   C.3       1 RES1   0.0000
   134 C66     -4.8186  -4.4241  16.9430   C.3       1 RES1   0.0000
   135 C67     -3.4052  -5.1103  17.1424   C.3       1 RES1   0.0000
   136 C68     -3.8096  -2.2457  15.4079   C.3       1 RES1   0.0000
   137 C69     -5.0778  -1.7571  14.8070   C.3       1 RES1   0.0000
   138 C70     -9.5367  -5.4482  21.5369   C.3       1 RES1   0.0000
   139 C71    -10.5012  -4.8908  20.5258   C.3       1 RES1   0.0000
   140 C72     -7.3046  -6.3128  20.0616   C.3       1 RES1   0.0000
   141 C73     -7.7921  -6.0773  18.7942   C.2       1 RES1   0.0000
   142 C74     -8.3697  -0.8032  17.1395   C.3       1 RES1   0.0000
   143 C75     -8.5795  -2.3364  17.0313   C.3       1 RES1   0.0000
   144 C76    -10.3140   0.0117  18.7088   C.3       1 RES1   0.0000
   145 C77    -11.2345  -1.1631  18.9053   C.3       1 RES1   0.0000
   146 C78     -6.9498   3.1806  25.6011   C.3       1 RES1   0.0000
   147 C79     -7.2936   4.3802  24.7039   C.3       1 RES1   0.0000
   148 C80     -9.7549   2.2940  24.8406   C.3       1 RES1   0.0000
   149 C81     -9.5491   1.5274  25.9656   C.2       1 RES1   0.0000
   150 C82     -9.2558  -3.7336  26.3444   C.2       1 RES1   0.0000
   151 C83     -9.5157  -4.4241  25.2678   C.3       1 RES1   0.0000
   152 C84     -6.9387  -6.1695  24.5216   C.2       1 RES1   0.0000
   153 C85     -6.5203  -5.5945  25.6324   C.3       1 RES1   0.0000
@<TRIPOS>BOND
     1     1    12    1
     2     2    12    1
     3     3    12    1
     4     4    13    1
     5     5    13    1
     6     6    14    1
     7     7    15    1
     8     8    15    1
     9     9    16    1
    10    10    11    1
    11    13     3    1
    12    14     1    1
    13    15     5    1
    14    16     4    1
    15    17     7    1
    16    18     1    1
    17    19     2    1
    18    20     1    1
    19    21     6    1
    20    22     1    1
    21    23     2    1
    22    24     1    1
    23    25     3    1
    24    26     2    1
    25    27     3    1
    26    28     3    1
    27    29     2    1
    28    30     3    1
    29    31     4    1
    30    32     4    1
    31    33     8    1
    32    34     4    1
    33    35     9    1
    34    36     4    1
    35    37     9    1
    36    38     5    1
    37    39     7    1
    38    40     6    1
    39    41     8    1
    40    42     6    1
    41    43     7    1
    42    44     7    1
    43    45    10    1
    44    46     7    1
    45    47    10    1
    46    48     8    1
    47    49    10    1
    48    50    10    1
    49    51     9    1
    50    52    69    1
    51    53    70    1
    52    54    71    1
    53    55    72    1
    54    56    73    1
    55    57    74    1
    56    58    75    1
    57    59    76    1
    58    60    77    1
    59    61    78    1
    60    62    79    1
    61    63    80    1
    62    64    81    1
    63    65    82    1
    64    66    83    1
    65    67    84    1
    66    68    85    1
    67    69    18   un
    68    70    20   un
    69    71    22   un
    70    72    24   un
    71    73    26   un
    72    74    28   un
    73    75    30   un
    74    76    32   un
    75    77    34   un
    76    78    36   un
    77    79    38   un
    78    80    40   un
    79    81    42   un
    80    82    44   un
    81    83    46   un
    82    84    48   un
    83    85    50   un
    84    86    52    1
    85    87    86    1
    86    88    52    1
    87    89    88    1
    88    90    53    1
    89    91    90    1
    90    92    53    1
    91    93    92    1
    92    94    54    1
    93    95    94    1
    94    96    54    1
    95    97    96    1
    96    98    55    1
    97    99    98    1
    98   100   101    1
    99   101    55    1
   100   102   103    1
   101   103    56    1
   102   104    56    1
   103   105   104    1
   104   106    57    1
   105   107   106    1
   106   108    57    1
   107   109   108    1
   108   110    58    1
   109   111   110    1
   110   112    58    1
   111   113   112    1
   112   114    59    1
   113   115   114    1
   114   116    59    1
   115   117   116    1
   116   118    60    1
   117   119   118    1
   118   120    60    1
   119   121   120    1
   120   122    61    1
   121   123   122    1
   122   124    61    1
   123   125   124    1
   124   126    62    1
   125   127   126    1
   126   128    62    1
   127   129   128    1
   128   130    63    1
   129   131   130    1
   130   132    63    1
   131   133   132    1
   132   134    64    1
   133   135   134    1
   134   136    64    1
   135   137   136    1
   136   138    65    1
   137   139   138    1
   138   140    65    1
   139   141   140    1
   140   142    66    1
   141   143   142    1
   142   144    66    1
   143   145   144    1
   144   146    67    1
   145   147   146    1
   146   148    67    1
   147   149   148    1
   148   150   151    1
   149   151    68    1
   150   152   153    1
   151   153    68    1
   152     5    14    1
   153     5    16    1
   154     6    15    1
   155     8    17    1
   156     8    16    1
   157     9    17    1
   158     9    39    1
   159    10    17    1
   160    19    69   un
   161    21    70   un
   162    23    71   un
   163    25    72   un
   164    27    73   un
   165    29    74   un
   166    31    75   un
   167    33    76   un
   168    35    77   un
   169    37    78   un
   170    39    79   un
   171    41    80   un
   172    43    81   un
   173    45    82   un
   174    47    83   un
   175    49    84   un
   176    51    85   un
@<TRIPOS>SUBSTRUCTURE
     1 RES1        1 GROUP             0 ****  ****    0  
@<TRIPOS>CRYSIN
   32.0800   14.6300   32.1200   90.0000  117.5400   90.0000    14     1
