@<TRIPOS>MOLECULE
MEMROM
   143   165     5     0     0
SMALL
NO_CHARGES
****
Generated from the CSD

@<TRIPOS>ATOM
     1 C1       6.8503   2.9653  22.0545   C.1       1 RES1   0.0000
     2 C2       6.1271   4.0460  22.7232   C.3       1 RES1   0.0000
     3 H1       6.2108   4.8534  22.2103   H         1 RES1   0.0000
     4 H2       6.4954   4.1835  23.5991   H         1 RES1   0.0000
     5 H3       5.1996   3.8102  22.8001   H         1 RES1   0.0000
     6 C3       6.4334   2.0900  18.3103   C.1       1 RES1   0.0000
     7 C4       5.6416   2.8599  17.3575   C.3       1 RES1   0.0000
     8 H4       5.8592   3.7923  17.4404   H         1 RES1   0.0000
     9 H5       4.7091   2.7313  17.5390   H         1 RES1   0.0000
    10 H6       5.8391   2.5651  16.4639   H         1 RES1   0.0000
    11 C5       9.7179  -2.0614  19.2513   C.3       1 RES1   0.0000
    12 H7       9.0332  -2.5741  18.7956   H         1 RES1   0.0000
    13 H8      10.5767  -2.3597  18.9159   H         1 RES1   0.0000
    14 C6       8.1644  -2.4044  21.2318   C.3       1 RES1   0.0000
    15 H9       8.1778  -2.5133  22.1945   H         1 RES1   0.0000
    16 H10      7.7342  -3.1903  20.8590   H         1 RES1   0.0000
    17 C7      10.5231  -1.4290  21.5633   C.3       1 RES1   0.0000
    18 H11     11.3384  -1.2504  21.0701   H         1 RES1   0.0000
    19 H12     10.7743  -1.8863  22.3819   H         1 RES1   0.0000
    20 C8       9.6459  -2.3776  20.7268   C.3       1 RES1   0.0000
    21 C9      10.1900  -3.8066  20.9261   C.3       1 RES1   0.0000
    22 H13     10.1615  -4.0317  21.8592   H         1 RES1   0.0000
    23 H14     11.0957  -3.8513  20.6124   H         1 RES1   0.0000
    24 H15      9.6493  -4.4265  20.4309   H         1 RES1   0.0000
    25 C18      5.9848  -1.5023  19.4959   C.ar      1 RES1   0.0000
    26 C19      6.0802  -2.7420  18.8883   C.ar      1 RES1   0.0000
    27 H28      6.7532  -3.3279  19.1467   H         1 RES1   0.0000
    28 C20      5.1862  -3.1207  17.9000   C.ar      1 RES1   0.0000
    29 H29      5.2699  -3.9602  17.5094   H         1 RES1   0.0000
    30 C21      4.1885  -2.2918  17.4897   C.ar      1 RES1   0.0000
    31 H30      3.6160  -2.5455  16.8032   H         1 RES1   0.0000
    32 C22      4.0412  -1.0486  18.1190   C.ar      1 RES1   0.0000
    33 H31      3.3464  -0.4805  17.8724   H         1 RES1   0.0000
    34 C23      4.9284  -0.6681  19.1093   C.ar      1 RES1   0.0000
    35 H32      4.8213   0.1572  19.5255   H         1 RES1   0.0000
    36 C24      5.9563  -0.8485  22.2517   C.ar      1 RES1   0.0000
    37 C25      5.8960  -1.8077  23.2716   C.ar      1 RES1   0.0000
    38 H33      6.4518  -2.5526  23.2381   H         1 RES1   0.0000
    39 C26      5.0172  -1.6541  24.3270   C.ar      1 RES1   0.0000
    40 H34      5.0054  -2.2865  25.0095   H         1 RES1   0.0000
    41 C27      4.1533  -0.5680  24.3861   C.ar      1 RES1   0.0000
    42 H35      3.5591  -0.4752  25.0943   H         1 RES1   0.0000
    43 C28      4.1868   0.3698  23.3722   C.ar      1 RES1   0.0000
    44 H36      3.6076   1.0968  23.3978   H         1 RES1   0.0000
    45 C29      5.0774   0.2394  22.3208   C.ar      1 RES1   0.0000
    46 H37      5.0925   0.8824  21.6501   H         1 RES1   0.0000
    47 C30      8.9746  -0.1465  23.6543   C.ar      1 RES1   0.0000
    48 C31      8.2983   0.9074  24.2776   C.ar      1 RES1   0.0000
    49 H38      8.2665   1.7434  23.8673   H         1 RES1   0.0000
    50 C32      7.6722   0.7181  25.5027   C.ar      1 RES1   0.0000
    51 H39      7.2085   1.4237  25.8933   H         1 RES1   0.0000
    52 C33      7.7275  -0.4948  26.1477   C.ar      1 RES1   0.0000
    53 H40      7.3006  -0.6181  26.9644   H         1 RES1   0.0000
    54 C34      8.4306  -1.5291  25.5599   C.ar      1 RES1   0.0000
    55 H41      8.4808  -2.3526  25.9899   H         1 RES1   0.0000
    56 C35      9.0667  -1.3540  24.3270   C.ar      1 RES1   0.0000
    57 H42      9.5539  -2.0542  23.9541   H         1 RES1   0.0000
    58 C36     11.1911   1.1432  22.6384   C.ar      1 RES1   0.0000
    59 C37     11.0170   2.4847  22.9323   C.ar      1 RES1   0.0000
    60 H43     10.2017   2.8956  22.7528   H         1 RES1   0.0000
    61 C38     12.0499   3.2278  23.4945   C.ar      1 RES1   0.0000
    62 H44     11.9160   4.1246  23.6997   H         1 RES1   0.0000
    63 C39     13.2803   2.6402  23.7529   C.ar      1 RES1   0.0000
    64 H45     13.9700   3.1403  24.1238   H         1 RES1   0.0000
    65 C40     13.4745   1.2933  23.4531   C.ar      1 RES1   0.0000
    66 H46     14.2998   0.8932  23.6129   H         1 RES1   0.0000
    67 C41     12.4332   0.5538  22.9165   C.ar      1 RES1   0.0000
    68 H47     12.5588  -0.3501  22.7370   H         1 RES1   0.0000
    69 C42      8.7771  -0.3180  17.1287   C.ar      1 RES1   0.0000
    70 C43      8.4373  -1.5112  16.4619   C.ar      1 RES1   0.0000
    71 H48      8.5360  -2.3258  16.8999   H         1 RES1   0.0000
    72 C44      7.9585  -1.4898  15.1600   C.ar      1 RES1   0.0000
    73 H49      7.7660  -2.2865  14.7220   H         1 RES1   0.0000
    74 C45      7.7693  -0.2876  14.5189   C.ar      1 RES1   0.0000
    75 H50      7.4111  -0.2644  13.6607   H         1 RES1   0.0000
    76 C46      8.1142   0.8824  15.1580   C.ar      1 RES1   0.0000
    77 H51      8.0054   1.6934  14.7161   H         1 RES1   0.0000
    78 C47      8.6197   0.8717  16.4461   C.ar      1 RES1   0.0000
    79 H52      8.8541   1.6738  16.8545   H         1 RES1   0.0000
    80 C48     11.2229   0.2179  18.4050   C.ar      1 RES1   0.0000
    81 C49     11.7737  -0.1072  17.1543   C.ar      1 RES1   0.0000
    82 H53     11.2647  -0.5752  16.5310   H         1 RES1   0.0000
    83 C50     13.0711   0.2697  16.8446   C.ar      1 RES1   0.0000
    84 H54     13.4293   0.0339  16.0181   H         1 RES1   0.0000
    85 C51     13.8478   0.9914  17.7461   C.ar      1 RES1   0.0000
    86 H55     14.7083   1.2611  17.5193   H         1 RES1   0.0000
    87 C52     13.3272   1.2969  18.9633   C.ar      1 RES1   0.0000
    88 H56     13.8462   1.7541  19.5847   H         1 RES1   0.0000
    89 C53     12.0248   0.9289  19.2848   C.ar      1 RES1   0.0000
    90 H57     11.6816   1.1665  20.1173   H         1 RES1   0.0000
    91 B1      11.1710   4.6730  20.1094   B         1 RES1   0.0000
    92 H58     11.9729   4.2335  20.7209   H         1 RES1   0.0000
    93 B2       9.4735   5.1410  20.7939   B         1 RES1   0.0000
    94 H59      9.1939   5.0052  21.8493   H         1 RES1   0.0000
    95 B3       8.2230   5.0052  19.4367   B         1 RES1   0.0000
    96 H60      7.1650   4.7676  19.6221   H         1 RES1   0.0000
    97 B4       9.1236   4.5158  17.8606   B         1 RES1   0.0000
    98 H61      8.6231   3.9781  17.0439   H         1 RES1   0.0000
    99 B5      10.9484   4.2961  18.2709   B         1 RES1   0.0000
   100 H62     11.6113   3.6208  17.7106   H         1 RES1   0.0000
   101 B6      11.5276   5.8644  18.8429   B         1 RES1   0.0000
   102 H63     12.5722   6.1556  18.6575   H         1 RES1   0.0000
   103 B7      10.6638   6.3664  20.3343   B         1 RES1   0.0000
   104 H64     11.1459   6.9773  21.1115   H         1 RES1   0.0000
   105 B8       8.9395   6.5682  19.9121   B         1 RES1   0.0000
   106 H65      8.3100   7.3185  20.4152   H         1 RES1   0.0000
   107 B9       8.7269   6.2199  18.1860   B         1 RES1   0.0000
   108 H66      7.9685   6.7397  17.5824   H         1 RES1   0.0000
   109 B10     10.3172   5.7501  17.5351   B         1 RES1   0.0000
   110 H67     10.5801   5.9627  16.4895   H         1 RES1   0.0000
   111 B11     10.2000   7.0416  18.7423   B         1 RES1   0.0000
   112 H68     10.3942   8.0937  18.4859   H         1 RES1   0.0000
   113 N2       7.4211   2.1311  21.5416   N.1       1 RES1   0.0000
   114 N3       7.1164   1.5434  19.0303   N.1       1 RES1   0.0000
   115 Fe1      8.3670   0.8923  20.3647   Fe        1 RES1   0.0000
   116 P1       7.1194  -0.9383  20.8351   P.3       1 RES1   0.0000
   117 P2       9.7611   0.1752  22.0140   P.3       1 RES1   0.0000
   118 P3       9.5036  -0.2681  18.8094   P.3       1 RES1   0.0000
   119 Sn1      9.5338   3.0981  19.6818   Sn        1 RES1   0.0000
   120 C10      4.6204  12.2951  15.2389   C.1       2 RES2   0.0000
   121 C11      6.0015  12.1022  14.9410   C.3       2 RES2   0.0000
   122 H16      6.2208  12.5666  14.1302   H         2 RES2   0.0000
   123 H17      6.1773  11.1644  14.8286   H         2 RES2   0.0000
   124 H18      6.5355  12.4452  15.6610   H         2 RES2   0.0000
   125 N4       3.5574  12.4612  15.4756   N.1       2 RES2   0.0000
   126 C12      9.5087   3.6298   6.2968   C.1       3 RES3   0.0000
   127 C13     10.4830   2.9813   7.0917   C.3       3 RES3   0.0000
   128 H19     10.0778   2.6687   7.9025   H         3 RES3   0.0000
   129 H20     11.1877   3.5976   7.3009   H         3 RES3   0.0000
   130 H21     10.8446   2.2347   6.6065   H         3 RES3   0.0000
   131 N5       8.7051   4.1531   5.6596   N.1       3 RES3   0.0000
   132 C14      1.8197  14.5583   2.2883   C.1       4 RES4   0.0000
   133 C15      2.8158  15.3265   1.5939   C.3       4 RES4   0.0000
   134 H22      3.3849  14.7352   1.0929   H         4 RES4   0.0000
   135 H23      3.3431  15.8177   2.2291   H         4 RES4   0.0000
   136 H24      2.3855  15.9409   0.9923   H         4 RES4   0.0000
   137 N6       0.8873  14.0296   2.7321   N.1       4 RES4   0.0000
   138 N1      15.8048  17.1056   1.1994   N.1       5 RES5   0.0000
   139 C16     14.9946  16.3536   0.9686   C.1       5 RES5   0.0000
   140 C17     13.9449  15.4033   0.6766   C.3       5 RES5   0.0000
   141 H25     13.5934  15.0532   1.4992   H         5 RES5   0.0000
   142 H26     14.3015  14.6852   0.1499   H         5 RES5   0.0000
   143 H27     13.2435  15.8409   0.1894   H         5 RES5   0.0000
@<TRIPOS>BOND
     1     1     2    1
     2     2     3    1
     3     4     2    1
     4     5     2    1
     5     6     7    1
     6     7     8    1
     7     9     7    1
     8    10     7    1
     9    11    12    1
    10    13    11    1
    11    14    15    1
    12    16    14    1
    13    17    18    1
    14    19    17    1
    15    20    11    1
    16    21    20    1
    17    22    21    1
    18    23    21    1
    19    24    21    1
    20    25    26   ar
    21    26    27    1
    22    28    26   ar
    23    29    28    1
    24    30    28   ar
    25    31    30    1
    26    32    30   ar
    27    33    32    1
    28    34    25   ar
    29    35    34    1
    30    36    37   ar
    31    37    38    1
    32    39    37   ar
    33    40    39    1
    34    41    39   ar
    35    42    41    1
    36    43    41   ar
    37    44    43    1
    38    45    36   ar
    39    46    45    1
    40    47    48   ar
    41    48    49    1
    42    50    48   ar
    43    51    50    1
    44    52    50   ar
    45    53    52    1
    46    54    52   ar
    47    55    54    1
    48    56    47   ar
    49    57    56    1
    50    58    59   ar
    51    59    60    1
    52    61    59   ar
    53    62    61    1
    54    63    61   ar
    55    64    63    1
    56    65    63   ar
    57    66    65    1
    58    67    58   ar
    59    68    67    1
    60    69    70   ar
    61    70    71    1
    62    72    70   ar
    63    73    72    1
    64    74    72   ar
    65    75    74    1
    66    76    74   ar
    67    77    76    1
    68    78    69   ar
    69    79    78    1
    70    80    81   ar
    71    81    82    1
    72    83    81   ar
    73    84    83    1
    74    85    83   ar
    75    86    85    1
    76    87    85   ar
    77    88    87    1
    78    89    80   ar
    79    90    89    1
    80    91    92    1
    81    93    91    1
    82    94    93    1
    83    95    93    1
    84    96    95    1
    85    97    95    1
    86    98    97    1
    87    99    91    1
    88   100    99    1
    89   101    91    1
    90   102   101    1
    91   103    91    1
    92   104   103    1
    93   105    93    1
    94   106   105    1
    95   107    95    1
    96   108   107    1
    97   109    97    1
    98   110   109    1
    99   111   101    1
   100   112   111    1
   101   113     1    3
   102   114     6    3
   103   115   113    1
   104   116    14    1
   105   117    17    1
   106   118    11    1
   107   119    91    1
   108    14    20    1
   109    17    20    1
   110    25   116    1
   111    32    34   ar
   112    36   116    1
   113    43    45   ar
   114    47   117    1
   115    54    56   ar
   116    58   117    1
   117    65    67   ar
   118    69   118    1
   119    76    78   ar
   120    80   118    1
   121    87    89   ar
   122    93   103    1
   123    93   119    1
   124    95   105    1
   125    95   119    1
   126    97    99    1
   127    97   107    1
   128    97   119    1
   129    99   101    1
   130    99   109    1
   131    99   119    1
   132   101   103    1
   133   101   109    1
   134   103   105    1
   135   103   111    1
   136   105   107    1
   137   105   111    1
   138   107   109    1
   139   107   111    1
   140   109   111    1
   141   114   115    1
   142   115   116    1
   143   115   117    1
   144   115   118    1
   145   115   119    1
   146   120   121    1
   147   121   122    1
   148   123   121    1
   149   124   121    1
   150   125   120    3
   151   126   127    1
   152   127   128    1
   153   129   127    1
   154   130   127    1
   155   131   126    3
   156   132   133    1
   157   133   134    1
   158   135   133    1
   159   136   133    1
   160   137   132    3
   161   138   139    3
   162   139   140    1
   163   140   141    1
   164   142   140    1
   165   143   140    1
@<TRIPOS>SUBSTRUCTURE
     1 RES1        1 GROUP             0 ****  ****    0  
     2 RES2      120 GROUP             0 ****  ****    0  
     3 RES3      126 GROUP             0 ****  ****    0  
     4 RES4      132 GROUP             0 ****  ****    0  
     5 RES5      138 GROUP             0 ****  ****    0  
@<TRIPOS>CRYSIN
   16.7406   17.8630   19.7267   90.0000   90.0000   90.0000    19     1
