@<TRIPOS>MOLECULE
MEZYEX
   111   115     2     0     0
SMALL
USER_CHARGES
****
Generated from the CSD

@<TRIPOS>ATOM
     1 Fe1      4.4780   4.3101   5.9879   Fe        1 RES1   1.0000
     2 H1       4.5006   3.6383   4.6960   H         1 RES1   0.0000
     3 N1       3.4341   1.1183   7.7865   N.3       1 RES1   0.0000
     4 N2       4.4230   5.1735   7.5974   N.1       1 RES1   0.0000
     5 N3       4.4150   5.7016   8.5723   N.1       1 RES1   0.0000
     6 P1       2.5394   3.2777   6.2680   P.3       1 RES1   0.0000
     7 P2       5.5599   2.5508   6.7692   P.3       1 RES1   0.0000
     8 P3       6.2583   5.3386   5.1463   P.3       1 RES1   0.0000
     9 P4       3.6980   5.9464   4.7088   P.3       1 RES1   0.0000
    10 C1       1.0206   4.2842   6.5631   C.3       1 RES1   0.0000
    11 H2       0.8412   4.8217   5.7511   H         1 RES1   0.0000
    12 H3       0.2571   3.6667   6.6827   H         1 RES1   0.0000
    13 C2       1.0661   5.2296   7.7652   C.3       1 RES1   0.0000
    14 H4       0.2225   5.7252   7.8234   H         1 RES1   0.0000
    15 H5       1.8086   5.8604   7.6562   H         1 RES1   0.0000
    16 H6       1.1971   4.7094   8.5858   H         1 RES1   0.0000
    17 C3       2.0322   2.1842   4.8821   C.3       1 RES1   0.0000
    18 H7       1.9832   2.7388   4.0630   H         1 RES1   0.0000
    19 H8       2.7548   1.5216   4.7418   H         1 RES1   0.0000
    20 C4       0.7180   1.4200   5.0040   C.3       1 RES1   0.0000
    21 H9       0.5791   0.8791   4.1983   H         1 RES1   0.0000
    22 H10     -0.0218   2.0558   5.1041   H         1 RES1   0.0000
    23 H11      0.7533   0.8331   5.7889   H         1 RES1   0.0000
    24 C5       2.4253   2.1784   7.7380   C.3       1 RES1   0.0000
    25 H12      2.5090   2.7321   8.5539   H         1 RES1   0.0000
    26 H13      1.5280   1.7610   7.7517   H         1 RES1   0.0000
    27 C6       3.0126   0.1159   8.7799   C.3       1 RES1   0.0000
    28 H14      3.6749  -0.6059   8.8167   H         1 RES1   0.0000
    29 H15      2.1408  -0.2516   8.5241   H         1 RES1   0.0000
    30 H16      2.9428   0.5383   9.6608   H         1 RES1   0.0000
    31 C7       4.7454   1.6395   8.1455   C.3       1 RES1   0.0000
    32 H17      5.3256   0.8872   8.4206   H         1 RES1   0.0000
    33 H18      4.6491   2.2465   8.9202   H         1 RES1   0.0000
    34 C8       5.8670   1.2405   5.5251   C.3       1 RES1   0.0000
    35 H19      4.9959   0.9900   5.1280   H         1 RES1   0.0000
    36 H20      6.4160   1.6325   4.8015   H         1 RES1   0.0000
    37 C9       6.5502  -0.0344   5.9878   C.3       1 RES1   0.0000
    38 H21      6.7177  -0.6140   5.2156   H         1 RES1   0.0000
    39 H22      5.9735  -0.5004   6.6270   H         1 RES1   0.0000
    40 H23      7.4024   0.1894   6.4179   H         1 RES1   0.0000
    41 C10      7.2234   2.7890   7.5202   C.3       1 RES1   0.0000
    42 H24      7.5441   1.9152   7.8572   H         1 RES1   0.0000
    43 H25      7.8484   3.0810   6.8101   H         1 RES1   0.0000
    44 C11      7.2811   3.7984   8.6616   C.3       1 RES1   0.0000
    45 H26      8.2170   3.9710   8.8983   H         1 RES1   0.0000
    46 H27      6.8097   3.4381   9.4418   H         1 RES1   0.0000
    47 H28      6.8553   4.6351   8.3808   H         1 RES1   0.0000
    48 C12      7.2064   6.5633   6.1128   C.3       1 RES1   0.0000
    49 H29      7.8586   6.0998   6.6787   H         1 RES1   0.0000
    50 H30      6.5934   7.0804   6.6767   H         1 RES1   0.0000
    51 H31      7.6760   7.1683   5.5022   H         1 RES1   0.0000
    52 C13      7.5437   4.4997   4.1766   C.3       1 RES1   0.0000
    53 H32      8.1768   4.0602   4.7836   H         1 RES1   0.0000
    54 H33      8.0197   5.1571   3.6270   H         1 RES1   0.0000
    55 H34      7.1286   3.8290   3.5952   H         1 RES1   0.0000
    56 C14      5.3162   6.3400   3.9398   C.3       1 RES1   0.0000
    57 H35      5.3957   6.0038   3.0119   H         1 RES1   0.0000
    58 H36      5.5398   7.3036   3.9794   H         1 RES1   0.0000
    59 C15      2.5297   5.7240   3.3366   C.3       1 RES1   0.0000
    60 H37      1.6277   5.5899   3.6947   H         1 RES1   0.0000
    61 H38      2.7907   4.9407   2.8088   H         1 RES1   0.0000
    62 H39      2.5409   6.5205   2.7670   H         1 RES1   0.0000
    63 C16      3.1276   7.5079   5.4477   C.3       1 RES1   0.0000
    64 H40      2.2206   7.3901   5.8008   H         1 RES1   0.0000
    65 H41      3.1232   8.2097   4.7637   H         1 RES1   0.0000
    66 H42      3.7315   7.7648   6.1751   H         1 RES1   0.0000
    67 B1       4.0027  11.2504   1.5828   B         2 RES2  -1.0000
    68 F1       1.8634  13.4042   1.0244   F         2 RES2   0.0000
    69 F2       2.2444  16.0185   1.1737   F         2 RES2   0.0000
    70 F3       4.7090  17.0453   1.7010   F         2 RES2   0.0000
    71 F4       6.7830  15.3423   2.2035   F         2 RES2   0.0000
    72 F5       6.4103  12.7109   2.1706   F         2 RES2   0.0000
    73 F6       2.0087   9.1235   2.5626   F         2 RES2   0.0000
    74 F7       0.2506   7.9016   1.0365   F         2 RES2   0.0000
    75 F8      -0.2848   8.7978  -1.4825   F         2 RES2   0.0000
    76 F9       1.1391  10.9125  -2.4792   F         2 RES2   0.0000
    77 F10      3.0952  11.9985  -1.0509   F         2 RES2   0.0000
    78 F11      4.5324   8.4307   1.8133   F         2 RES2   0.0000
    79 F12      6.4025   6.9796   0.6072   F         2 RES2   0.0000
    80 F13      8.0974   8.1358  -1.1938   F         2 RES2   0.0000
    81 F14      7.8411  10.7988  -1.7484   F         2 RES2   0.0000
    82 F15      6.0086  12.2650  -0.5542   F         2 RES2   0.0000
    83 F16      1.8973  11.9393   3.4098   F         2 RES2   0.0000
    84 F17      1.8742  11.7889   6.0622   F         2 RES2   0.0000
    85 F18      4.0344  10.7603   7.3980   F         2 RES2   0.0000
    86 F19      6.1912   9.9173   5.9826   F         2 RES2   0.0000
    87 F20      6.2570  10.0684   3.3627   F         2 RES2   0.0000
    88 C17      4.1356  12.8955   1.5362   C.ar      2 RES2   0.0000
    89 C18      3.1087  13.8106   1.3304   C.ar      2 RES2   0.0000
    90 C19      3.2793  15.1880   1.3990   C.ar      2 RES2   0.0000
    91 C20      4.5175  15.7122   1.6807   C.ar      2 RES2   0.0000
    92 C21      5.5623  14.8550   1.9188   C.ar      2 RES2   0.0000
    93 C22      5.3491  13.4893   1.8683   C.ar      2 RES2   0.0000
    94 C23      2.6539  10.6543   0.8466   C.ar      2 RES2   0.0000
    95 C24      1.8644   9.6101   1.3081   C.ar      2 RES2   0.0000
    96 C25      0.9052   8.9669   0.5435   C.ar      2 RES2   0.0000
    97 C26      0.6406   9.4077  -0.7326   C.ar      2 RES2   0.0000
    98 C27      1.3692  10.4656  -1.2330   C.ar      2 RES2   0.0000
    99 C28      2.3603  11.0328  -0.4591   C.ar      2 RES2   0.0000
   100 C29      5.1965  10.4492   0.7588   C.ar      2 RES2   0.0000
   101 C30      5.3473   9.0764   0.9464   C.ar      2 RES2   0.0000
   102 C31      6.2963   8.2931   0.3199   C.ar      2 RES2   0.0000
   103 C32      7.1449   8.8721  -0.5940   C.ar      2 RES2   0.0000
   104 C33      7.0146  10.2123  -0.8703   C.ar      2 RES2   0.0000
   105 C34      6.0523  10.9652  -0.2056   C.ar      2 RES2   0.0000
   106 C35      4.0498  10.9804   3.2136   C.ar      2 RES2   0.0000
   107 C36      2.9875  11.4141   4.0037   C.ar      2 RES2   0.0000
   108 C37      2.9489  11.3536   5.3832   C.ar      2 RES2   0.0000
   109 C38      4.0345  10.8427   6.0618   C.ar      2 RES2   0.0000
   110 C39      5.1214  10.4145   5.3388   C.ar      2 RES2   0.0000
   111 C40      5.1183  10.4947   3.9565   C.ar      2 RES2   0.0000
@<TRIPOS>BOND
     1     1     2    1
     2     3    24    1
     3     4     1    1
     4     5     4    3
     5     6     1    1
     6     7     1    1
     7     8     1    1
     8     9     1    1
     9    10     6    1
    10    11    10    1
    11    12    10    1
    12    13    10    1
    13    14    13    1
    14    15    13    1
    15    16    13    1
    16    17     6    1
    17    18    17    1
    18    19    17    1
    19    20    17    1
    20    21    20    1
    21    22    20    1
    22    23    20    1
    23    24     6    1
    24    25    24    1
    25    26    24    1
    26    27     3    1
    27    28    27    1
    28    29    27    1
    29    30    27    1
    30    31     3    1
    31    32    31    1
    32    33    31    1
    33    34     7    1
    34    35    34    1
    35    36    34    1
    36    37    34    1
    37    38    37    1
    38    39    37    1
    39    40    37    1
    40    41     7    1
    41    42    41    1
    42    43    41    1
    43    44    41    1
    44    45    44    1
    45    46    44    1
    46    47    44    1
    47    48     8    1
    48    49    48    1
    49    50    48    1
    50    51    48    1
    51    52     8    1
    52    53    52    1
    53    54    52    1
    54    55    52    1
    55    56     8    1
    56    57    56    1
    57    58    56    1
    58    59     9    1
    59    60    59    1
    60    61    59    1
    61    62    59    1
    62    63     9    1
    63    64    63    1
    64    65    63    1
    65    66    63    1
    66     7    31    1
    67     9    56    1
    68    67    88    1
    69    68    89    1
    70    69    90    1
    71    70    91    1
    72    71    92    1
    73    72    93    1
    74    73    95    1
    75    74    96    1
    76    75    97    1
    77    76    98    1
    78    77    99    1
    79    78   101    1
    80    79   102    1
    81    80   103    1
    82    81   104    1
    83    82   105    1
    84    83   107    1
    85    84   108    1
    86    85   109    1
    87    86   110    1
    88    87   111    1
    89    88    89   ar
    90    89    90   ar
    91    90    91   ar
    92    91    92   ar
    93    92    93   ar
    94    93    88   ar
    95    94    67    1
    96    95    94   ar
    97    96    95   ar
    98    97    96   ar
    99    98    97   ar
   100    99    94   ar
   101   100    67    1
   102   101   100   ar
   103   102   101   ar
   104   103   102   ar
   105   104   103   ar
   106   105   100   ar
   107   106    67    1
   108   107   106   ar
   109   108   107   ar
   110   109   108   ar
   111   110   109   ar
   112   111   106   ar
   113    98    99   ar
   114   104   105   ar
   115   110   111   ar
@<TRIPOS>SUBSTRUCTURE
     1 RES1        1 GROUP             0 ****  ****    0  
     2 RES2       67 GROUP             0 ****  ****    0  
@<TRIPOS>CRYSIN
   17.1436   13.5251   19.9083   90.0000   90.7060   90.0000    14     1
