@<TRIPOS>MOLECULE
MIMVUZ
   131   132     8     0     0
SMALL
USER_CHARGES
****
Generated from the CSD

@<TRIPOS>ATOM
     1 Fe1      3.1425  10.2344  13.0210   Fe        1 RES1   0.0000
     2 C1       2.0445   8.6357  13.0622   C.1       1 RES1   0.0000
     3 N1       1.4253   7.6618  13.1212   N.1       1 RES1   0.0000
     4 C2       4.1605   9.4503  11.5710   C.1       1 RES1  -1.0000
     5 N2       4.6642   9.0321  10.6227   N.1       1 RES1   0.0000
     6 C3       2.1186  11.0316  11.5817   C.1       1 RES1   0.0000
     7 N3       1.6007  11.4718  10.6370   N.1       1 RES1   0.0000
     8 C4       4.2830  11.8145  13.0962   C.1       1 RES1  -1.0000
     9 N4       4.9532  12.7554  13.1640   N.1       1 RES1   0.0000
    10 C5       2.0116  11.0573  14.3588   C.1       1 RES1   0.0000
    11 N5       1.3202  11.5595  15.1393   N.1       1 RES1   0.0000
    12 C6       4.2194   9.3690  14.3749   C.1       1 RES1  -1.0000
    13 N6       4.8283   8.8000  15.1732   N.1       1 RES1   0.0000
    14 C7       5.9813   6.3645  10.6495   C.2       2 RES2   0.0000
    15 N7       6.1081   6.4805  11.9478   N.pl3     2 RES2   1.0000
    16 C8       5.0567   6.1009  12.8819   C.3       2 RES2   0.0000
    17 C9       4.1482   5.0817  12.2657   C.3       2 RES2   0.0000
    18 C10      3.7174   5.5166  10.8959   C.3       2 RES2   0.0000
    19 N8       4.8966   5.8633  10.0887   N.pl3     2 RES2   0.0000
    20 C11      7.0860   6.7785   9.7583   C.ar      2 RES2   0.0000
    21 C12      7.7051   8.0333   9.9458   C.ar      2 RES2   0.0000
    22 C13      7.5230   5.9381   8.7385   C.ar      2 RES2   0.0000
    23 H1       4.5511   6.8710  13.1140   H         2 RES2   0.0000
    24 H2       5.4515   5.7342  13.6641   H         2 RES2   0.0000
    25 H3       3.3806   4.9757  12.8140   H         2 RES2   0.0000
    26 H4       4.6081   4.2534  12.1996   H         2 RES2   0.0000
    27 H5       3.1519   6.2766  10.9709   H         2 RES2   0.0000
    28 H6       3.2441   4.8095  10.4744   H         2 RES2   0.0000
    29 H7       7.4093   8.6133  10.6370   H         2 RES2   0.0000
    30 H8       7.1029   5.0955   8.6099   H         2 RES2   0.0000
    31 H9       6.9212   6.8258  12.2961   H         2 RES2   0.0000
    32 H10      4.8780   5.7242   9.1493   H         2 RES2   0.0000
    33 C13A     8.7405   8.4113   9.1207   C.ar      2 RES2   0.0000
    34 C11A     9.1775   7.5709   8.1009   C.ar      2 RES2   0.0000
    35 C7A     10.2822   7.9849   7.2098   C.2       2 RES2   0.0000
    36 N7A     10.1553   7.8690   5.9114   N.pl3     2 RES2   1.0000
    37 C8A     11.2068   8.2485   4.9774   C.3       2 RES2   0.0000
    38 C9A     12.1153   9.2678   5.5935   C.3       2 RES2   0.0000
    39 C10A    12.5460   8.8329   6.9633   C.3       2 RES2   0.0000
    40 N8A     11.3668   8.4862   7.7705   N.pl3     2 RES2   0.0000
    41 H10A    11.3855   8.6253   8.7099   H         2 RES2   0.0000
    42 H5A     13.1115   8.0728   6.8883   H         2 RES2   0.0000
    43 H6A     13.0194   9.5399   7.3848   H         2 RES2   0.0000
    44 H3A     12.8829   9.3738   5.0452   H         2 RES2   0.0000
    45 H4A     11.6554  10.0961   5.6596   H         2 RES2   0.0000
    46 H1A     11.7123   7.4784   4.7452   H         2 RES2   0.0000
    47 H2A     10.8120   8.6153   4.1951   H         2 RES2   0.0000
    48 H9A      9.3423   7.5237   5.5631   H         2 RES2   0.0000
    49 C12A     8.5584   6.3162   7.9134   C.ar      2 RES2   0.0000
    50 H7A      8.8542   5.7362   7.2223   H         2 RES2   0.0000
    51 H8A      9.1606   9.2540   9.2493   H         2 RES2   0.0000
    52 C14      6.0962   1.8229  10.6119   C.2       3 RES3   0.0000
    53 N9       7.1447   2.3849  10.0512   N.pl3     3 RES3   1.0000
    54 C15      8.3215   2.7563  10.8334   C.3       3 RES3   0.0000
    55 C16      8.1255   2.7695  12.1532   C.3       3 RES3   0.0000
    56 C17      7.1013   2.0103  12.8301   C.3       3 RES3   0.0000
    57 N10      6.0098   1.6586  11.9139   N.pl3     3 RES3   0.0000
    58 C18      4.9706   1.3851   9.7547   C.ar      3 RES3   0.0000
    59 C19      4.3945   0.1487   9.9315   C.ar      3 RES3   0.0000
    60 C20      4.5139   2.2350   8.7474   C.ar      3 RES3   0.0000
    61 H11      8.5936   3.6264  10.5637   H         3 RES3   0.0000
    62 H12      9.0145   2.1352  10.6405   H         3 RES3   0.0000
    63 H13      7.9640   3.6775  12.3800   H         3 RES3   0.0000
    64 H14      8.9484   2.4883  12.5372   H         3 RES3   0.0000
    65 H15      6.7509   2.5298  13.5444   H         3 RES3   0.0000
    66 H16      7.4840   1.2130  13.1765   H         3 RES3   0.0000
    67 H17      4.7114  -0.4307  10.6137   H         3 RES3   0.0000
    68 H18      4.9172   3.0868   8.6242   H         3 RES3   0.0000
    69 H19      7.1368   2.5529   9.1153   H         3 RES3   0.0000
    70 H20      5.2093   1.2984  12.2764   H         3 RES3   0.0000
    71 C20A     3.3538  -0.2491   9.1118   C.ar      3 RES3   0.0000
    72 C18A     2.8971   0.6008   8.1045   C.ar      3 RES3   0.0000
    73 C14A     1.7715   0.1630   7.2473   C.2       3 RES3   0.0000
    74 N9A      0.7230  -0.3990   7.8081   N.pl3     3 RES3   1.0000
    75 C15A    -0.4539  -0.7704   7.0258   C.3       3 RES3   0.0000
    76 C16A    -0.2579  -0.7836   5.7060   C.3       3 RES3   0.0000
    77 C17A     0.7664  -0.0243   5.0292   C.3       3 RES3   0.0000
    78 N10A     1.8579   0.3273   5.9453   N.pl3     3 RES3   0.0000
    79 H20A     2.6583   0.6876   5.5828   H         3 RES3   0.0000
    80 H15A     1.1168  -0.5439   4.3148   H         3 RES3   0.0000
    81 H16A     0.3837   0.7729   4.6827   H         3 RES3   0.0000
    82 H13A    -0.0963  -1.6916   5.4792   H         3 RES3   0.0000
    83 H14A    -1.0808  -0.5024   5.3220   H         3 RES3   0.0000
    84 H11A    -0.7259  -1.6404   7.2955   H         3 RES3   0.0000
    85 H12A    -1.1468  -0.1493   7.2187   H         3 RES3   0.0000
    86 H19A     0.7309  -0.5669   8.7439   H         3 RES3   0.0000
    87 C19A     3.4732   1.8373   7.9277   C.ar      3 RES3   0.0000
    88 H17A     3.1562   2.4167   7.2455   H         3 RES3   0.0000
    89 H18A     2.9505  -1.1008   9.2350   H         3 RES3   0.0000
    90 C21      3.6277   6.3539  17.7806   C.2       4 RES4   0.0000
    91 N11      3.6953   5.3840  18.6540   N.pl3     4 RES4   1.0000
    92 C22      4.8711   4.4875  18.7968   C.3       4 RES4   0.0000
    93 C23      6.0554   5.0763  18.0771   C.3       4 RES4   0.0000
    94 C24      5.6739   5.5633  16.7198   C.3       4 RES4   0.0000
    95 N12      4.5385   6.4959  16.8448   N.pl3     4 RES4   0.0000
    96 C25      2.4858   7.2931  17.8324   C.ar      4 RES4   0.0000
    97 C26      1.8936   7.7236  16.6341   C.ar      4 RES4   0.0000
    98 C27      1.9893   7.7477  19.0522   C.ar      4 RES4   0.0000
    99 H21      4.6666   3.6374  18.4236   H         4 RES4   0.0000
   100 H22      5.0802   4.3860  19.7184   H         4 RES4   0.0000
   101 H23      6.7279   4.4115  17.9914   H         4 RES4   0.0000
   102 H24      6.3936   5.8053  18.5843   H         4 RES4   0.0000
   103 H25      5.4218   4.8255  16.1769   H         4 RES4   0.0000
   104 H26      6.4121   6.0113  16.3233   H         4 RES4   0.0000
   105 H27      2.2344   7.4207  15.8001   H         4 RES4   0.0000
   106 H28      2.3929   7.4635  19.8648   H         4 RES4   0.0000
   107 H29      2.9513   5.2440  19.2290   H         4 RES4   0.0000
   108 H30      4.4641   7.2192  16.2340   H         4 RES4   0.0000
   109 C27A     0.8143   8.5877  16.6662   C.ar      4 RES4   0.0000
   110 C25A     0.3178   9.0423  17.8860   C.ar      4 RES4   0.0000
   111 C21A    -0.8242   9.9815  17.9378   C.2       4 RES4   0.0000
   112 N11A    -0.8917  10.9514  17.0645   N.pl3     4 RES4   1.0000
   113 C22A    -2.0676  11.8479  16.9216   C.3       4 RES4   0.0000
   114 C23A    -3.2519  11.2591  17.6413   C.3       4 RES4   0.0000
   115 C24A    -2.8703  10.7721  18.9986   C.3       4 RES4   0.0000
   116 N12A    -1.7349   9.8395  18.8736   N.pl3     4 RES4   0.0000
   117 H30A    -1.6605   9.1162  19.4844   H         4 RES4   0.0000
   118 H25A    -2.6182  11.5099  19.5416   H         4 RES4   0.0000
   119 H26A    -3.6085  10.3241  19.3951   H         4 RES4   0.0000
   120 H23A    -3.9244  11.9239  17.7271   H         4 RES4   0.0000
   121 H24A    -3.5901  10.5301  17.1341   H         4 RES4   0.0000
   122 H21A    -1.8630  12.6980  17.2949   H         4 RES4   0.0000
   123 H22A    -2.2767  11.9494  16.0001   H         4 RES4   0.0000
   124 H29A    -0.1477  11.0914  16.4894   H         4 RES4   0.0000
   125 C26A     0.9100   8.6118  19.0844   C.ar      4 RES4   0.0000
   126 H27A     0.5692   8.9147  19.9184   H         4 RES4   0.0000
   127 H28A     0.4107   8.8719  15.8536   H         4 RES4   0.0000
   128 O1       1.8947   3.0595  16.5734   O.3       5 RES5   0.0000
   129 O2       2.0956   2.3056  19.3326   O.3       6 RES6   0.0000
   130 O3       4.2049   2.5643  15.0553   O.3       7 RES7   0.0000
   131 O4       1.0003   4.9643  14.3677   O.3       8 RES8   0.0000
@<TRIPOS>BOND
     1     1     2    1
     2     2     3    3
     3     4     1    1
     4     5     4    3
     5     6     1    1
     6     7     6    3
     7     8     1    1
     8     9     8    3
     9    10     1    1
    10    11    10    3
    11    12     1    1
    12    13    12    3
    13    14    15   un
    14    15    16    1
    15    16    17    1
    16    17    18    1
    17    18    19    1
    18    19    14   un
    19    20    14    1
    20    21    20   ar
    21    22    20   ar
    22    23    16    1
    23    24    16    1
    24    25    17    1
    25    26    17    1
    26    27    18    1
    27    28    18    1
    28    29    21    1
    29    30    22    1
    30    31    15    1
    31    32    19    1
    32    33    21   ar
    33    34    33   ar
    34    35    34    1
    35    36    35   un
    36    37    36    1
    37    38    37    1
    38    39    38    1
    39    40    35   un
    40    41    40    1
    41    42    39    1
    42    43    39    1
    43    44    38    1
    44    45    38    1
    45    46    37    1
    46    47    37    1
    47    48    36    1
    48    49    22   ar
    49    50    49    1
    50    51    33    1
    51    34    49   ar
    52    39    40    1
    53    52    53   un
    54    53    54    1
    55    54    55    1
    56    55    56    1
    57    56    57    1
    58    57    52   un
    59    58    52    1
    60    59    58   ar
    61    60    58   ar
    62    61    54    1
    63    62    54    1
    64    63    55    1
    65    64    55    1
    66    65    56    1
    67    66    56    1
    68    67    59    1
    69    68    60    1
    70    69    53    1
    71    70    57    1
    72    71    59   ar
    73    72    71   ar
    74    73    72    1
    75    74    73   un
    76    75    74    1
    77    76    75    1
    78    77    76    1
    79    78    73   un
    80    79    78    1
    81    80    77    1
    82    81    77    1
    83    82    76    1
    84    83    76    1
    85    84    75    1
    86    85    75    1
    87    86    74    1
    88    87    60   ar
    89    88    87    1
    90    89    71    1
    91    72    87   ar
    92    77    78    1
    93    90    91   un
    94    91    92    1
    95    92    93    1
    96    93    94    1
    97    94    95    1
    98    95    90   un
    99    96    90    1
   100    97    96   ar
   101    98    96   ar
   102    99    92    1
   103   100    92    1
   104   101    93    1
   105   102    93    1
   106   103    94    1
   107   104    94    1
   108   105    97    1
   109   106    98    1
   110   107    91    1
   111   108    95    1
   112   109    97   ar
   113   110   109   ar
   114   111   110    1
   115   112   111   un
   116   113   112    1
   117   114   113    1
   118   115   114    1
   119   116   111   un
   120   117   116    1
   121   118   115    1
   122   119   115    1
   123   120   114    1
   124   121   114    1
   125   122   113    1
   126   123   113    1
   127   124   112    1
   128   125    98   ar
   129   126   125    1
   130   127   109    1
   131   110   125   ar
   132   115   116    1
@<TRIPOS>SUBSTRUCTURE
     1 RES1        1 GROUP             0 ****  ****    0  
     2 RES2       14 GROUP             0 ****  ****    0  
     3 RES3       52 GROUP             0 ****  ****    0  
     4 RES4       90 GROUP             0 ****  ****    0  
     5 RES5      128 GROUP             0 ****  ****    0  
     6 RES6      129 GROUP             0 ****  ****    0  
     7 RES7      130 GROUP             0 ****  ****    0  
     8 RES8      131 GROUP             0 ****  ****    0  
@<TRIPOS>CRYSIN
    7.1092   12.4303   17.9853   83.4430   87.5830   84.0590     2     1
