@<TRIPOS>MOLECULE
MIPROF
    58    65     3     0     0
SMALL
USER_CHARGES
****
Generated from the CSD

@<TRIPOS>ATOM
     1 C1       1.6913   4.5073   8.3639   C.2       1 RES1   0.0000
     2 C2       7.1078   7.3996   9.6451   C.2       1 RES1   0.0000
     3 C3       7.2061   6.1434  10.2084   C.2       1 RES1   0.0000
     4 C4       8.3565   5.6529  10.8628   C.2       1 RES1   0.0000
     5 C5       8.0297   4.4261  11.3069   C.2       1 RES1   0.0000
     6 C6       6.6969   4.1303  10.9167   C.2       1 RES1   0.0000
     7 C7       6.0168   2.9565  11.1527   C.2       1 RES1   0.0000
     8 C8       4.7970   2.6610  10.7042   C.2       1 RES1   0.0000
     9 C9       4.1088   1.3951  10.8947   C.2       1 RES1   0.0000
    10 C10      2.9651   1.4269  10.1809   C.2       1 RES1   0.0000
    11 C11      2.9117   2.7478   9.5799   C.2       1 RES1   0.0000
    12 C12      0.5211   5.0038   7.7001   C.2       1 RES1   0.0000
    13 C13      1.8384   3.2245   8.8465   C.2       1 RES1   0.0000
    14 C14     -0.6698   4.1526   7.3658   C.3       1 RES1   0.0000
    15 C15     -0.1325   7.2852   6.7556   C.2       1 RES1   0.0000
    16 C16     -1.3665   7.3385   6.5973   C.2       1 RES1   0.0000
    17 C17      4.0558  10.5695   7.2942   C.3       1 RES1   0.0000
    18 C18      6.9174  10.2587   8.3785   C.2       1 RES1   0.0000
    19 C19      7.7401  10.6234   9.1718   C.2       1 RES1   0.0000
    20 C20      9.6570   6.3723  11.0197   C.3       1 RES1   0.0000
    21 C21      8.8532   3.4992  12.5231   C.3       1 RES1   0.0000
    22 C22      9.4623   2.6655  11.6936   C.3       1 RES1   0.0000
    23 C23      0.7513   6.3125   7.4382   C.2       1 RES1   0.0000
    24 C24     10.4804   1.9452  12.9578   C.2       1 RES1   0.0000
    25 C25      4.6315   0.2694  11.7414   C.3       1 RES1   0.0000
    26 C26      4.0789   0.3416  13.1897   C.3       1 RES1   0.0000
    27 C27      4.6051   1.5370  13.9268   C.2       1 RES1   0.0000
    28 C28      1.9022   0.3615  10.0358   C.3       1 RES1   0.0000
    29 C29      5.4451   5.4856   6.6117   C.2       1 RES1   0.0000
    30 C30      5.5695   3.4863   7.3700   C.2       1 RES1   0.0000
    31 C31      6.0706   3.4850   6.1190   C.2       1 RES1   0.0000
    32 C32      6.4900   5.2310   4.3589   C.3       1 RES1   0.0000
    33 C33      3.0605   5.2965  12.0786   C.2       1 RES1   0.0000
    34 C34      2.0562   6.6117   7.9479   C.2       1 RES1   0.0000
    35 C35      3.5794   7.2958  11.5519   C.2       1 RES1   0.0000
    36 C36      2.9794   7.3663  12.7561   C.2       1 RES1   0.0000
    37 C37      1.9964   5.6780  14.3341   C.3       1 RES1   0.0000
    38 C38      2.7096   7.8209   7.8162   C.2       1 RES1   0.0000
    39 C39      3.9738   8.1268   8.2146   C.2       1 RES1   0.0000
    40 C40      4.6683   9.3946   7.9744   C.2       1 RES1   0.0000
    41 C41      5.8988   9.2576   8.4599   C.2       1 RES1   0.0000
    42 C42      6.0124   7.9096   9.0501   C.2       1 RES1   0.0000
    43 Fe1      4.4001   5.3621   9.3940   Fe        1 RES1   1.0000
    44 N1       2.6351   5.5167   8.5293   N.2       1 RES1   0.0000
    45 N2       4.8219   7.2566   8.8624   N.2       1 RES1   0.0000
    46 N3       6.1940   5.2066  10.2274   N.2       1 RES1   0.0000
    47 N4       4.0160   3.4820   9.9294   N.2       1 RES1   0.0000
    48 N5       5.9855   4.7507   5.6436   N.pl3     1 RES1   0.0000
    49 N6       5.1722   4.7562   7.6897   N.2       1 RES1   0.0000
    50 N7       2.6614   6.0944  13.0893   N.pl3     1 RES1   0.0000
    51 N8       3.6440   5.9977  11.1204   N.2       1 RES1   0.0000
    52 O1      10.2341   0.8397  13.3277   O.co2     1 RES1   0.0000
    53 O2      11.5416   2.6319  13.1501   O.co2     1 RES1   0.0000
    54 O3       3.7426   2.4887  14.1700   O.co2     1 RES1   0.0000
    55 O4       5.7658   1.6005  14.2717   O.co2     1 RES1  -1.0000
    56 C43      1.0817  -1.6550  -3.6297   C.2       2 RES2   0.0000
    57 O5       2.0782  -1.1961  -4.5114   O.3       2 RES2   0.0000
    58 O6      -1.5910  -0.5172  -5.4388   O.3       3 RES3   0.0000
@<TRIPOS>BOND
     1     1    12    1
     2     2     3    2
     3     3     4    1
     4     4     5    2
     5     5     6    1
     6     6     7    1
     7     7     8    2
     8     8     9    1
     9     9    10    2
    10    10    11    1
    11    11    13    2
    12    12    14    1
    13    13     1    1
    14    15    16    2
    15    17    40    1
    16    18    19    2
    17    20     4    1
    18    21     5    1
    19    22    21    1
    20    23    12    2
    21    24    22    1
    22    25     9    1
    23    26    25    1
    24    27    26    1
    25    28    10    1
    26    29    48    1
    27    30    31    2
    28    31    48    1
    29    32    48    1
    30    33    50    1
    31    34    23    1
    32    35    36    2
    33    36    50    1
    34    37    50    1
    35    38    34    2
    36    39    38    1
    37    40    39    2
    38    41    18    1
    39    42     2    1
    40    43    44    1
    41    44     1    2
    42    45    39    1
    43    46     3    1
    44    47     8    1
    45    49    29    2
    46    51    33    2
    47    52    24    1
    48    53    24    2
    49    54    27    2
    50    55    27    1
    51     6    46    2
    52    11    47    1
    53    15    23    1
    54    30    49    1
    55    34    44    1
    56    35    51    1
    57    40    41    1
    58    41    42    2
    59    42    45    1
    60    43    45    1
    61    43    46    1
    62    43    47    1
    63    43    49    1
    64    43    51    1
    65    56    57    1
@<TRIPOS>SUBSTRUCTURE
     1 RES1        1 GROUP             0 ****  ****    0  
     2 RES2       56 GROUP             0 ****  ****    0  
     3 RES3       58 GROUP             0 ****  ****    0  
@<TRIPOS>CRYSIN
    9.9750   21.2150   19.2410   90.0000   92.3200   90.0000    14     1
