@<TRIPOS>MOLECULE
MIVXOG
   178   186    10     0     0
SMALL
USER_CHARGES
****
Generated from the CSD

@<TRIPOS>ATOM
     1 I1      23.2624  11.9056  20.4226   I         1 RES1   0.0000
     2 I2      19.1678  15.7009  24.7445   I         1 RES1   0.0000
     3 I3      21.9920   5.7385  25.6097   I         1 RES1   0.0000
     4 I4      16.5054   9.1725  23.0195   I         1 RES1   0.0000
     5 I5      25.1050  11.4408  28.3910   I         1 RES1   0.0000
     6 I6      18.3316  10.8643  29.6363   I         1 RES1   0.0000
     7 Fe1     21.0582  10.8305  25.1326   Fe        1 RES1   0.0000
     8 O1      19.9221  10.7420  26.8212   O.3       1 RES1  -1.0000
     9 O2      21.8591  11.2850  23.3494   O.3       1 RES1  -1.0000
    10 O3      20.0221  16.0481  21.6831   O.2       1 RES1   0.0000
    11 O4      19.2869  10.2877  24.3534   O.3       1 RES1  -1.0000
    12 O5      22.7083  11.0091  26.2475   O.3       1 RES1   0.0000
    13 O6      24.6285   6.0812  27.4540   O.2       1 RES1   0.0000
    14 C1      21.6567  12.4720  22.8938   C.2       1 RES1   0.0000
    15 O7      20.6230  12.7866  25.0115   O.3       1 RES1   0.0000
    16 O8      21.8037  14.7412  20.1307   O.2       1 RES1   0.0000
    17 C2      22.0083  13.0100  21.6747   C.2       1 RES1   0.0000
    18 O9      15.5153  10.0405  28.2471   O.2       1 RES1   0.0000
    19 O10     14.8588   9.3178  25.7877   O.2       1 RES1   0.0000
    20 C3      17.7650  10.4424  27.6903   C.2       1 RES1   0.0000
    21 C4      24.2027   7.2034  27.1967   C.2       1 RES1   0.0000
    22 C5      20.8283  13.3620  23.8599   C.2       1 RES1   0.0000
    23 C6      18.2973  10.1591  25.2351   C.2       1 RES1   0.0000
    24 C7      17.0355   9.7772  24.9524   C.2       1 RES1   0.0000
    25 O11     21.5997   8.9121  25.1971   O.3       1 RES1   0.0000
    26 C8      20.3178  14.5615  23.4886   C.2       1 RES1   0.0000
    27 C9      24.2814   9.7659  27.4625   C.2       1 RES1   0.0000
    28 C10     23.2603   9.8882  26.5892   C.2       1 RES1   0.0000
    29 C11     20.5235  15.0708  22.1514   C.2       1 RES1   0.0000
    30 C12     22.6069   8.6488  26.0239   C.2       1 RES1   0.0000
    31 O12     25.7856   8.2656  28.5593   O.2       1 RES1   0.0000
    32 C13     16.0164   9.7272  25.9607   C.2       1 RES1   0.0000
    33 C14     18.6906  10.4986  26.6567   C.2       1 RES1   0.0000
    34 C15     23.0090   7.3856  26.3488   C.2       1 RES1   0.0000
    35 C16     21.5362  14.2544  21.2191   C.2       1 RES1   0.0000
    36 C17     16.4526  10.0929  27.4034   C.2       1 RES1   0.0000
    37 C18     24.8439   8.4765  27.8042   C.2       1 RES1   0.0000
    38 P1      23.4861   6.8114  18.3876   P.3       2 RES2   1.0000
    39 C19     20.5655   7.7888  21.7590   C.ar      2 RES2   0.0000
    40 H1      19.9384   7.9772  22.4213   H         2 RES2   0.0000
    41 C20     22.5498   6.4757  16.8825   C.ar      2 RES2   0.0000
    42 C21     21.0168   5.9664  14.6635   C.ar      2 RES2   0.0000
    43 H2      20.4714   5.7542  13.9379   H         2 RES2   0.0000
    44 C22     20.7103   7.0398  15.4988   C.ar      2 RES2   0.0000
    45 H3      20.0078   7.6053  15.2879   H         2 RES2   0.0000
    46 C23     26.2266  10.3975  17.7768   C.ar      2 RES2   0.0000
    47 H4      26.8088  11.1152  17.6671   H         2 RES2   0.0000
    48 C24     25.1087   8.8547  19.2406   C.ar      2 RES2   0.0000
    49 H5      24.9081   8.5502  20.0970   H         2 RES2   0.0000
    50 C25     21.4258   7.2383  16.6125   C.ar      2 RES2   0.0000
    51 H6      21.1692   7.9024  17.2073   H         2 RES2   0.0000
    52 C26     24.5309   5.3673  18.7555   C.ar      2 RES2   0.0000
    53 C27     25.8800   5.5283  18.8694   C.ar      2 RES2   0.0000
    54 H7      26.2580   6.3771  18.8314   H         2 RES2   0.0000
    55 C28     24.7895   8.7399  16.8403   C.ar      2 RES2   0.0000
    56 H8      24.3864   8.3392  16.1020   H         2 RES2   0.0000
    57 C29     22.3684   7.1784  19.7595   C.ar      2 RES2   0.0000
    58 C30     26.6784   4.4074  19.0465   C.ar      2 RES2   0.0000
    59 H9      27.5978   4.5110  19.1351   H         2 RES2   0.0000
    60 C31     22.0391   6.1861  20.6833   C.ar      2 RES2   0.0000
    61 H10     22.3984   5.3298  20.6327   H         2 RES2   0.0000
    62 C32     26.1285   3.1405  19.0929   C.ar      2 RES2   0.0000
    63 H11     26.6699   2.3878  19.1731   H         2 RES2   0.0000
    64 C33     23.9042   4.1078  18.7934   C.ar      2 RES2   0.0000
    65 H12     22.9875   4.0030  18.6838   H         2 RES2   0.0000
    66 C34     24.7710   3.0219  19.0128   C.ar      2 RES2   0.0000
    67 H13     24.3977   2.1756  19.1098   H         2 RES2   0.0000
    68 C35     22.9076   5.4397  16.0345   C.ar      2 RES2   0.0000
    69 H14     23.6481   4.9079  16.2159   H         2 RES2   0.0000
    70 C36     24.5479   8.2481  18.1100   C.ar      2 RES2   0.0000
    71 C37     25.6285   9.8208  16.6589   C.ar      2 RES2   0.0000
    72 H15     25.7921  10.1566  15.8067   H         2 RES2   0.0000
    73 C38     25.9656   9.9207  19.0508   C.ar      2 RES2   0.0000
    74 H16     26.3740  10.3201  19.7848   H         2 RES2   0.0000
    75 C39     20.8854   8.7374  20.8942   C.ar      2 RES2   0.0000
    76 H17     20.5267   9.5974  20.9744   H         2 RES2   0.0000
    77 C40     21.7856   8.4341  19.8396   C.ar      2 RES2   0.0000
    78 H18     21.9863   9.0782  19.1984   H         2 RES2   0.0000
    79 C41     21.1244   6.5481  21.7084   C.ar      2 RES2   0.0000
    80 H19     20.9004   5.9227  22.3623   H         2 RES2   0.0000
    81 C42     22.1462   5.2175  14.9293   C.ar      2 RES2   0.0000
    82 H20     22.3924   4.5497  14.3345   H         2 RES2   0.0000
    83 P2      18.6998  13.8251  17.5781   P.3       3 RES3   1.0000
    84 C43     15.3711  12.0464  15.9797   C.ar      3 RES3   0.0000
    85 H21     14.5592  11.7056  16.2708   H         3 RES3   0.0000
    86 C44     17.1941  13.9674  19.8396   C.ar      3 RES3   0.0000
    87 H22     16.6972  14.5790  19.3461   H         3 RES3   0.0000
    88 C45     17.5154  13.1236  16.4395   C.ar      3 RES3   0.0000
    89 C46     16.8541  13.6790  21.1178   C.ar      3 RES3   0.0000
    90 H23     16.1417  14.1321  21.5059   H         3 RES3   0.0000
    91 C47     18.3656  18.4234  17.5574   C.ar      3 RES3   0.0000
    92 H24     18.2797  19.3496  17.5616   H         3 RES3   0.0000
    93 C48     17.8641  16.2678  16.5661   C.ar      3 RES3   0.0000
    94 H25     17.4230  15.7885  15.9038   H         3 RES3   0.0000
    95 C49     19.1277  17.7282  18.5150   C.ar      3 RES3   0.0000
    96 H26     19.5615  18.2050  19.1858   H         3 RES3   0.0000
    97 C50     19.0006  12.4408  19.9873   C.ar      3 RES3   0.0000
    98 H27     19.7423  12.0264  19.6118   H         3 RES3   0.0000
    99 C51     18.3024  13.3345  19.2743   C.ar      3 RES3   0.0000
   100 C52     18.6215  12.1338  21.2824   C.ar      3 RES3   0.0000
   101 H28     19.1171  11.5097  21.7633   H         3 RES3   0.0000
   102 C53     22.8278  12.2823  16.2792   C.ar      3 RES3   0.0000
   103 H29     23.6692  11.9652  16.0388   H         3 RES3   0.0000
   104 C54     17.7574  17.6208  16.6082   C.ar      3 RES3   0.0000
   105 H30     17.2389  18.0352  15.9544   H         3 RES3   0.0000
   106 C55     21.8148  11.4335  16.5197   C.ar      3 RES3   0.0000
   107 H31     21.9663  10.5236  16.4100   H         3 RES3   0.0000
   108 C56     18.6081  15.6100  17.4941   C.ar      3 RES3   0.0000
   109 C57     17.8619  13.0449  15.0854   C.ar      3 RES3   0.0000
   110 H32     18.6812  13.3670  14.7859   H         3 RES3   0.0000
   111 C58     21.3846  14.1334  16.8571   C.ar      3 RES3   0.0000
   112 H33     21.2687  15.0458  16.9964   H         3 RES3   0.0000
   113 C59     19.2411  16.3564  18.4813   C.ar      3 RES3   0.0000
   114 H34     19.7530  15.9233  19.1267   H         3 RES3   0.0000
   115 C60     20.3183  13.2297  17.1145   C.ar      3 RES3   0.0000
   116 C61     20.5445  11.8467  16.9331   C.ar      3 RES3   0.0000
   117 H35     19.8660  11.2288  17.0849   H         3 RES3   0.0000
   118 C62     22.5900  13.6553  16.4015   C.ar      3 RES3   0.0000
   119 H36     23.2576  14.2569  16.1737   H         3 RES3   0.0000
   120 C63     15.7376  12.0451  14.6509   C.ar      3 RES3   0.0000
   121 H37     15.1251  11.7281  14.0265   H         3 RES3   0.0000
   122 C64     17.5386  12.7229  21.8687   C.ar      3 RES3   0.0000
   123 H38     17.2731  12.4982  22.7293   H         3 RES3   0.0000
   124 C65     16.3031  12.5956  16.8487   C.ar      3 RES3   0.0000
   125 H39     16.1040  12.6106  17.7557   H         3 RES3   0.0000
   126 C66     16.9466  12.4695  14.1953   C.ar      3 RES3   0.0000
   127 H40     17.1628  12.3809  13.2967   H         3 RES3   0.0000
   128 P3      23.8385  16.5124  30.6647   P.3       4 RES4   1.0000
   129 C67     21.4342  13.5055  28.2471   C.ar      4 RES4   0.0000
   130 H41     21.0051  12.8352  27.7662   H         4 RES4   0.0000
   131 C68     23.3288  14.9784  34.8744   C.ar      4 RES4   0.0000
   132 H42     23.1612  14.5777  35.6970   H         4 RES4   0.0000
   133 C69     22.0323  14.5203  27.6101   C.ar      4 RES4   0.0000
   134 H43     21.9483  14.6077  26.6863   H         4 RES4   0.0000
   135 C70     22.6398  16.4201  33.1406   C.ar      4 RES4   0.0000
   136 H44     22.0048  16.9917  32.7736   H         4 RES4   0.0000
   137 C71     22.8411  15.3554  29.7658   C.ar      4 RES4   0.0000
   138 C72     22.0665  18.4110  29.7362   C.ar      4 RES4   0.0000
   139 H45     21.6173  17.7432  29.2764   H         4 RES4   0.0000
   140 C73     25.4726  16.3864  30.0400   C.ar      4 RES4   0.0000
   141 C74     22.7948  15.4552  28.3357   C.ar      4 RES4   0.0000
   142 H46     23.2606  16.1280  27.8970   H         4 RES4   0.0000
   143 C75     21.4608  13.4606  29.6434   C.ar      4 RES4   0.0000
   144 H47     20.9552  12.8065  30.0695   H         4 RES4   0.0000
   145 C76     23.1534  18.1388  30.4956   C.ar      4 RES4   0.0000
   146 C77     22.1558  14.2894  30.3943   C.ar      4 RES4   0.0000
   147 H48     22.1996  14.1758  31.3140   H         4 RES4   0.0000
   148 C78     23.8152  19.1724  31.1579   C.ar      4 RES4   0.0000
   149 H49     24.5428  18.9851  31.7063   H         4 RES4   0.0000
   150 C79     21.6330  19.7590  29.6730   C.ar      4 RES4   0.0000
   151 H50     20.8776  19.9462  29.1625   H         4 RES4   0.0000
   152 C80     28.0884  15.9894  29.2174   C.ar      4 RES4   0.0000
   153 H51     28.9886  15.8933  28.9938   H         4 RES4   0.0000
   154 C81     25.9241  15.1781  29.6097   C.ar      4 RES4   0.0000
   155 H52     25.3186  14.4729  29.5548   H         4 RES4   0.0000
   156 C82     22.4991  15.9520  34.4272   C.ar      4 RES4   0.0000
   157 H53     21.8395  16.2928  34.9841   H         4 RES4   0.0000
   158 C83     24.3910  14.5790  34.1488   C.ar      4 RES4   0.0000
   159 H54     24.9881  13.9636  34.4989   H         4 RES4   0.0000
   160 C84     24.5972  15.0932  32.8875   C.ar      4 RES4   0.0000
   161 H55     25.3112  14.7999  32.3728   H         4 RES4   0.0000
   162 C85     23.7494  16.0219  32.4108   C.ar      4 RES4   0.0000
   163 C86     26.2965  17.4249  29.9303   C.ar      4 RES4   0.0000
   164 H56     26.0086  18.2911  30.1243   H         4 RES4   0.0000
   165 C87     23.3774  20.4455  30.9807   C.ar      4 RES4   0.0000
   166 H57     23.8931  21.1233  31.3561   H         4 RES4   0.0000
   167 C88     27.2713  14.9410  29.2427   C.ar      4 RES4   0.0000
   168 H58     27.5704  14.0834  29.0317   H         4 RES4   0.0000
   169 C89     22.2655  20.8200  30.3226   C.ar      4 RES4   0.0000
   170 H59     21.9528  21.7012  30.3015   H         4 RES4   0.0000
   171 C90     27.5681  17.2002  29.5295   C.ar      4 RES4   0.0000
   172 H60     28.1311  17.9316  29.4620   H         4 RES4   0.0000
   173 O13     12.5939   3.8445  29.7953   O.3       5 RES5   0.0000
   174 O14     27.4831   9.0120  30.6938   O.3       6 RES6   0.0000
   175 O15     14.3873  11.3337  30.8415   O.3       7 RES7   0.0000
   176 O16     13.6709   7.0024  30.4534   O.3       8 RES8   0.0000
   177 O17     13.4539   8.2256  28.4749   O.3       9 RES9   0.0000
   178 O18     20.3877   5.1426  11.1664   O.3      10 RES10   0.0000
@<TRIPOS>BOND
     1     1    17    1
     2     2    26    1
     3     3    34    1
     4     4    24    1
     5     5    27    1
     6     6    20    1
     7     7     8    1
     8     8    33    1
     9     9     7    1
    10    10    29    2
    11    11     7    1
    12    12     7    1
    13    13    21    2
    14    14     9    1
    15    15     7    1
    16    16    35    2
    17    17    14    2
    18    18    36    2
    19    19    32    2
    20    20    33    2
    21    21    34    1
    22    22    14    1
    23    23    11    1
    24    24    23    2
    25    25     7    1
    26    26    22    2
    27    27    28    2
    28    28    12    1
    29    29    26    1
    30    30    25    1
    31    31    37    2
    32    32    24    1
    33    33    23    1
    34    34    30    2
    35    35    17    1
    36    36    20    1
    37    37    21    1
    38    15    22    1
    39    27    37    1
    40    28    30    1
    41    29    35    1
    42    32    36    1
    43    38    41    1
    44    39    40    1
    45    41    50   ar
    46    42    43    1
    47    44    42   ar
    48    45    44    1
    49    46    47    1
    50    48    49    1
    51    50    44   ar
    52    51    50    1
    53    52    38    1
    54    53    52   ar
    55    54    53    1
    56    55    56    1
    57    57    38    1
    58    58    53   ar
    59    59    58    1
    60    60    57   ar
    61    61    60    1
    62    62    58   ar
    63    63    62    1
    64    64    52   ar
    65    65    64    1
    66    66    62   ar
    67    67    66    1
    68    68    41   ar
    69    69    68    1
    70    70    38    1
    71    71    46   ar
    72    72    71    1
    73    73    46   ar
    74    74    73    1
    75    75    39   ar
    76    76    75    1
    77    77    57   ar
    78    78    77    1
    79    79    39   ar
    80    80    79    1
    81    81    42   ar
    82    82    81    1
    83    48    70   ar
    84    48    73   ar
    85    55    70   ar
    86    55    71   ar
    87    60    79   ar
    88    64    66   ar
    89    68    81   ar
    90    75    77   ar
    91    83    88    1
    92    84    85    1
    93    86    87    1
    94    88   109   ar
    95    89    86   ar
    96    90    89    1
    97    91    92    1
    98    93    94    1
    99    95    91   ar
   100    96    95    1
   101    97    98    1
   102    99    83    1
   103   100    97   ar
   104   101   100    1
   105   102   103    1
   106   104    91   ar
   107   105   104    1
   108   106   102   ar
   109   107   106    1
   110   108    83    1
   111   109   110    1
   112   111   112    1
   113   113    95   ar
   114   114   113    1
   115   115    83    1
   116   116   106   ar
   117   117   116    1
   118   118   102   ar
   119   119   118    1
   120   120    84   ar
   121   121   120    1
   122   122    89   ar
   123   123   122    1
   124   124    84   ar
   125   125   124    1
   126   126   109   ar
   127   127   126    1
   128    86    99   ar
   129    88   124   ar
   130    93   104   ar
   131    93   108   ar
   132    97    99   ar
   133   100   122   ar
   134   108   113   ar
   135   111   115   ar
   136   111   118   ar
   137   115   116   ar
   138   120   126   ar
   139   128   137    1
   140   129   130    1
   141   131   132    1
   142   133   129   ar
   143   134   133    1
   144   135   136    1
   145   137   141   ar
   146   138   139    1
   147   140   128    1
   148   141   133   ar
   149   142   141    1
   150   143   129   ar
   151   144   143    1
   152   145   128    1
   153   146   137   ar
   154   147   146    1
   155   148   145   ar
   156   149   148    1
   157   150   138   ar
   158   151   150    1
   159   152   153    1
   160   154   140   ar
   161   155   154    1
   162   156   131   ar
   163   157   156    1
   164   158   131   ar
   165   159   158    1
   166   160   158   ar
   167   161   160    1
   168   162   128    1
   169   163   140   ar
   170   164   163    1
   171   165   148   ar
   172   166   165    1
   173   167   152   ar
   174   168   167    1
   175   169   150   ar
   176   170   169    1
   177   171   152   ar
   178   172   171    1
   179   135   156   ar
   180   135   162   ar
   181   138   145   ar
   182   143   146   ar
   183   154   167   ar
   184   160   162   ar
   185   163   171   ar
   186   165   169   ar
@<TRIPOS>SUBSTRUCTURE
     1 RES1        1 GROUP             0 ****  ****    0  
     2 RES2       38 GROUP             0 ****  ****    0  
     3 RES3       83 GROUP             0 ****  ****    0  
     4 RES4      128 GROUP             0 ****  ****    0  
     5 RES5      173 GROUP             0 ****  ****    0  
     6 RES6      174 GROUP             0 ****  ****    0  
     7 RES7      175 GROUP             0 ****  ****    0  
     8 RES8      176 GROUP             0 ****  ****    0  
     9 RES9      177 GROUP             0 ****  ****    0  
    10 RES10     178 GROUP             0 ****  ****    0  
@<TRIPOS>CRYSIN
   35.0230   12.4820   46.3470   90.0000  114.4670   90.0000    15     1
