@<TRIPOS>MOLECULE
MIXKIP
   101   107     2     0     0
SMALL
NO_CHARGES
****
Generated from the CSD

@<TRIPOS>ATOM
     1 C1       8.2245   2.9357   3.1054   C.ar      1 RES1   0.0000
     2 C2       8.7716   4.2321   3.0099   C.ar      1 RES1   0.0000
     3 C3      10.1138   4.4820   3.2633   C.ar      1 RES1   0.0000
     4 H1      10.4578   5.3651   3.2043   H         1 RES1   0.0000
     5 C4      10.9491   3.4236   3.6041   C.ar      1 RES1   0.0000
     6 H2      11.8707   3.5800   3.7729   H         1 RES1   0.0000
     7 C5      10.4341   2.1400   3.6978   C.ar      1 RES1   0.0000
     8 H3      11.0122   1.4204   3.9249   H         1 RES1   0.0000
     9 C6       9.0867   1.8873   3.4644   C.ar      1 RES1   0.0000
    10 H4       8.7499   1.0035   3.5476   H         1 RES1   0.0000
    11 C7       7.2877   5.0516   0.8865   C.ar      1 RES1   0.0000
    12 C8       8.2610   4.6755  -0.0304   C.ar      1 RES1   0.0000
    13 H5       9.1776   4.6804   0.2164   H         1 RES1   0.0000
    14 C9       7.8817   4.2939  -1.3053   C.ar      1 RES1   0.0000
    15 H6       8.5391   4.0151  -1.9329   H         1 RES1   0.0000
    16 C10      6.5392   4.3178  -1.6706   C.ar      1 RES1   0.0000
    17 H7       6.2882   4.0647  -2.5516   H         1 RES1   0.0000
    18 C11      5.5622   4.7063  -0.7673   C.ar      1 RES1   0.0000
    19 H8       4.6506   4.7349  -1.0317   H         1 RES1   0.0000
    20 C12      5.9297   5.0573   0.5413   C.ar      1 RES1   0.0000
    21 C13      3.9256   5.9970   1.5361   C.ar      1 RES1   0.0000
    22 C14      3.4120   6.7168   0.4198   C.ar      1 RES1   0.0000
    23 H9       3.8849   6.7128  -0.4041   H         1 RES1   0.0000
    24 C15      2.2454   7.4100   0.5296   C.ar      1 RES1   0.0000
    25 C16      1.5632   7.4336   1.7958   C.ar      1 RES1   0.0000
    26 H10      0.7552   7.9307   1.8578   H         1 RES1   0.0000
    27 C17      2.0079   6.7811   2.9217   C.ar      1 RES1   0.0000
    28 C18      3.2397   6.0557   2.8166   C.ar      1 RES1   0.0000
    29 C19      1.2424   6.7907   4.2471   C.3       1 RES1   0.0000
    30 C20      0.8342   5.3499   4.6145   C.3       1 RES1   0.0000
    31 H11      1.6346   4.7895   4.6759   H         1 RES1   0.0000
    32 H12      0.2372   4.9931   3.9231   H         1 RES1   0.0000
    33 H13      0.3711   5.3518   5.4769   H         1 RES1   0.0000
    34 C21      2.1374   7.3750   5.3576   C.3       1 RES1   0.0000
    35 H14      2.4012   8.2883   5.1175   H         1 RES1   0.0000
    36 H15      2.9376   6.8194   5.4590   H         1 RES1   0.0000
    37 H16      1.6410   7.3902   6.2029   H         1 RES1   0.0000
    38 C22     -0.0309   7.6401   4.1514   C.3       1 RES1   0.0000
    39 H17     -0.5001   7.6229   5.0120   H         1 RES1   0.0000
    40 H18     -0.6150   7.2763   3.4528   H         1 RES1   0.0000
    41 H19      0.2090   8.5634   3.9284   H         1 RES1   0.0000
    42 C23      1.6090   8.1490  -0.6596   C.3       1 RES1   0.0000
    43 C24      0.1913   7.6064  -0.9089   C.3       1 RES1   0.0000
    44 H20     -0.3515   7.7284  -0.1019   H         1 RES1   0.0000
    45 H21      0.2402   6.6522  -1.1283   H         1 RES1   0.0000
    46 H22     -0.2188   8.0919  -1.6558   H         1 RES1   0.0000
    47 C25      1.5062   9.6521  -0.3564   C.3       1 RES1   0.0000
    48 H23      2.3955  10.0043  -0.1448   H         1 RES1   0.0000
    49 H24      0.9089   9.7910   0.4077   H         1 RES1   0.0000
    50 H25      1.1473  10.1194  -1.1390   H         1 RES1   0.0000
    51 C26      2.4214   7.9383  -1.9378   C.3       1 RES1   0.0000
    52 H26      1.9753   8.3864  -2.6857   H         1 RES1   0.0000
    53 H27      2.4919   6.9794  -2.1260   H         1 RES1   0.0000
    54 H28      3.3196   8.3149  -1.8203   H         1 RES1   0.0000
    55 C27      4.8132   1.6700   2.8963   C.ar      1 RES1   0.0000
    56 C28      6.2338   1.6655   2.5968   C.ar      1 RES1   0.0000
    57 C29      6.8045   0.5462   1.9192   C.ar      1 RES1   0.0000
    58 H29      7.7133   0.5732   1.6415   H         1 RES1   0.0000
    59 C30      6.0486  -0.5658   1.6683   C.ar      1 RES1   0.0000
    60 C31      4.7043  -0.6085   2.1732   C.ar      1 RES1   0.0000
    61 H30      4.2266  -1.4252   2.0903   H         1 RES1   0.0000
    62 C32      4.0624   0.4531   2.7697   C.ar      1 RES1   0.0000
    63 C33      6.5726  -1.7664   0.8688   C.3       1 RES1   0.0000
    64 C34      7.9455  -1.4874   0.2595   C.3       1 RES1   0.0000
    65 H31      8.5965  -1.3343   0.9763   H         1 RES1   0.0000
    66 H32      7.8951  -0.6920  -0.3111   H         1 RES1   0.0000
    67 H33      8.2267  -2.2566  -0.2789   H         1 RES1   0.0000
    68 C35      6.6750  -2.9859   1.8033   C.3       1 RES1   0.0000
    69 H34      5.7921  -3.1837   2.1797   H         1 RES1   0.0000
    70 H35      7.3028  -2.7886   2.5301   H         1 RES1   0.0000
    71 H36      6.9944  -3.7606   1.2964   H         1 RES1   0.0000
    72 C36      5.6050  -2.0955  -0.2798   C.3       1 RES1   0.0000
    73 H37      5.9434  -2.8674  -0.7796   H         1 RES1   0.0000
    74 H38      5.5354  -1.3234  -0.8797   H         1 RES1   0.0000
    75 H39      4.7205  -2.3063   0.0876   H         1 RES1   0.0000
    76 C37      2.5985   0.4066   3.2225   C.3       1 RES1   0.0000
    77 C38      2.4595   0.9103   4.6703   C.3       1 RES1   0.0000
    78 H40      2.7617   1.8409   4.7223   H         1 RES1   0.0000
    79 H41      3.0076   0.3551   5.2641   H         1 RES1   0.0000
    80 H42      1.5201   0.8556   4.9459   H         1 RES1   0.0000
    81 C39      2.0363  -1.0201   3.1876   C.3       1 RES1   0.0000
    82 H43      2.5698  -1.5961   3.7747   H         1 RES1   0.0000
    83 H44      2.0730  -1.3634   2.2709   H         1 RES1   0.0000
    84 H45      1.1060  -1.0119   3.4957   H         1 RES1   0.0000
    85 C40      1.7574   1.2907   2.2850   C.3       1 RES1   0.0000
    86 H46      1.8053   0.9368   1.3715   H         1 RES1   0.0000
    87 H47      2.1059   2.2069   2.2995   H         1 RES1   0.0000
    88 H48      0.8238   1.2907   2.5856   H         1 RES1   0.0000
    89 N1       6.8345   2.8141   2.9566   N.2       1 RES1   0.0000
    90 N2       5.0463   5.2757   1.6048   N.2       1 RES1   0.0000
    91 S1       7.6728   5.5422   2.5577   S.3       1 RES1   0.0000
    92 Fe1      5.4634   4.3751   3.4585   Fe        1 RES1   0.0000
    93 O1       4.2946   2.7884   3.2853   O.3       1 RES1   0.0000
    94 O2       3.8178   5.4626   3.8040   O.3       1 RES1   0.0000
    95 Cl1      6.1786   4.6375   5.6024   Cl        1 RES1   0.0000
    96 C41      1.4148   3.6462   7.7022   C.1       2 RES2   0.0000
    97 C42      2.5335   4.5508   7.9554   C.3       2 RES2   0.0000
    98 H49      3.1382   4.5471   7.1845   H         2 RES2   0.0000
    99 H50      3.0192   4.2538   8.7527   H         2 RES2   0.0000
   100 H51      2.1934   5.4584   8.0983   H         2 RES2   0.0000
   101 N3       0.5498   2.9298   7.4917   N.1       2 RES2   0.0000
@<TRIPOS>BOND
     1     1     2   ar
     2     2     3   ar
     3     3     4    1
     4     5     3   ar
     5     6     5    1
     6     7     5   ar
     7     8     7    1
     8     9     1   ar
     9    10     9    1
    10    11    12   ar
    11    12    13    1
    12    14    12   ar
    13    15    14    1
    14    16    14   ar
    15    17    16    1
    16    18    16   ar
    17    19    18    1
    18    20    11   ar
    19    21    22   ar
    20    22    23    1
    21    24    22   ar
    22    25    24   ar
    23    26    25    1
    24    27    25   ar
    25    28    21   ar
    26    29    27    1
    27    30    29    1
    28    31    30    1
    29    32    30    1
    30    33    30    1
    31    34    29    1
    32    35    34    1
    33    36    34    1
    34    37    34    1
    35    38    29    1
    36    39    38    1
    37    40    38    1
    38    41    38    1
    39    42    24    1
    40    43    42    1
    41    44    43    1
    42    45    43    1
    43    46    43    1
    44    47    42    1
    45    48    47    1
    46    49    47    1
    47    50    47    1
    48    51    42    1
    49    52    51    1
    50    53    51    1
    51    54    51    1
    52    55    56   ar
    53    56    57   ar
    54    57    58    1
    55    59    57   ar
    56    60    59   ar
    57    61    60    1
    58    62    55   ar
    59    63    59    1
    60    64    63    1
    61    65    64    1
    62    66    64    1
    63    67    64    1
    64    68    63    1
    65    69    68    1
    66    70    68    1
    67    71    68    1
    68    72    63    1
    69    73    72    1
    70    74    72    1
    71    75    72    1
    72    76    62    1
    73    77    76    1
    74    78    77    1
    75    79    77    1
    76    80    77    1
    77    81    76    1
    78    82    81    1
    79    83    81    1
    80    84    81    1
    81    85    76    1
    82    86    85    1
    83    87    85    1
    84    88    85    1
    85    89     1    1
    86    90    20    1
    87    91     2    1
    88    92    89    1
    89    93    55    1
    90    94    28    1
    91    95    92    1
    92     7     9   ar
    93    11    91    1
    94    18    20   ar
    95    21    90    1
    96    27    28   ar
    97    56    89    1
    98    60    62   ar
    99    90    92    1
   100    91    92    1
   101    92    93    1
   102    92    94    1
   103    96    97    1
   104    97    98    1
   105    99    97    1
   106   100    97    1
   107   101    96    3
@<TRIPOS>SUBSTRUCTURE
     1 RES1        1 GROUP             0 ****  ****    0  
     2 RES2       96 GROUP             0 ****  ****    0  
@<TRIPOS>CRYSIN
   18.1403   12.1191   18.1756   90.0000  100.3320   90.0000    14     1
