@<TRIPOS>MOLECULE
MOBBAK
   105   106     7     0     0
SMALL
USER_CHARGES
****
Generated from the CSD

@<TRIPOS>ATOM
     1 Fe1      8.8431   4.4072   5.7593   Fe        1 RES1   2.0000
     2 N1       6.9804   3.7396   5.7218   N.ar      1 RES1   0.0000
     3 N2       8.4223   4.5861   7.6397   N.2       1 RES1   0.0000
     4 N3       9.1499   4.0192   3.8537   N.ar      1 RES1   0.0000
     5 N4       9.4993   2.5897   5.9329   N.2       1 RES1   0.0000
     6 N5       8.3400   6.3015   5.4431   N.ar      1 RES1   0.0000
     7 N6      10.5997   5.1942   5.9068   N.2       1 RES1   0.0000
     8 N7      11.3765   3.3745   8.5517   N.4       1 RES1   1.0000
     9 C1       6.3020   3.2282   4.6795   C.ar      1 RES1   0.0000
    10 H1       6.7140   3.2163   3.8235   H         1 RES1   0.0000
    11 C2       5.0181   2.7173   4.8155   C.ar      1 RES1   0.0000
    12 H2       4.5731   2.3464   4.0624   H         1 RES1   0.0000
    13 C3       4.3851   2.7475   6.0496   C.ar      1 RES1   0.0000
    14 H3       3.5078   2.3999   6.1567   H         1 RES1   0.0000
    15 C4       5.0753   3.3076   7.1366   C.ar      1 RES1   0.0000
    16 H4       4.6649   3.3721   7.9914   H         1 RES1   0.0000
    17 C5       6.3673   3.7634   6.9365   C.ar      1 RES1   0.0000
    18 C6       7.2196   4.2894   7.9849   C.2       1 RES1   0.0000
    19 H5       6.9078   4.4081   8.8745   H         1 RES1   0.0000
    20 C7       9.3466   5.0903   8.6498   C.3       1 RES1   0.0000
    21 H6       8.8219   5.5498   9.3523   H         1 RES1   0.0000
    22 H7       9.9335   5.7663   8.2272   H         1 RES1   0.0000
    23 C8      10.2265   4.0366   9.3165   C.3       1 RES1   0.0000
    24 H8      10.6164   4.4525  10.1258   H         1 RES1   0.0000
    25 H9       9.6282   3.3116   9.6273   H         1 RES1   0.0000
    26 C9       8.9355   4.8216   2.7955   C.ar      1 RES1   0.0000
    27 H10      8.6674   5.7208   2.9441   H         1 RES1   0.0000
    28 C10      9.0958   4.3691   1.4868   C.ar      1 RES1   0.0000
    29 H11      8.9348   4.9570   0.7580   H         1 RES1   0.0000
    30 C11      9.4891   3.0649   1.2492   C.ar      1 RES1   0.0000
    31 H12      9.5872   2.7445   0.3601   H         1 RES1   0.0000
    32 C12      9.7374   2.2347   2.3282   C.ar      1 RES1   0.0000
    33 H13     10.0249   1.3391   2.1946   H         1 RES1   0.0000
    34 C13      9.5573   2.7390   3.6145   C.ar      1 RES1   0.0000
    35 C14      9.7463   1.9637   4.8333   C.2       1 RES1   0.0000
    36 H14     10.0327   1.0580   4.8189   H         1 RES1   0.0000
    37 C15      9.6734   1.8587   7.1895   C.3       1 RES1   0.0000
    38 H15      9.5421   0.8945   7.0078   H         1 RES1   0.0000
    39 H16      8.9594   2.1418   7.8141   H         1 RES1   0.0000
    40 C16     11.0156   2.0334   7.8893   C.3       1 RES1   0.0000
    41 H17     11.0753   1.3351   8.5884   H         1 RES1   0.0000
    42 H18     11.7215   1.8351   7.2240   H         1 RES1   0.0000
    43 C17      7.1312   6.8228   5.2424   C.ar      1 RES1   0.0000
    44 H19      6.3791   6.2426   5.2249   H         1 RES1   0.0000
    45 C18      6.9307   8.1902   5.0572   C.ar      1 RES1   0.0000
    46 H20      6.0556   8.5310   4.9129   H         1 RES1   0.0000
    47 C19      8.0196   9.0487   5.0852   C.ar      1 RES1   0.0000
    48 H21      7.9007   9.9831   4.9621   H         1 RES1   0.0000
    49 C20      9.2823   8.5231   5.2956   C.ar      1 RES1   0.0000
    50 H22     10.0455   9.0883   5.3190   H         1 RES1   0.0000
    51 C21      9.4101   7.1489   5.4719   C.ar      1 RES1   0.0000
    52 C22     10.6746   6.4744   5.6995   C.2       1 RES1   0.0000
    53 H23     11.5031   6.9388   5.6971   H         1 RES1   0.0000
    54 C23     11.8474   4.4717   6.1811   C.3       1 RES1   0.0000
    55 H24     11.7850   3.5710   5.7751   H         1 RES1   0.0000
    56 H25     12.5917   4.9488   5.7357   H         1 RES1   0.0000
    57 C24     12.1871   4.3150   7.6580   C.3       1 RES1   0.0000
    58 H26     13.1323   4.0250   7.7106   H         1 RES1   0.0000
    59 H27     12.1411   5.2161   8.0652   H         1 RES1   0.0000
    60 C25     12.3572   2.9739   9.6543   C.3       1 RES1   0.0000
    61 H28     11.8859   2.4513  10.3373   H         1 RES1   0.0000
    62 H29     13.0778   2.4331   9.2695   H         1 RES1   0.0000
    63 H30     12.7365   3.7800  10.0638   H         1 RES1   0.0000
    64 S1      12.5643   7.4997  10.1659   S.o2      2 RES2   0.0000
    65 F1      13.3399   9.5187   8.6814   F         2 RES2   0.0000
    66 F2      11.7570   8.3395   7.8379   F         2 RES2   0.0000
    67 F3      11.3379   9.6974   9.4580   F         2 RES2   0.0000
    68 O1      11.2816   6.8603  10.2834   O.2       2 RES2   0.0000
    69 O2      12.9994   8.1927  11.3483   O.2       2 RES2   0.0000
    70 O3      13.5646   6.7081   9.4899   O.3       2 RES2  -1.0000
    71 C26     12.2357   8.8440   8.9740   C.3       2 RES2   0.0000
    72 S2       7.8893   1.5312  11.1689   S.o2      3 RES3   0.0000
    73 F4       5.3158   1.2737  10.7144   F         3 RES3   0.0000
    74 F5       6.4770  -0.4759  10.2301   F         3 RES3   0.0000
    75 F6       6.5300   1.2536   8.9538   F         3 RES3   0.0000
    76 O4       9.0267   1.0722  10.4123   O.3       3 RES3  -1.0000
    77 O5       7.7606   0.9299  12.4717   O.2       3 RES3   0.0000
    78 O6       7.6744   2.9542  11.1059   O.2       3 RES3   0.0000
    79 C27      6.4660   0.8660  10.2260   C.3       3 RES3   0.0000
    80 S3      12.8543  14.3725  11.0504   S.o2      4 RES4   0.0000
    81 F7      12.8104  11.8715  10.2877   F         4 RES4   0.0000
    82 F8      14.3002  12.3001  11.7877   F         4 RES4   0.0000
    83 F9      14.6285  12.9126   9.7572   F         4 RES4   0.0000
    84 O7      11.9703  14.0092  12.1357   O.3       4 RES4  -1.0000
    85 O8      13.9272  15.2649  11.4161   O.2       4 RES4   0.0000
    86 O9      12.2034  14.6864   9.8078   O.2       4 RES4   0.0000
    87 C28     13.6817  12.7838  10.7001   C.3       4 RES4   0.0000
    88 N8       6.8390   7.3856   8.6112   N.1       5 RES5   0.0000
    89 C29      5.8070   7.7483   8.3295   C.1       5 RES5   0.0000
    90 C30      4.4885   8.2274   7.9309   C.3       5 RES5   0.0000
    91 H31      4.2554   7.8541   7.0569   H         5 RES5   0.0000
    92 H32      3.8251   7.9463   8.5947   H         5 RES5   0.0000
    93 H33      4.4993   9.2067   7.8746   H         5 RES5   0.0000
    94 N9      11.6291  10.9915   5.8695   N.1       6 RES6   0.0000
    95 C31     12.0866  13.3324   6.8301   C.3       6 RES6   0.0000
    96 H34     11.4800  13.9717   6.4041   H         6 RES6   0.0000
    97 H35     11.9330  13.3370   7.7976   H         6 RES6   0.0000
    98 H36     13.0142  13.5878   6.6515   H         6 RES6   0.0000
    99 C32     11.8369  12.0040   6.3052   C.1       6 RES6   0.0000
   100 N10     15.7076   4.1439   8.1439   N.1       7 RES7   0.0000
   101 C33     15.7778   5.1731   7.6533   C.1       7 RES7   0.0000
   102 C34     15.8586   6.4939   7.0390   C.3       7 RES7   0.0000
   103 H37     15.3538   6.4969   6.2007   H         7 RES7   0.0000
   104 H38     15.4807   7.1619   7.6506   H         7 RES7   0.0000
   105 H39     16.7967   6.7131   6.8576   H         7 RES7   0.0000
@<TRIPOS>BOND
     1     1     2    1
     2     2     9   ar
     3     3     1    1
     4     4     1    1
     5     5     1    1
     6     6     1    1
     7     7     1    1
     8     8    23    1
     9     9    10    1
    10    11     9   ar
    11    12    11    1
    12    13    11   ar
    13    14    13    1
    14    15    13   ar
    15    16    15    1
    16    17     2   ar
    17    18     3    2
    18    19    18    1
    19    20     3    1
    20    21    20    1
    21    22    20    1
    22    23    20    1
    23    24    23    1
    24    25    23    1
    25    26     4   ar
    26    27    26    1
    27    28    26   ar
    28    29    28    1
    29    30    28   ar
    30    31    30    1
    31    32    30   ar
    32    33    32    1
    33    34     4   ar
    34    35     5    2
    35    36    35    1
    36    37     5    1
    37    38    37    1
    38    39    37    1
    39    40     8    1
    40    41    40    1
    41    42    40    1
    42    43     6   ar
    43    44    43    1
    44    45    43   ar
    45    46    45    1
    46    47    45   ar
    47    48    47    1
    48    49    47   ar
    49    50    49    1
    50    51     6   ar
    51    52     7    2
    52    53    52    1
    53    54     7    1
    54    55    54    1
    55    56    54    1
    56    57     8    1
    57    58    57    1
    58    59    57    1
    59    60     8    1
    60    61    60    1
    61    62    60    1
    62    63    60    1
    63    15    17   ar
    64    17    18    1
    65    32    34   ar
    66    34    35    1
    67    37    40    1
    68    49    51   ar
    69    51    52    1
    70    54    57    1
    71    64    68    2
    72    65    71    1
    73    66    71    1
    74    67    71    1
    75    69    64    2
    76    70    64    1
    77    71    64    1
    78    72    76    1
    79    73    79    1
    80    74    79    1
    81    75    79    1
    82    77    72    2
    83    78    72    2
    84    79    72    1
    85    80    84    1
    86    81    87    1
    87    82    87    1
    88    83    87    1
    89    85    80    2
    90    86    80    2
    91    87    80    1
    92    88    89    3
    93    89    90    1
    94    90    91    1
    95    92    90    1
    96    93    90    1
    97    94    99    3
    98    95    96    1
    99    97    95    1
   100    98    95    1
   101    99    95    1
   102   100   101    3
   103   101   102    1
   104   102   103    1
   105   104   102    1
   106   105   102    1
@<TRIPOS>SUBSTRUCTURE
     1 RES1        1 GROUP             0 ****  ****    0  
     2 RES2       64 GROUP             0 ****  ****    0  
     3 RES3       72 GROUP             0 ****  ****    0  
     4 RES4       80 GROUP             0 ****  ****    0  
     5 RES5       88 GROUP             0 ****  ****    0  
     6 RES6       94 GROUP             0 ****  ****    0  
     7 RES7      100 GROUP             0 ****  ****    0  
@<TRIPOS>CRYSIN
   21.5193   15.1127   13.8066   90.0000   95.5130   90.0000     9     1
