@<TRIPOS>MOLECULE
MODXOS
   103   107     2     0     0
SMALL
NO_CHARGES
****
Generated from the CSD

@<TRIPOS>ATOM
     1 Fe1      7.3682   4.2532   9.3942   Fe        1 RES1   0.0000
     2 N1       6.5815   5.9704  10.0789   N.ar      1 RES1   0.0000
     3 N2       6.7592   6.0362   8.6970   N.ar      1 RES1   0.0000
     4 C1       6.0411   7.1152  10.5006   C.ar      1 RES1   0.0000
     5 C2       5.8828   7.9421   9.3917   C.ar      1 RES1   0.0000
     6 H1       5.5374   8.8050   9.3938   H         1 RES1   0.0000
     7 C3       6.3419   7.2338   8.2721   C.ar      1 RES1   0.0000
     8 C4       5.7247   7.3618  11.9510   C.3       1 RES1   0.0000
     9 C5       4.3785   8.0585  12.0655   C.3       1 RES1   0.0000
    10 H2       4.4544   8.9556  11.7337   H         1 RES1   0.0000
    11 H3       4.1074   8.0789  12.9861   H         1 RES1   0.0000
    12 H4       3.7265   7.5800  11.5507   H         1 RES1   0.0000
    13 C6       6.8378   8.1861  12.5537   C.3       1 RES1   0.0000
    14 H5       7.6762   7.7395  12.4188   H         1 RES1   0.0000
    15 H6       6.6808   8.2971  13.4935   H         1 RES1   0.0000
    16 H7       6.8636   9.0475  12.1298   H         1 RES1   0.0000
    17 C7       5.6067   6.0410  12.7024   C.3       1 RES1   0.0000
    18 H8       4.8478   5.5535  12.3738   H         1 RES1   0.0000
    19 H9       5.4939   6.2158  13.6401   H         1 RES1   0.0000
    20 H10      6.4038   5.5229  12.5665   H         1 RES1   0.0000
    21 C8       6.3521   7.6047   6.8206   C.3       1 RES1   0.0000
    22 C9       7.3506   6.7543   6.0520   C.3       1 RES1   0.0000
    23 H11      7.1244   5.8266   6.1505   H         1 RES1   0.0000
    24 H12      8.2347   6.9049   6.3989   H         1 RES1   0.0000
    25 H13      7.3277   6.9930   5.1229   H         1 RES1   0.0000
    26 C10      4.9716   7.3962   6.2447   C.3       1 RES1   0.0000
    27 H14      4.9871   7.5838   5.3028   H         1 RES1   0.0000
    28 H15      4.3512   7.9858   6.6793   H         1 RES1   0.0000
    29 H16      4.7012   6.4864   6.3849   H         1 RES1   0.0000
    30 C11      6.7538   9.0768   6.6697   C.3       1 RES1   0.0000
    31 H17      6.7184   9.3244   5.7427   H         1 RES1   0.0000
    32 H18      7.6482   9.1993   6.9993   H         1 RES1   0.0000
    33 H19      6.1504   9.6268   7.1728   H         1 RES1   0.0000
    34 N1A      6.2737   2.7145  10.0789   N.ar      1 RES1   0.0000
    35 N2A      6.1279   2.8356   8.6970   N.ar      1 RES1   0.0000
    36 N1B      9.2473   4.0760  10.0789   N.ar      1 RES1   0.0000
    37 N2B      9.2153   3.8891   8.6970   N.ar      1 RES1   0.0000
    38 C3B     10.4612   3.6518   8.2721   C.ar      1 RES1   0.0000
    39 C2B     11.3042   3.6952   9.3917   C.ar      1 RES1   0.0000
    40 C1B     10.5089   3.9716  10.5006   C.ar      1 RES1   0.0000
    41 C4B     10.8806   4.1223  11.9510   C.3       1 RES1   0.0000
    42 C5B     12.1571   4.9397  12.0655   C.3       1 RES1   0.0000
    43 H2B     12.8961   4.4255  11.7337   H         1 RES1   0.0000
    44 H3B     12.3104   5.1643  12.9861   H         1 RES1   0.0000
    45 H4B     12.0687   5.7437  11.5507   H         1 RES1   0.0000
    46 C6B     11.0380   2.7461  12.5537   C.3       1 RES1   0.0000
    47 H5B     10.2320   2.2434  12.4188   H         1 RES1   0.0000
    48 H6B     11.2126   2.8265  13.4935   H         1 RES1   0.0000
    49 H7B     11.7711   2.2931  12.1298   H         1 RES1   0.0000
    50 C7B      9.7958   4.8849  12.7024   C.3       1 RES1   0.0000
    51 H8B      9.7531   5.7858  12.3738   H         1 RES1   0.0000
    52 H9B     10.0036   4.8951  13.6401   H         1 RES1   0.0000
    53 H10B     8.9486   4.4535  12.5665   H         1 RES1   0.0000
    54 H1B     12.2242   3.5628   9.3938   H         1 RES1   0.0000
    55 C8B     10.7773   3.4574   6.8206   C.3       1 RES1   0.0000
    56 C9B      9.5416   3.0179   6.0520   C.3       1 RES1   0.0000
    57 H11B     8.8513   3.6777   6.1505   H         1 RES1   0.0000
    58 H12B     9.2300   2.1770   6.3989   H         1 RES1   0.0000
    59 H13B     9.7597   2.9184   5.1229   H         1 RES1   0.0000
    60 C10B    11.2870   4.7573   6.2447   C.3       1 RES1   0.0000
    61 H14B    11.4417   4.6501   5.3028   H         1 RES1   0.0000
    62 H15B    12.1077   4.9997   6.6793   H         1 RES1   0.0000
    63 H16B    10.6342   5.4463   6.3849   H         1 RES1   0.0000
    64 C11B    11.8514   2.3735   6.6697   C.3       1 RES1   0.0000
    65 H17B    12.0834   2.2804   5.7427   H         1 RES1   0.0000
    66 H18B    11.5102   1.5377   6.9993   H         1 RES1   0.0000
    67 H19B    12.6294   2.6211   7.1728   H         1 RES1   0.0000
    68 C3A      5.2994   1.8753   8.2721   C.ar      1 RES1   0.0000
    69 C2A      4.9155   1.1236   9.3917   C.ar      1 RES1   0.0000
    70 C1A      5.5525   1.6741  10.5006   C.ar      1 RES1   0.0000
    71 C4A      5.4972   1.2769  11.9510   C.3       1 RES1   0.0000
    72 C5A      5.5669  -0.2374  12.0655   C.3       1 RES1   0.0000
    73 H2A      4.7520  -0.6202  11.7337   H         1 RES1   0.0000
    74 H3A      5.6848  -0.4824  12.9861   H         1 RES1   0.0000
    75 H4A      6.3073  -0.5628  11.5507   H         1 RES1   0.0000
    76 C6A      4.2267   1.8286  12.5537   C.3       1 RES1   0.0000
    77 H5A      4.1943   2.7780  12.4188   H         1 RES1   0.0000
    78 H6A      4.2091   1.6372  13.4935   H         1 RES1   0.0000
    79 H7A      3.4679   1.4203  12.1298   H         1 RES1   0.0000
    80 C7A      6.7000   1.8350  12.7024   C.3       1 RES1   0.0000
    81 H8A      7.5016   1.4216  12.3738   H         1 RES1   0.0000
    82 H9A      6.6050   1.6500  13.6401   H         1 RES1   0.0000
    83 H10A     6.7501   2.7844  12.5665   H         1 RES1   0.0000
    84 H1A      4.3409   0.3930   9.3938   H         1 RES1   0.0000
    85 C8A      4.9731   1.6987   6.8206   C.3       1 RES1   0.0000
    86 C9A      5.2103   2.9886   6.0520   C.3       1 RES1   0.0000
    87 H11A     6.1268   3.2566   6.1505   H         1 RES1   0.0000
    88 H12A     4.6378   3.6790   6.3989   H         1 RES1   0.0000
    89 H13A     5.0151   2.8495   5.1229   H         1 RES1   0.0000
    90 C10A     5.8439   0.6074   6.2447   C.3       1 RES1   0.0000
    91 H14A     5.6737   0.5270   5.3028   H         1 RES1   0.0000
    92 H15A     5.6435  -0.2246   6.6793   H         1 RES1   0.0000
    93 H16A     6.7670   0.8282   6.3849   H         1 RES1   0.0000
    94 C11A     3.4974   1.3105   6.6697   C.3       1 RES1   0.0000
    95 H17A     3.3006   1.1561   5.7427   H         1 RES1   0.0000
    96 H18A     2.9441   2.0239   6.9993   H         1 RES1   0.0000
    97 H19A     3.3227   0.5130   7.1728   H         1 RES1   0.0000
    98 C12      0.0000   0.0000   0.5459   C.2       2 RES2   0.0000
    99 C13      0.0000   0.0000   1.8518   C.2       2 RES2   0.0000
   100 C14      0.0000   0.0000   3.1898   C.2       2 RES2   0.0000
   101 C12C    -0.0000  -0.0000  -0.5459   C.2       2 RES2   0.0000
   102 C13C    -0.0000  -0.0000  -1.8518   C.2       2 RES2   0.0000
   103 C14C    -0.0000  -0.0000  -3.1898   C.2       2 RES2   0.0000
@<TRIPOS>BOND
     1     1     2    1
     2     2     3   ar
     3     3     1    1
     4     4     2   ar
     5     5     4   ar
     6     6     5    1
     7     7     3   ar
     8     8     4    1
     9     9     8    1
    10    10     9    1
    11    11     9    1
    12    12     9    1
    13    13     8    1
    14    14    13    1
    15    15    13    1
    16    16    13    1
    17    17     8    1
    18    18    17    1
    19    19    17    1
    20    20    17    1
    21    21     7    1
    22    22    21    1
    23    23    22    1
    24    24    22    1
    25    25    22    1
    26    26    21    1
    27    27    26    1
    28    28    26    1
    29    29    26    1
    30    30    21    1
    31    31    30    1
    32    32    30    1
    33    33    30    1
    34    34     1    1
    35    35     1    1
    36    36     1    1
    37    37     1    1
    38    38    37   ar
    39    39    38   ar
    40    40    36   ar
    41    41    40    1
    42    42    41    1
    43    43    42    1
    44    44    42    1
    45    45    42    1
    46    46    41    1
    47    47    46    1
    48    48    46    1
    49    49    46    1
    50    50    41    1
    51    51    50    1
    52    52    50    1
    53    53    50    1
    54    54    39    1
    55    55    38    1
    56    56    55    1
    57    57    56    1
    58    58    56    1
    59    59    56    1
    60    60    55    1
    61    61    60    1
    62    62    60    1
    63    63    60    1
    64    64    55    1
    65    65    64    1
    66    66    64    1
    67    67    64    1
    68    68    35   ar
    69    69    68   ar
    70    70    34   ar
    71    71    70    1
    72    72    71    1
    73    73    72    1
    74    74    72    1
    75    75    72    1
    76    76    71    1
    77    77    76    1
    78    78    76    1
    79    79    76    1
    80    80    71    1
    81    81    80    1
    82    82    80    1
    83    83    80    1
    84    84    69    1
    85    85    68    1
    86    86    85    1
    87    87    86    1
    88    88    86    1
    89    89    86    1
    90    90    85    1
    91    91    90    1
    92    92    90    1
    93    93    90    1
    94    94    85    1
    95    95    94    1
    96    96    94    1
    97    97    94    1
    98     5     7   ar
    99    34    35   ar
   100    36    37   ar
   101    39    40   ar
   102    69    70   ar
   103    98    99    1
   104    99   100    1
   105   101    98    1
   106   102   101    1
   107   103   102    1
@<TRIPOS>SUBSTRUCTURE
     1 RES1        1 GROUP             0 ****  ****    0  
     2 RES2       98 GROUP             0 ****  ****    0  
@<TRIPOS>CRYSIN
   14.7350   14.7350   10.7040   90.0000   90.0000  120.0000   147     1
