@<TRIPOS>MOLECULE
MOPYEX
   105   110     4     0     0
SMALL
USER_CHARGES
****
Generated from the CSD

@<TRIPOS>ATOM
     1 Fe1      5.5717   7.8677   5.5153   Fe        1 RES1   2.0000
     2 P1       4.8375   9.7715   4.7374   P.3       1 RES1   0.0000
     3 P2       4.0878   8.1376   7.0789   P.3       1 RES1   0.0000
     4 N1       7.0749   8.6862   6.5875   N.3       1 RES1   0.0000
     5 N2       6.2173   6.0922   6.2834   N.3       1 RES1   0.0000
     6 N3       6.7865   7.5814   4.0015   N.1       1 RES1   0.0000
     7 N4       4.2507   6.9815   4.4275   N.1       1 RES1   0.0000
     8 C1       7.8033   9.7927   5.9254   C.3       1 RES1   0.0000
     9 H1       8.0335   9.5139   5.0030   H         1 RES1   0.0000
    10 H2       8.6524   9.9494   6.4115   H         1 RES1   0.0000
    11 C2       7.0359  11.0940   5.8606   C.ar      1 RES1   0.0000
    12 C3       7.6837  12.2530   6.3132   C.ar      1 RES1   0.0000
    13 H3       8.5375  12.1796   6.7236   H         1 RES1   0.0000
    14 C4       7.1006  13.5094   6.1717   C.ar      1 RES1   0.0000
    15 H4       7.5437  14.2776   6.5108   H         1 RES1   0.0000
    16 C5       5.8892  13.6402   5.5420   C.ar      1 RES1   0.0000
    17 H5       5.5075  14.5013   5.4156   H         1 RES1   0.0000
    18 C6       5.2257  12.5102   5.0927   C.ar      1 RES1   0.0000
    19 H6       4.3822  12.6016   4.6660   H         1 RES1   0.0000
    20 C7       5.7805  11.2340   5.2568   C.ar      1 RES1   0.0000
    21 C8       4.8080   9.8528   2.9206   C.ar      1 RES1   0.0000
    22 C9       5.9681  10.2112   2.2369   C.ar      1 RES1   0.0000
    23 H7       6.7211  10.5324   2.7186   H         1 RES1   0.0000
    24 C10      6.0267  10.1011   0.8511   C.ar      1 RES1   0.0000
    25 H8       6.8163  10.3595   0.3899   H         1 RES1   0.0000
    26 C11      4.9405   9.6171   0.1415   C.ar      1 RES1   0.0000
    27 H9       4.9856   9.5359  -0.8036   H         1 RES1   0.0000
    28 C12      3.7962   9.2536   0.8112   C.ar      1 RES1   0.0000
    29 H10      3.0547   8.9174   0.3229   H         1 RES1   0.0000
    30 C13      3.7123   9.3722   2.1969   C.ar      1 RES1   0.0000
    31 H11      2.9137   9.1275   2.6484   H         1 RES1   0.0000
    32 C14      3.1076  10.0667   5.3346   C.3       1 RES1   0.0000
    33 H12      3.0620  10.9510   5.7785   H         1 RES1   0.0000
    34 H13      2.4925  10.0850   4.5591   H         1 RES1   0.0000
    35 C15      2.6463   8.9829   6.3197   C.3       1 RES1   0.0000
    36 H14      2.0871   8.3191   5.8422   H         1 RES1   0.0000
    37 H15      2.0931   9.3953   7.0293   H         1 RES1   0.0000
    38 C16      4.5092   9.1102   8.5738   C.ar      1 RES1   0.0000
    39 C17      5.1420   8.4854   9.6442   C.ar      1 RES1   0.0000
    40 H16      5.3264   7.5548   9.6010   H         1 RES1   0.0000
    41 C18      5.5098   9.2061  10.7794   C.ar      1 RES1   0.0000
    42 H17      5.9710   8.7767  11.4901   H         1 RES1   0.0000
    43 C19      5.1993  10.5427  10.8658   C.ar      1 RES1   0.0000
    44 H18      5.4257  11.0323  11.6478   H         1 RES1   0.0000
    45 C20      4.5558  11.1775   9.8127   C.ar      1 RES1   0.0000
    46 H19      4.3431  12.1016   9.8786   H         1 RES1   0.0000
    47 C21      4.2202  10.4724   8.6613   C.ar      1 RES1   0.0000
    48 H20      3.7969  10.9171   7.9366   H         1 RES1   0.0000
    49 C22      3.5055   6.5938   7.8383   C.ar      1 RES1   0.0000
    50 C23      2.4483   6.6836   8.7456   C.ar      1 RES1   0.0000
    51 H21      2.0082   7.5176   8.8654   H         1 RES1   0.0000
    52 C24      2.0279   5.5883   9.4714   C.ar      1 RES1   0.0000
    53 H22      1.2993   5.6619  10.0762   H         1 RES1   0.0000
    54 C25      2.6824   4.3833   9.3050   C.ar      1 RES1   0.0000
    55 H23      2.4073   3.6232   9.8051   H         1 RES1   0.0000
    56 C26      3.7366   4.2770   8.4150   C.ar      1 RES1   0.0000
    57 H24      4.1841   3.4436   8.3243   H         1 RES1   0.0000
    58 C27      4.1616   5.3735   7.6395   C.ar      1 RES1   0.0000
    59 C28      5.2045   5.0583   6.5951   C.3       1 RES1   0.0000
    60 H25      5.6845   4.2418   6.8835   H         1 RES1   0.0000
    61 H26      4.7317   4.8349   5.7537   H         1 RES1   0.0000
    62 C29      7.1753   6.3738   7.3911   C.3       1 RES1   0.0000
    63 H27      6.6400   6.6160   8.2012   H         1 RES1   0.0000
    64 C30      8.0056   7.5828   7.0077   C.3       1 RES1   0.0000
    65 H28      8.5750   7.3362   6.2235   H         1 RES1   0.0000
    66 C31      8.9239   7.9743   8.1645   C.3       1 RES1   0.0000
    67 H29      9.4823   8.7462   7.8955   H         1 RES1   0.0000
    68 H30      8.3765   8.2463   8.9432   H         1 RES1   0.0000
    69 C32      9.8223   6.8109   8.5576   C.3       1 RES1   0.0000
    70 H31     10.4342   6.6024   7.8080   H         1 RES1   0.0000
    71 H32     10.3729   7.0719   9.3374   H         1 RES1   0.0000
    72 C33      9.0114   5.5746   8.9032   C.3       1 RES1   0.0000
    73 H33      8.4829   5.7483   9.7230   H         1 RES1   0.0000
    74 H34      9.6252   4.8213   9.0890   H         1 RES1   0.0000
    75 C34      8.0606   5.1865   7.7583   C.3       1 RES1   0.0000
    76 H35      8.5877   4.9078   6.9677   H         1 RES1   0.0000
    77 H36      7.4954   4.4231   8.0381   H         1 RES1   0.0000
    78 C35      7.3329   7.3274   3.0308   C.1       1 RES1   0.0000
    79 C36      7.9876   6.9878   1.7897   C.3       1 RES1   0.0000
    80 H37      7.6052   6.1584   1.4344   H         1 RES1   0.0000
    81 H38      8.9466   6.8634   1.9496   H         1 RES1   0.0000
    82 H39      7.8560   7.7124   1.1417   H         1 RES1   0.0000
    83 C37      3.5590   6.5079   3.6453   C.1       1 RES1   0.0000
    84 C38      2.7091   5.9385   2.6149   C.3       1 RES1   0.0000
    85 H40      1.9880   6.5668   2.4021   H         1 RES1   0.0000
    86 H41      2.3234   5.0976   2.9379   H         1 RES1   0.0000
    87 H42      3.2411   5.7670   1.8102   H         1 RES1   0.0000
    88 H43      6.8384   9.2529   7.4311   H         1 RES1   0.0000
    89 H44      6.7597   5.6602   5.6489   H         1 RES1   0.0000
    90 B1       5.9120   3.7666   2.9022   B         2 RES2  -1.0000
    91 F1       6.7136   4.5331   3.7523   F         2 RES2   0.0000
    92 F2       4.6317   3.7027   3.4472   F         2 RES2   0.0000
    93 F3       6.4467   2.5040   2.7796   F         2 RES2   0.0000
    94 F4       5.8448   4.3968   1.6662   F         2 RES2   0.0000
    95 B2      -0.2493   9.1478   3.6443   B         3 RES3  -1.0000
    96 F5      -0.2423   8.8852   4.9663   F         3 RES3   0.0000
    97 F6      -1.5303   9.2959   3.1529   F         3 RES3   0.0000
    98 F7       0.3487   8.0714   3.0027   F         3 RES3   0.0000
    99 F8       0.4610  10.2243   3.2533   F         3 RES3   0.0000
   100 N5      10.6910   5.4618   0.2733   N.1       4 RES4   0.0000
   101 C39     10.0896   4.5231   0.5865   C.1       4 RES4   0.0000
   102 C40      9.3466   3.3622   1.0002   C.3       4 RES4   0.0000
   103 H45      8.4751   3.6402   1.3512   H         4 RES4   0.0000
   104 H46      9.8451   2.8877   1.6979   H         4 RES4   0.0000
   105 H47      9.2153   2.7674   0.2322   H         4 RES4   0.0000
@<TRIPOS>BOND
     1     1     2    1
     2     2    20    1
     3     3     1    1
     4     4     1    1
     5     5     1    1
     6     6     1    1
     7     7     1    1
     8     8     4    1
     9     9     8    1
    10    10     8    1
    11    11     8    1
    12    12    11   ar
    13    13    12    1
    14    14    12   ar
    15    15    14    1
    16    16    14   ar
    17    17    16    1
    18    18    16   ar
    19    19    18    1
    20    20    11   ar
    21    21     2    1
    22    22    21   ar
    23    23    22    1
    24    24    22   ar
    25    25    24    1
    26    26    24   ar
    27    27    26    1
    28    28    26   ar
    29    29    28    1
    30    30    21   ar
    31    31    30    1
    32    32     2    1
    33    33    32    1
    34    34    32    1
    35    35     3    1
    36    36    35    1
    37    37    35    1
    38    38     3    1
    39    39    38   ar
    40    40    39    1
    41    41    39   ar
    42    42    41    1
    43    43    41   ar
    44    44    43    1
    45    45    43   ar
    46    46    45    1
    47    47    38   ar
    48    48    47    1
    49    49     3    1
    50    50    49   ar
    51    51    50    1
    52    52    50   ar
    53    53    52    1
    54    54    52   ar
    55    55    54    1
    56    56    54   ar
    57    57    56    1
    58    58    49   ar
    59    59     5    1
    60    60    59    1
    61    61    59    1
    62    62     5    1
    63    63    62    1
    64    64     4    1
    65    65    64    1
    66    66    64    1
    67    67    66    1
    68    68    66    1
    69    69    66    1
    70    70    69    1
    71    71    69    1
    72    72    69    1
    73    73    72    1
    74    74    72    1
    75    75    62    1
    76    76    75    1
    77    77    75    1
    78    78     6    3
    79    79    78    1
    80    80    79    1
    81    81    79    1
    82    82    79    1
    83    83     7    3
    84    84    83    1
    85    85    84    1
    86    86    84    1
    87    87    84    1
    88    88     4    1
    89    89     5    1
    90    18    20   ar
    91    28    30   ar
    92    32    35    1
    93    45    47   ar
    94    56    58   ar
    95    58    59    1
    96    62    64    1
    97    72    75    1
    98    90    91    1
    99    92    90    1
   100    93    90    1
   101    94    90    1
   102    95    96    1
   103    97    95    1
   104    98    95    1
   105    99    95    1
   106   100   101    3
   107   101   102    1
   108   102   103    1
   109   104   102    1
   110   105   102    1
@<TRIPOS>SUBSTRUCTURE
     1 RES1        1 GROUP             0 ****  ****    0  
     2 RES2       90 GROUP             0 ****  ****    0  
     3 RES3       95 GROUP             0 ****  ****    0  
     4 RES4      100 GROUP             0 ****  ****    0  
@<TRIPOS>CRYSIN
   10.9951   16.9467   11.7348   90.0000  113.0120   90.0000     4     1
