@<TRIPOS>MOLECULE
MOYFIP
   180   223     3     0     0
SMALL
NO_CHARGES
****
Generated from the CSD

@<TRIPOS>ATOM
     1 Fe1     -3.1555  15.3034   4.3497   Fe        1 RES1   0.0000
     2 Fe2     -2.0854  17.6864   2.8365   Fe        1 RES1   0.0000
     3 Fe3     -0.1697  19.4839   1.3756   Fe        1 RES1   0.0000
     4 Fe4     -0.0014  16.1949   0.4782   Fe        1 RES1   0.0000
     5 Fe5     -0.0014  16.1949   5.1947   Fe        1 RES1   0.0000
     6 O1      -2.9451  14.3658   6.0725   O.co2     1 RES1   0.0000
     7 O2      -0.8078  14.8613   6.5966   O.co2     1 RES1   0.0000
     8 O3       0.7784  19.5519  -0.3406   O.co2     1 RES1   0.0000
     9 O4       1.0196  17.3997  -0.8581   O.co2     1 RES1   0.0000
    10 O5      -4.9212  14.3585   3.9239   O.co2     1 RES1   0.0000
    11 O6       0.1711  21.4442   1.7752   O.co2     1 RES1   0.0000
    12 O7      -3.4486  18.5414   4.1728   O.co2     1 RES1   0.0000
    13 O8      -4.2270  16.7512   5.1947   O.co2     1 RES1   0.0000
    14 O9      -1.8639  20.1738   0.5634   O.co2     1 RES1   0.0000
    15 O10     -3.3098  18.7285   1.4543   O.co2     1 RES1   0.0000
    16 O11     -1.6928  16.4281   4.1728   O.3       1 RES1   0.0000
    17 O12     -0.7138  17.6815   1.4477   O.3       1 RES1   0.0000
    18 O13     -3.3392  16.1172   2.3648   O.3       1 RES1   0.0000
    19 O14     -2.2565  13.7415   3.3343   O.3       1 RES1   0.0000
    20 C1      -1.9228  14.3391   6.8586   C.2       1 RES1   0.0000
    21 C2      -2.0434  13.5375   8.0377   C.ar      1 RES1   0.0000
    22 C3      -1.0252  13.5423   9.0007   C.ar      1 RES1   0.0000
    23 C4      -1.1598  12.8233  10.2322   C.ar      1 RES1   0.0000
    24 C5      -2.2453  12.1140  10.5270   C.ar      1 RES1   0.0000
    25 C6      -3.2677  12.1407   9.5771   C.ar      1 RES1   0.0000
    26 C7      -3.1695  12.8792   8.3521   C.ar      1 RES1   0.0000
    27 C8      -2.2467  11.2128  11.7847   C.3       1 RES1   0.0000
    28 C9       1.2384  18.6240  -1.0023   C.2       1 RES1   0.0000
    29 C10      2.1149  19.0151  -2.1093   C.ar      1 RES1   0.0000
    30 C11      2.7362  18.1139  -2.9085   C.ar      1 RES1   0.0000
    31 C12      3.6015  18.4467  -4.0221   C.ar      1 RES1   0.0000
    32 C13      3.9156  19.8021  -4.2318   C.ar      1 RES1   0.0000
    33 C14      3.2845  20.7058  -3.5505   C.ar      1 RES1   0.0000
    34 C15      2.4010  20.2637  -2.4696   C.ar      1 RES1   0.0000
    35 C16     -5.2928  13.8071   2.7971   C.2       1 RES1   0.0000
    36 C17     -6.6658  13.1682   2.8823   C.ar      1 RES1   0.0000
    37 C18     -7.1707  12.4298   1.8801   C.ar      1 RES1   0.0000
    38 C19     -8.4315  11.8589   1.9587   C.ar      1 RES1   0.0000
    39 C20     -9.2520  12.0751   3.0133   C.ar      1 RES1   0.0000
    40 C21     -8.7807  12.8476   4.0025   C.ar      1 RES1   0.0000
    41 C22     -7.4793  13.4063   3.9501   C.ar      1 RES1   0.0000
    42 C23    -10.5520  11.4120   3.1116   C.3       1 RES1   0.0000
    43 C24     -4.0629  17.9779   5.1161   C.2       1 RES1   0.0000
    44 C25     -4.6253  18.8111   6.1380   C.ar      1 RES1   0.0000
    45 C26     -5.1400  18.2354   7.2909   C.ar      1 RES1   0.0000
    46 C27     -5.6729  19.0418   8.2932   C.ar      1 RES1   0.0000
    47 C28     -5.6939  20.4240   8.1360   C.ar      1 RES1   0.0000
    48 C29     -5.1778  20.9973   6.9765   C.ar      1 RES1   0.0000
    49 C30     -4.6449  20.1908   5.9808   C.ar      1 RES1   0.0000
    50 C31     -6.3447  21.3908   9.1251   C.3       1 RES1   0.0000
    51 C32     -2.9886  19.6443   0.6158   C.2       1 RES1   0.0000
    52 C33     -4.1078  20.0815  -0.2555   C.ar      1 RES1   0.0000
    53 C34     -3.9072  21.1819  -0.9892   C.ar      1 RES1   0.0000
    54 C35     -4.9478  21.5997  -1.9063   C.ar      1 RES1   0.0000
    55 C36     -6.0375  20.9171  -2.0504   C.ar      1 RES1   0.0000
    56 C37     -6.1413  19.7900  -1.3494   C.ar      1 RES1   0.0000
    57 C38     -5.2606  19.3528  -0.3799   C.ar      1 RES1   0.0000
    58 C39     -6.9646  21.3908  -3.1902   C.3       1 RES1   0.0000
    59 O2A      1.5581  16.1609   6.5966   O.co2     1 RES1   0.0000
    60 C1A      2.5679  15.4565   6.8586   C.2       1 RES1   0.0000
    61 O1A      3.0559  14.5577   6.0725   O.co2     1 RES1   0.0000
    62 Fe1A     2.3491  13.9067   4.3497   Fe        1 RES1   0.0000
    63 O5A      4.0503  12.8500   3.9239   O.co2     1 RES1   0.0000
    64 C16A     4.7136  12.8039   2.7971   C.2       1 RES1   0.0000
    65 O6B      4.4612  13.4209   1.7752   O.co2     1 RES1   0.0000
    66 Fe3B     2.9339  14.6961   1.3756   Fe        1 RES1   0.0000
    67 O3B      2.5188  13.8411  -0.3406   O.co2     1 RES1   0.0000
    68 C9B      1.4852  13.9067  -1.0023   C.2       1 RES1   0.0000
    69 O4B      0.5343  14.7083  -0.8581   O.co2     1 RES1   0.0000
    70 C16B     0.5792  21.9713   2.7971   C.2       1 RES1   0.0000
    71 O5B      0.8709  21.3738   3.9239   O.co2     1 RES1   0.0000
    72 Fe1B     0.8064  19.3722   4.3497   Fe        1 RES1   0.0000
    73 O1B     -0.1108  19.6588   6.0725   O.co2     1 RES1   0.0000
    74 C1B     -0.6451  18.7868   6.8586   C.2       1 RES1   0.0000
    75 O2B     -0.7503  17.5601   6.5966   O.co2     1 RES1   0.0000
    76 O6A     -4.6323  13.7172   1.7752   O.co2     1 RES1   0.0000
    77 Fe3A    -2.7642  14.4022   1.3756   Fe        1 RES1   0.0000
    78 O3A     -3.2972  15.1893  -0.3406   O.co2     1 RES1   0.0000
    79 C9A     -2.7236  16.0516  -1.0023   C.2       1 RES1   0.0000
    80 O4A     -1.5539  16.4743  -0.8581   O.co2     1 RES1   0.0000
    81 O13B     1.6030  19.1244   2.3648   O.3       1 RES1   0.0000
    82 O8B      2.5959  19.5762   5.1947   O.co2     1 RES1   0.0000
    83 C24B     3.5762  18.8208   5.1161   C.2       1 RES1   0.0000
    84 O7B      3.7572  18.0070   4.1728   O.co2     1 RES1   0.0000
    85 Fe2B     2.3351  17.2540   2.8365   Fe        1 RES1   0.0000
    86 O10B     3.8497  17.7933   1.4543   O.co2     1 RES1   0.0000
    87 C32B     4.4822  17.0572   0.6158   C.2       1 RES1   0.0000
    88 O9B      4.3784  15.8184   0.5634   O.co2     1 RES1   0.0000
    89 O12B     1.6451  16.0686   1.4477   O.3       1 RES1   0.0000
    90 O11B     1.0490  17.5431   4.1728   O.3       1 RES1   0.0000
    91 O14B    -0.9957  19.3746   3.3343   O.3       1 RES1   0.0000
    92 O11A     0.6437  14.6111   4.1728   O.3       1 RES1   0.0000
    93 O8A      1.6310  12.2549   5.1947   O.co2     1 RES1   0.0000
    94 C24A     0.4867  11.7836   5.1161   C.2       1 RES1   0.0000
    95 O7A     -0.3085  12.0338   4.1728   O.co2     1 RES1   0.0000
    96 Fe2A    -0.2496  13.6419   2.8365   Fe        1 RES1   0.0000
    97 O10A    -0.5399  12.0606   1.4543   O.co2     1 RES1   0.0000
    98 C32A    -1.4936  11.8808   0.6158   C.2       1 RES1   0.0000
    99 O9A     -2.5146  12.5901   0.5634   O.co2     1 RES1   0.0000
   100 O12A    -0.9312  14.8322   1.4477   O.3       1 RES1   0.0000
   101 O13A     1.7362  13.3407   2.3648   O.3       1 RES1   0.0000
   102 O14A     3.2523  15.4662   3.3343   O.3       1 RES1   0.0000
   103 C33A    -1.3127  10.6930  -0.2555   C.ar      1 RES1   0.0000
   104 C34A    -2.3659  10.3164  -0.9892   C.ar      1 RES1   0.0000
   105 C35A    -2.2075   9.2063  -1.9063   C.ar      1 RES1   0.0000
   106 C36A    -1.0715   8.6039  -2.0504   C.ar      1 RES1   0.0000
   107 C37A    -0.0435   9.0776  -1.3494   C.ar      1 RES1   0.0000
   108 C38A    -0.1052  10.0590  -0.3799   C.ar      1 RES1   0.0000
   109 C39A    -1.0182   7.5643  -3.1902   C.3       1 RES1   0.0000
   110 C25A     0.0463  10.8800   6.1380   C.ar      1 RES1   0.0000
   111 C26A     0.8022  10.7221   7.2909   C.ar      1 RES1   0.0000
   112 C27A     0.3702   9.8573   8.2932   C.ar      1 RES1   0.0000
   113 C28A    -0.8162   9.1480   8.1360   C.ar      1 RES1   0.0000
   114 C29A    -1.5707   9.3084   6.9765   C.ar      1 RES1   0.0000
   115 C30A    -1.1388  10.1731   5.9808   C.ar      1 RES1   0.0000
   116 C31A    -1.3281   8.1011   9.1251   C.3       1 RES1   0.0000
   117 C33B     5.4205  17.8078  -0.2555   C.ar      1 RES1   0.0000
   118 C34B     6.2732  17.0840  -0.9892   C.ar      1 RES1   0.0000
   119 C35B     7.1553  17.7763  -1.9063   C.ar      1 RES1   0.0000
   120 C36B     7.1090  19.0613  -2.0504   C.ar      1 RES1   0.0000
   121 C37B     6.1848  19.7147  -1.3494   C.ar      1 RES1   0.0000
   122 C38B     5.3658  19.1706  -0.3799   C.ar      1 RES1   0.0000
   123 C39B     7.9827  19.6272  -3.1902   C.3       1 RES1   0.0000
   124 C25B     4.5790  18.8912   6.1380   C.ar      1 RES1   0.0000
   125 C26B     4.3378  19.6248   7.2909   C.ar      1 RES1   0.0000
   126 C27B     5.3027  19.6831   8.2932   C.ar      1 RES1   0.0000
   127 C28B     6.5102  19.0103   8.1360   C.ar      1 RES1   0.0000
   128 C29B     6.7486  18.2767   6.9765   C.ar      1 RES1   0.0000
   129 C30B     5.7837  18.2184   5.9808   C.ar      1 RES1   0.0000
   130 C31B     7.6728  19.0904   9.1251   C.3       1 RES1   0.0000
   131 C10A    -3.5005  16.6151  -2.1093   C.ar      1 RES1   0.0000
   132 C11A    -3.0307  17.6038  -2.9085   C.ar      1 RES1   0.0000
   133 C12A    -3.7516  18.1868  -4.0221   C.ar      1 RES1   0.0000
   134 C13A    -5.0825  17.7811  -4.2318   C.ar      1 RES1   0.0000
   135 C14A    -5.5495  16.7828  -3.5505   C.ar      1 RES1   0.0000
   136 C15A    -4.7249  16.2386  -2.4696   C.ar      1 RES1   0.0000
   137 C2B     -1.2790  19.2920   8.0377   C.ar      1 RES1   0.0000
   138 C3B     -1.7839  18.4078   9.0007   C.ar      1 RES1   0.0000
   139 C4B     -2.3393  18.8839  10.2322   C.ar      1 RES1   0.0000
   140 C5B     -2.4108  20.1787  10.5270   C.ar      1 RES1   0.0000
   141 C6B     -1.8765  21.0507   9.5771   C.ar      1 RES1   0.0000
   142 C7B     -1.2860  20.5965   8.3521   C.ar      1 RES1   0.0000
   143 C8B     -3.1906  20.6305  11.7847   C.3       1 RES1   0.0000
   144 C17B     0.7124  23.4798   2.8823   C.ar      1 RES1   0.0000
   145 C18B     0.3254  24.2863   1.8801   C.ar      1 RES1   0.0000
   146 C19B     0.4614  25.6636   1.9587   C.ar      1 RES1   0.0000
   147 C20B     1.0588  26.2660   3.0133   C.ar      1 RES1   0.0000
   148 C21B     1.4922  25.4717   4.0025   C.ar      1 RES1   0.0000
   149 C22B     1.3253  24.0652   3.9501   C.ar      1 RES1   0.0000
   150 C23B     1.1346  27.7235   3.1116   C.3       1 RES1   0.0000
   151 C10B     1.3856  12.9520  -2.1093   C.ar      1 RES1   0.0000
   152 C11B     0.2945  12.8646  -2.9085   C.ar      1 RES1   0.0000
   153 C12B     0.1501  11.9488  -4.0221   C.ar      1 RES1   0.0000
   154 C13B     1.1668  10.9990  -4.2318   C.ar      1 RES1   0.0000
   155 C14B     2.2650  11.0938  -3.5505   C.ar      1 RES1   0.0000
   156 C15B     2.3239  12.0800  -2.4696   C.ar      1 RES1   0.0000
   157 C17A     5.9534  11.9342   2.8823   C.ar      1 RES1   0.0000
   158 C18A     6.8454  11.8662   1.8801   C.ar      1 RES1   0.0000
   159 C19A     7.9701  11.0598   1.9587   C.ar      1 RES1   0.0000
   160 C20A     8.1931  10.2411   3.0133   C.ar      1 RES1   0.0000
   161 C21A     7.2885  10.2630   4.0025   C.ar      1 RES1   0.0000
   162 C22A     6.1540  11.1108   3.9501   C.ar      1 RES1   0.0000
   163 C23A     9.4175   9.4468   3.1116   C.3       1 RES1   0.0000
   164 C2A      3.3224  15.7528   8.0377   C.ar      1 RES1   0.0000
   165 C3A      2.8091  16.6321   9.0007   C.ar      1 RES1   0.0000
   166 C4A      3.4991  16.8751  10.2322   C.ar      1 RES1   0.0000
   167 C5A      4.6561  16.2896  10.5270   C.ar      1 RES1   0.0000
   168 C6A      5.1442  15.3909   9.5771   C.ar      1 RES1   0.0000
   169 C7A      4.4556  15.1067   8.3521   C.ar      1 RES1   0.0000
   170 C8A      5.4373  16.7390  11.7847   C.3       1 RES1   0.0000
   171 N1       6.0347  15.4030   3.8911   N.2       2 RES2   0.0000
   172 C40      6.6055  14.7447   5.0178   C.2       2 RES2   0.0000
   173 N2       8.0066  14.6597   4.8082   N.2       2 RES2   0.0000
   174 C41      8.3039  15.2621   3.5570   C.2       2 RES2   0.0000
   175 C42      7.0838  15.7237   2.9937   C.2       2 RES2   0.0000
   176 N3       2.7684  10.7221   1.7097   N.2       3 RES3   0.0000
   177 C43      2.5454   9.8695   2.8234   C.2       3 RES3   0.0000
   178 C44      3.2355   8.6501   2.5875   C.2       3 RES3   0.0000
   179 N4       3.8848   8.7497   1.3298   N.2       3 RES3   0.0000
   180 C45      3.5945  10.0298   0.7861   C.2       3 RES3   0.0000
@<TRIPOS>BOND
     1     1     6    1
     2     2    12    1
     3     3     8    1
     4     4     9    1
     5     5     7    1
     6     6    20   un
     7     7    20   un
     8     8    28   un
     9     9    28   un
    10    10     1    1
    11    11     3    1
    12    12    43   un
    13    13     1    1
    14    14     3    1
    15    15     2    1
    16    16     1    1
    17    17     2    1
    18    18     1    1
    19    19     1    1
    20    20    21    1
    21    21    22   ar
    22    22    23   ar
    23    23    24   ar
    24    24    25   ar
    25    25    26   ar
    26    26    21   ar
    27    27    24    1
    28    28    29    1
    29    29    30   ar
    30    30    31   ar
    31    31    32   ar
    32    32    33   ar
    33    33    34   ar
    34    34    29   ar
    35    35    10   un
    36    36    35    1
    37    37    36   ar
    38    38    37   ar
    39    39    38   ar
    40    40    39   ar
    41    41    36   ar
    42    42    39    1
    43    43    13   un
    44    44    43    1
    45    45    44   ar
    46    46    45   ar
    47    47    46   ar
    48    48    47   ar
    49    49    44   ar
    50    50    47    1
    51    51    14   un
    52    52    51    1
    53    53    52   ar
    54    54    53   ar
    55    55    54   ar
    56    56    55   ar
    57    57    52   ar
    58    58    55    1
    59    59     5    1
    60    60    59   un
    61    61    60   un
    62    62    61    1
    63    63    62    1
    64    64    63   un
    65    65    64   un
    66    66    65    1
    67    67    66    1
    68    68    67   un
    69    69     4    1
    70    70    11   un
    71    71    70   un
    72    72    71    1
    73    73    72    1
    74    74    73   un
    75    75     5    1
    76    76    35   un
    77    77    18    1
    78    78    77    1
    79    79    78   un
    80    80     4    1
    81    81     3    1
    82    82    72    1
    83    83    82   un
    84    84    83   un
    85    85    81    1
    86    86    85    1
    87    87    86   un
    88    88    66    1
    89    89     4    1
    90    90     5    1
    91    91     2    1
    92    92     5    1
    93    93    62    1
    94    94    93   un
    95    95    94   un
    96    96    19    1
    97    97    96    1
    98    98    97   un
    99    99    77    1
   100   100     4    1
   101   101    62    1
   102   102    62    1
   103   103    98    1
   104   104   103   ar
   105   105   104   ar
   106   106   105   ar
   107   107   106   ar
   108   108   103   ar
   109   109   106    1
   110   110    94    1
   111   111   110   ar
   112   112   111   ar
   113   113   112   ar
   114   114   113   ar
   115   115   110   ar
   116   116   113    1
   117   117    87    1
   118   118   117   ar
   119   119   118   ar
   120   120   119   ar
   121   121   120   ar
   122   122   117   ar
   123   123   120    1
   124   124    83    1
   125   125   124   ar
   126   126   125   ar
   127   127   126   ar
   128   128   127   ar
   129   129   124   ar
   130   130   127    1
   131   131    79    1
   132   132   131   ar
   133   133   132   ar
   134   134   133   ar
   135   135   134   ar
   136   136   131   ar
   137   137    74    1
   138   138   137   ar
   139   139   138   ar
   140   140   139   ar
   141   141   140   ar
   142   142   137   ar
   143   143   140    1
   144   144    70    1
   145   145   144   ar
   146   146   145   ar
   147   147   146   ar
   148   148   147   ar
   149   149   144   ar
   150   150   147    1
   151   151    68    1
   152   152   151   ar
   153   153   152   ar
   154   154   153   ar
   155   155   154   ar
   156   156   151   ar
   157   157    64    1
   158   158   157   ar
   159   159   158   ar
   160   160   159   ar
   161   161   160   ar
   162   162   157   ar
   163   163   160    1
   164   164    60    1
   165   165   164   ar
   166   166   165   ar
   167   167   166   ar
   168   168   167   ar
   169   169   164   ar
   170   170   167    1
   171     2    16    1
   172     2    18    1
   173     3    17    1
   174     3    91    1
   175     4    17    1
   176     5    16    1
   177    15    51   un
   178    19    77    1
   179    40    41   ar
   180    48    49   ar
   181    56    57   ar
   182    62    92    1
   183    66    89    1
   184    66   101    1
   185    66   102    1
   186    68    69   un
   187    72    81    1
   188    72    90    1
   189    72    91    1
   190    74    75   un
   191    76    77    1
   192    77   100    1
   193    79    80   un
   194    84    85    1
   195    85    89    1
   196    85    90    1
   197    85   102    1
   198    87    88   un
   199    92    96    1
   200    95    96    1
   201    96   100    1
   202    96   101    1
   203    98    99   un
   204   107   108   ar
   205   114   115   ar
   206   121   122   ar
   207   128   129   ar
   208   135   136   ar
   209   141   142   ar
   210   148   149   ar
   211   155   156   ar
   212   161   162   ar
   213   168   169   ar
   214   171   172    1
   215   172   173    2
   216   173   174    1
   217   174   175    2
   218   175   171    1
   219   176   177    1
   220   177   178    2
   221   178   179    1
   222   179   180    2
   223   180   176    1
@<TRIPOS>SUBSTRUCTURE
     1 RES1        1 GROUP             0 ****  ****    0  
     2 RES2      171 GROUP             0 ****  ****    0  
     3 RES3      176 GROUP             0 ****  ****    0  
@<TRIPOS>CRYSIN
   28.0490   28.0490   65.5070   90.0000   90.0000  120.0000   233     1
