@<TRIPOS>MOLECULE
MUTCIN
   117   128     1     0     0
SMALL
NO_CHARGES
****
Generated from the CSD

@<TRIPOS>ATOM
     1 Fe1      9.6681   4.3166  10.7319   Fe        1 RES1   0.0000
     2 O1       7.8148   3.8988   9.8959   O.co2     1 RES1   0.0000
     3 O2       8.3467   2.4839  11.4924   O.co2     1 RES1   0.0000
     4 N1       9.3476   5.4597  12.4975   N.2       1 RES1   0.0000
     5 N2       9.3961   5.6950  14.7120   N.pl3     1 RES1   0.0000
     6 C1       9.8113   4.9895  13.6422   C.2       1 RES1   0.0000
     7 H1      10.3685   4.2474  13.7025   H         1 RES1   0.0000
     8 C2      10.4549   1.5929   4.8568   C.3       1 RES1   0.0000
     9 H2      10.6485   0.6801   4.6333   H         1 RES1   0.0000
    10 H3      11.2524   2.0193   5.1785   H         1 RES1   0.0000
    11 H4      10.1379   2.0541   4.0767   H         1 RES1   0.0000
    12 C3       9.7190   5.4195  16.1090   C.3       1 RES1   0.0000
    13 H5      10.3086   4.6629  16.1579   H         1 RES1   0.0000
    14 H6       8.9122   5.2292  16.5929   H         1 RES1   0.0000
    15 H7      10.1514   6.1855  16.4942   H         1 RES1   0.0000
    16 C4       9.3997   1.6326   5.9269   C.ar      1 RES1   0.0000
    17 C5       9.7224   1.3750   7.2648   C.ar      1 RES1   0.0000
    18 H8      10.6109   1.2417   7.5023   H         1 RES1   0.0000
    19 C6       7.9032   7.7273  14.8784   C.ar      1 RES1   0.0000
    20 H9       7.9353   7.8334  15.8016   H         1 RES1   0.0000
    21 C7       7.1676   8.5615  14.0874   C.ar      1 RES1   0.0000
    22 H10      6.6742   9.2422  14.4809   H         1 RES1   0.0000
    23 C8       8.7452   1.3160   8.2402   C.ar      1 RES1   0.0000
    24 H11      8.9881   1.1350   9.1192   H         1 RES1   0.0000
    25 C9       7.3936   1.5249   7.9303   C.ar      1 RES1   0.0000
    26 C10      7.1421   8.4146  12.6922   C.ar      1 RES1   0.0000
    27 H12      6.6374   9.0101  12.1871   H         1 RES1   0.0000
    28 C11      7.0813   1.8271   6.5941   C.ar      1 RES1   0.0000
    29 H13      6.1987   2.0030   6.3604   H         1 RES1   0.0000
    30 C12      7.8332   7.4230  12.0533   C.ar      1 RES1   0.0000
    31 H14      7.8091   7.3367  11.1282   H         1 RES1   0.0000
    32 C13      8.5748   6.5480  12.8426   C.ar      1 RES1   0.0000
    33 C14      8.0548   1.8665   5.6285   C.ar      1 RES1   0.0000
    34 H15      7.8126   2.0541   4.7506   H         1 RES1   0.0000
    35 C15      8.5934   6.7184  14.2402   C.ar      1 RES1   0.0000
    36 C16      6.3334   1.3942   8.9471   C.ar      1 RES1   0.0000
    37 C17      5.2209   0.5847   8.6738   C.ar      1 RES1   0.0000
    38 H16      5.1625   0.1555   7.8514   H         1 RES1   0.0000
    39 C18      4.2188   0.4131   9.5902   C.ar      1 RES1   0.0000
    40 H17      3.4937  -0.1323   9.3868   H         1 RES1   0.0000
    41 C19      4.2802   1.0512  10.8195   C.ar      1 RES1   0.0000
    42 H18      3.5917   0.9377  11.4330   H         1 RES1   0.0000
    43 C20      5.3662   1.8617  11.1420   C.ar      1 RES1   0.0000
    44 C21      6.3906   2.0139  10.2095   C.ar      1 RES1   0.0000
    45 C22      7.5954   2.8425  10.5733   C.2       1 RES1   0.0000
    46 C23      5.3986   2.5536  12.4642   C.ar      1 RES1   0.0000
    47 C24      5.6424   3.9153  12.5673   C.ar      1 RES1   0.0000
    48 H19      5.7840   4.4145  11.7965   H         1 RES1   0.0000
    49 C25      5.6771   4.5387  13.8026   C.ar      1 RES1   0.0000
    50 H20      5.8354   5.4544  13.8499   H         1 RES1   0.0000
    51 C26      5.1874   1.8315  13.6369   C.ar      1 RES1   0.0000
    52 C27      5.2348   2.4640  14.8695   C.ar      1 RES1   0.0000
    53 H21      5.0982   1.9659  15.6428   H         1 RES1   0.0000
    54 C28      5.4791   3.8150  14.9731   C.ar      1 RES1   0.0000
    55 C29      5.4973   4.5076  16.3198   C.3       1 RES1   0.0000
    56 H22      4.6009   4.7441  16.5700   H         1 RES1   0.0000
    57 H23      6.0339   5.3012  16.2638   H         1 RES1   0.0000
    58 H24      5.8681   3.9155  16.9793   H         1 RES1   0.0000
    59 H25      5.0567   0.8379  13.5737   H         1 RES1   0.0000
    60 O1F     11.5215   3.8988  11.5678   O.co2     1 RES1   0.0000
    61 C22F    11.7408   2.8425  10.8904   C.2       1 RES1   0.0000
    62 O2F     10.9896   2.4839   9.9714   O.co2     1 RES1   0.0000
    63 N1F      9.9886   5.4597   8.9663   N.2       1 RES1   0.0000
    64 C1F      9.5249   4.9895   7.8215   C.2       1 RES1   0.0000
    65 N2F      9.9401   5.6950   6.7518   N.pl3     1 RES1   0.0000
    66 C3F      9.6172   5.4195   5.3548   C.3       1 RES1   0.0000
    67 H5F      9.0277   4.6629   5.3058   H         1 RES1   0.0000
    68 H6F     10.4241   5.2292   4.8708   H         1 RES1   0.0000
    69 H7F      9.1848   6.1855   4.9696   H         1 RES1   0.0000
    70 C15F    10.7428   6.7184   7.2236   C.ar      1 RES1   0.0000
    71 C6F     11.4330   7.7273   6.5854   C.ar      1 RES1   0.0000
    72 H9F     11.4010   7.8334   5.6621   H         1 RES1   0.0000
    73 C7F     12.1687   8.5615   7.3764   C.ar      1 RES1   0.0000
    74 H10F    12.6621   9.2422   6.9829   H         1 RES1   0.0000
    75 C10F    12.1941   8.4146   8.7715   C.ar      1 RES1   0.0000
    76 H12F    12.6988   9.0101   9.2766   H         1 RES1   0.0000
    77 C12F    11.5030   7.4230   9.4104   C.ar      1 RES1   0.0000
    78 H14F    11.5272   7.3367  10.3355   H         1 RES1   0.0000
    79 C13F    10.7614   6.5480   8.6211   C.ar      1 RES1   0.0000
    80 H1F      8.9677   4.2474   7.7613   H         1 RES1   0.0000
    81 C21F    12.9457   2.0139  11.2543   C.ar      1 RES1   0.0000
    82 C16F    13.0029   1.3942  12.5167   C.ar      1 RES1   0.0000
    83 C9F     11.9427   1.5249  13.5335   C.ar      1 RES1   0.0000
    84 C8F     10.5910   1.3160  13.2235   C.ar      1 RES1   0.0000
    85 C5F      9.6138   1.3750  14.1990   C.ar      1 RES1   0.0000
    86 C4F      9.9365   1.6326  15.5369   C.ar      1 RES1   0.0000
    87 C2F      8.8813   1.5929  16.6069   C.3       1 RES1   0.0000
    88 H2F      8.6877   0.6801  16.8305   H         1 RES1   0.0000
    89 H3F      8.0839   2.0193  16.2853   H         1 RES1   0.0000
    90 H4F      9.1983   2.0541  17.3871   H         1 RES1   0.0000
    91 C14F    11.2815   1.8665  15.8353   C.ar      1 RES1   0.0000
    92 C11F    12.2550   1.8271  14.8697   C.ar      1 RES1   0.0000
    93 H13F    13.1375   2.0030  15.1033   H         1 RES1   0.0000
    94 H15F    11.5237   2.0541  16.7131   H         1 RES1   0.0000
    95 H8F      8.7254   1.2417  13.9615   H         1 RES1   0.0000
    96 H11F    10.3482   1.1350  12.3445   H         1 RES1   0.0000
    97 C17F    14.1153   0.5847  12.7900   C.ar      1 RES1   0.0000
    98 H16F    14.1737   0.1555  13.6123   H         1 RES1   0.0000
    99 C18F    15.1175   0.4131  11.8736   C.ar      1 RES1   0.0000
   100 H17F    15.8425  -0.1323  12.0769   H         1 RES1   0.0000
   101 C19F    15.0561   1.0512  10.6443   C.ar      1 RES1   0.0000
   102 H18F    15.7446   0.9377  10.0307   H         1 RES1   0.0000
   103 C20F    13.9701   1.8617  10.3218   C.ar      1 RES1   0.0000
   104 C23F    13.9377   2.5536   8.9996   C.ar      1 RES1   0.0000
   105 C24F    13.6939   3.9153   8.8964   C.ar      1 RES1   0.0000
   106 H19F    13.5522   4.4145   9.6673   H         1 RES1   0.0000
   107 C25F    13.6592   4.5387   7.6611   C.ar      1 RES1   0.0000
   108 H20F    13.5008   5.4544   7.6139   H         1 RES1   0.0000
   109 C28F    13.8571   3.8150   6.4906   C.ar      1 RES1   0.0000
   110 C27F    14.1014   2.4640   6.5942   C.ar      1 RES1   0.0000
   111 C26F    14.1488   1.8315   7.8268   C.ar      1 RES1   0.0000
   112 H25F    14.2796   0.8379   7.8901   H         1 RES1   0.0000
   113 H21F    14.2381   1.9659   5.8210   H         1 RES1   0.0000
   114 C29F    13.8390   4.5076   5.1440   C.3       1 RES1   0.0000
   115 H22F    14.7353   4.7441   4.8937   H         1 RES1   0.0000
   116 H23F    13.3024   5.3012   5.2000   H         1 RES1   0.0000
   117 H24F    13.4682   3.9155   4.4845   H         1 RES1   0.0000
@<TRIPOS>BOND
     1     1     2    1
     2     2    45   un
     3     3     1    1
     4     4     1    1
     5     5     6    1
     6     6     4    2
     7     7     6    1
     8     8     9    1
     9    10     8    1
    10    11     8    1
    11    12     5    1
    12    13    12    1
    13    14    12    1
    14    15    12    1
    15    16     8    1
    16    17    16   ar
    17    18    17    1
    18    19    20    1
    19    21    19   ar
    20    22    21    1
    21    23    17   ar
    22    24    23    1
    23    25    23   ar
    24    26    21   ar
    25    27    26    1
    26    28    25   ar
    27    29    28    1
    28    30    26   ar
    29    31    30    1
    30    32     4    1
    31    33    16   ar
    32    34    33    1
    33    35     5    1
    34    36    25    1
    35    37    36   ar
    36    38    37    1
    37    39    37   ar
    38    40    39    1
    39    41    39   ar
    40    42    41    1
    41    43    41   ar
    42    44    36   ar
    43    45     3   un
    44    46    43    1
    45    47    46   ar
    46    48    47    1
    47    49    47   ar
    48    50    49    1
    49    51    46   ar
    50    52    51   ar
    51    53    52    1
    52    54    49   ar
    53    55    54    1
    54    56    55    1
    55    57    55    1
    56    58    55    1
    57    59    51    1
    58    60     1    1
    59    61    60   un
    60    62     1    1
    61    63     1    1
    62    64    63    2
    63    65    64    1
    64    66    65    1
    65    67    66    1
    66    68    66    1
    67    69    66    1
    68    70    65    1
    69    71    70   ar
    70    72    71    1
    71    73    71   ar
    72    74    73    1
    73    75    73   ar
    74    76    75    1
    75    77    75   ar
    76    78    77    1
    77    79    63    1
    78    80    64    1
    79    81    61    1
    80    82    81   ar
    81    83    82    1
    82    84    83   ar
    83    85    84   ar
    84    86    85   ar
    85    87    86    1
    86    88    87    1
    87    89    87    1
    88    90    87    1
    89    91    86   ar
    90    92    83   ar
    91    93    92    1
    92    94    91    1
    93    95    85    1
    94    96    84    1
    95    97    82   ar
    96    98    97    1
    97    99    97   ar
    98   100    99    1
    99   101    99   ar
   100   102   101    1
   101   103    81   ar
   102   104   103    1
   103   105   104   ar
   104   106   105    1
   105   107   105   ar
   106   108   107    1
   107   109   107   ar
   108   110   109   ar
   109   111   104   ar
   110   112   111    1
   111   113   110    1
   112   114   109    1
   113   115   114    1
   114   116   114    1
   115   117   114    1
   116    19    35   ar
   117    28    33   ar
   118    30    32   ar
   119    32    35   ar
   120    43    44   ar
   121    44    45    1
   122    52    54   ar
   123    61    62   un
   124    70    79   ar
   125    77    79   ar
   126    91    92   ar
   127   101   103   ar
   128   110   111   ar
@<TRIPOS>SUBSTRUCTURE
     1 RES1        1 GROUP             0 ****  ****    0  
@<TRIPOS>CRYSIN
   14.4530   23.2100   15.6670   90.0000  114.0300   90.0000    15     1
