@<TRIPOS>MOLECULE
MUTXEG
   152   165     3     0     0
SMALL
USER_CHARGES
****
Generated from the CSD

@<TRIPOS>ATOM
     1 Fe1      9.2148   4.2937  10.3712   Fe        1 RES1   2.0000
     2 N1      11.3506   4.5510  10.1715   N.3       1 RES1   0.0000
     3 C1      12.0136   3.2049  10.1030   C.3       1 RES1   0.0000
     4 H1      12.4552   3.0071  10.9667   H         1 RES1   0.0000
     5 H2      12.7070   3.2123   9.3963   H         1 RES1   0.0000
     6 C2      10.9839   2.1208   9.7967   C.3       1 RES1   0.0000
     7 H3      11.4197   1.3522   9.3509   H         1 RES1   0.0000
     8 H4      10.5645   1.8029  10.6342   H         1 RES1   0.0000
     9 N2       9.9655   2.7104   8.9117   N.3       1 RES1   0.0000
    10 C3      10.6088   3.2170   7.6755   C.3       1 RES1   0.0000
    11 H5      10.0346   2.9869   6.9029   H         1 RES1   0.0000
    12 H6      11.4739   2.7515   7.5548   H         1 RES1   0.0000
    13 C4      10.8632   4.7562   7.6711   C.3       1 RES1   0.0000
    14 C5      11.5936   5.3139   8.9290   C.3       1 RES1   0.0000
    15 H7      12.5675   5.3246   8.7502   H         1 RES1   0.0000
    16 H8      11.3060   6.2496   9.0725   H         1 RES1   0.0000
    17 C6      11.7743   5.0391   6.4656   C.3       1 RES1   0.0000
    18 H9      11.9650   6.0007   6.4180   H         1 RES1   0.0000
    19 H10     11.3248   4.7562   5.6430   H         1 RES1   0.0000
    20 H11     12.6142   4.5443   6.5674   H         1 RES1   0.0000
    21 N3       8.6377   5.2392   8.5347   N.ar      1 RES1   0.0000
    22 C7       7.3460   5.5823   8.3693   C.ar      1 RES1   0.0000
    23 H12      6.7519   5.4726   9.1018   H         1 RES1   0.0000
    24 C8       6.8461   6.0831   7.1877   C.ar      1 RES1   0.0000
    25 H13      5.9217   6.2766   7.0904   H         1 RES1   0.0000
    26 C9       7.7291   6.2947   6.1534   C.ar      1 RES1   0.0000
    27 H14      7.4242   6.6768   5.3383   H         1 RES1   0.0000
    28 C10      9.0580   5.9526   6.3037   C.ar      1 RES1   0.0000
    29 H15      9.6734   6.1050   5.5962   H         1 RES1   0.0000
    30 C11      9.4895   5.3838   7.4955   C.ar      1 RES1   0.0000
    31 N4      10.1601   3.8292  12.4028   N.ar      1 RES1   0.0000
    32 C12      9.7612   2.9960  13.3740   C.ar      1 RES1   0.0000
    33 H16      8.9335   2.5429  13.2667   H         1 RES1   0.0000
    34 C13     10.4899   2.7602  14.5221   C.ar      1 RES1   0.0000
    35 H17     10.1830   2.1393  15.1726   H         1 RES1   0.0000
    36 C14     11.6724   3.4447  14.7030   C.ar      1 RES1   0.0000
    37 H18     12.1924   3.3132  15.4876   H         1 RES1   0.0000
    38 C15     12.0921   4.3317  13.7201   C.ar      1 RES1   0.0000
    39 H19     12.8923   4.8336  13.8322   H         1 RES1   0.0000
    40 C16     11.3292   4.4753  12.5792   C.ar      1 RES1   0.0000
    41 C17     11.7885   5.2823  11.3853   C.3       1 RES1   0.0000
    42 H20     11.3849   6.1857  11.4062   H         1 RES1   0.0000
    43 H21     12.7744   5.3751  11.3930   H         1 RES1   0.0000
    44 N5       7.7564   2.7864  10.5504   N.ar      1 RES1   0.0000
    45 C18      6.8796   2.7575  11.5738   C.ar      1 RES1   0.0000
    46 H22      6.7131   3.5621  12.0523   H         1 RES1   0.0000
    47 C19      6.2155   1.6139  11.9546   C.ar      1 RES1   0.0000
    48 H23      5.6024   1.6280  12.6793   H         1 RES1   0.0000
    49 C20      6.4618   0.4423  11.2556   C.ar      1 RES1   0.0000
    50 H24      6.0334  -0.3666  11.5088   H         1 RES1   0.0000
    51 C21      7.3383   0.4659  10.1859   C.ar      1 RES1   0.0000
    52 H25      7.5122  -0.3263   9.6907   H         1 RES1   0.0000
    53 C22      7.9610   1.6559   9.8434   C.ar      1 RES1   0.0000
    54 C23      8.8601   1.7763   8.6439   C.3       1 RES1   0.0000
    55 H26      9.2282   0.8846   8.4162   H         1 RES1   0.0000
    56 H27      8.3358   2.0989   7.8683   H         1 RES1   0.0000
    57 N6       8.1882   5.8870  11.3746   N.1       1 RES1   0.0000
    58 C24      7.5805   6.7730  11.7672   C.1       1 RES1   0.0000
    59 C25      6.7977   7.8924  12.2515   C.3       1 RES1   0.0000
    60 H28      7.2883   8.7253  12.0948   H         1 RES1   0.0000
    61 H29      6.6329   7.7835  13.2111   H         1 RES1   0.0000
    62 H30      5.9416   7.9247  11.7754   H         1 RES1   0.0000
    63 B1       9.5003   8.1528  15.9344   B         2 RES2  -1.0000
    64 C26      8.1131   7.2914  15.7602   C.ar      2 RES2   0.0000
    65 C27      8.0927   6.0320  15.1378   C.ar      2 RES2   0.0000
    66 H31      8.9138   5.6509  14.8474   H         2 RES2   0.0000
    67 C28      6.9191   5.3226  14.9303   C.ar      2 RES2   0.0000
    68 H32      6.9505   4.4669  14.5207   H         2 RES2   0.0000
    69 C29      5.7042   5.8521  15.3155   C.ar      2 RES2   0.0000
    70 H33      4.9000   5.3650  15.1785   H         2 RES2   0.0000
    71 C30      5.6749   7.1030  15.9031   C.ar      2 RES2   0.0000
    72 H34      4.8456   7.4875  16.1586   H         2 RES2   0.0000
    73 C31      6.8636   7.7976  16.1205   C.ar      2 RES2   0.0000
    74 H35      6.8218   8.6513  16.5321   H         2 RES2   0.0000
    75 C32      9.7128   8.8935  14.4832   C.ar      2 RES2   0.0000
    76 C33     10.4666   8.3301  13.4402   C.ar      2 RES2   0.0000
    77 H36     10.8908   7.4942  13.5890   H         2 RES2   0.0000
    78 C34     10.6199   8.9389  12.2014   C.ar      2 RES2   0.0000
    79 H37     11.1493   8.5235  11.5322   H         2 RES2   0.0000
    80 C35     10.0050  10.1505  11.9376   C.ar      2 RES2   0.0000
    81 H38     10.1192  10.5786  11.0986   H         2 RES2   0.0000
    82 C36      9.2185  10.7243  12.9245   C.ar      2 RES2   0.0000
    83 H39      8.7735  11.5474  12.7555   H         2 RES2   0.0000
    84 C37      9.0783  10.1034  14.1601   C.ar      2 RES2   0.0000
    85 H40      8.5283  10.5147  14.8152   H         2 RES2   0.0000
    86 C38      9.4040   9.2053  17.1961   C.ar      2 RES2   0.0000
    87 C39      8.8951   8.7670  18.4285   C.ar      2 RES2   0.0000
    88 H41      8.5268   7.8911  18.4791   H         2 RES2   0.0000
    89 C40      8.9019   9.5463  19.5743   C.ar      2 RES2   0.0000
    90 H42      8.5442   9.2029  20.3850   H         2 RES2   0.0000
    91 C41      9.4299  10.8222  19.5393   C.ar      2 RES2   0.0000
    92 H43      9.4396  11.3624  20.3205   H         2 RES2   0.0000
    93 C42      9.9422  11.2985  18.3510   C.ar      2 RES2   0.0000
    94 H44     10.3070  12.1764  18.3106   H         2 RES2   0.0000
    95 C43      9.9279  10.4983  17.2092   C.ar      2 RES2   0.0000
    96 H45     10.2909  10.8477  16.4047   H         2 RES2   0.0000
    97 C44     10.7801   7.1901  16.3276   C.ar      2 RES2   0.0000
    98 C45     10.6339   6.0179  17.0752   C.ar      2 RES2   0.0000
    99 H46      9.7582   5.7350  17.3100   H         2 RES2   0.0000
   100 C46     11.7144   5.2513  17.4883   C.ar      2 RES2   0.0000
   101 H47     11.5650   4.4568  17.9854   H         2 RES2   0.0000
   102 C47     13.0048   5.6358  17.1818   C.ar      2 RES2   0.0000
   103 H48     13.7461   5.1094  17.4595   H         2 RES2   0.0000
   104 C48     13.1997   6.8003  16.4631   C.ar      2 RES2   0.0000
   105 H49     14.0794   7.0872  16.2494   H         2 RES2   0.0000
   106 C49     12.1004   7.5537  16.0531   C.ar      2 RES2   0.0000
   107 H50     12.2570   8.3519  15.5638   H         2 RES2   0.0000
   108 B2       9.5099   0.2227   3.6876   B         3 RES3  -1.0000
   109 C50      8.9269  -0.4514   2.2968   C.ar      3 RES3   0.0000
   110 C51      9.1942  -1.7844   1.9395   C.ar      3 RES3   0.0000
   111 H51      9.6841  -2.3276   2.5476   H         3 RES3   0.0000
   112 C52      8.7754  -2.3498   0.7363   C.ar      3 RES3   0.0000
   113 H52      8.9820  -3.2560   0.5420   H         3 RES3   0.0000
   114 C53      8.0614  -1.5967  -0.1730   C.ar      3 RES3   0.0000
   115 H53      7.7558  -1.9812  -0.9874   H         3 RES3   0.0000
   116 C54      7.8002  -0.2735   0.1269   C.ar      3 RES3   0.0000
   117 H54      7.3296   0.2657  -0.4981   H         3 RES3   0.0000
   118 C55      8.2196   0.2775   1.3353   C.ar      3 RES3   0.0000
   119 H55      8.0159   1.1874   1.5148   H         3 RES3   0.0000
   120 C56      8.5618   1.5059   4.1233   C.ar      3 RES3   0.0000
   121 C57      8.5825   2.7330   3.4346   C.ar      3 RES3   0.0000
   122 H56      9.2660   2.8793   2.7922   H         3 RES3   0.0000
   123 C58      7.6523   3.7343   3.6517   C.ar      3 RES3   0.0000
   124 H57      7.6863   4.5308   3.1350   H         3 RES3   0.0000
   125 C59      6.6699   3.5826   4.6190   C.ar      3 RES3   0.0000
   126 H58      6.0169   4.2584   4.7567   H         3 RES3   0.0000
   127 C60      6.6610   2.4228   5.3821   C.ar      3 RES3   0.0000
   128 H59      6.0236   2.3175   6.0781   H         3 RES3   0.0000
   129 C61      7.5827   1.4117   5.1302   C.ar      3 RES3   0.0000
   130 H60      7.5495   0.6256   5.6606   H         3 RES3   0.0000
   131 C62      9.4641  -0.8342   4.9561   C.ar      3 RES3   0.0000
   132 C63     10.2285  -0.6176   6.1167   C.ar      3 RES3   0.0000
   133 H61     10.8636   0.0875   6.1162   H         3 RES3   0.0000
   134 C64     10.0976  -1.3899   7.2633   C.ar      3 RES3   0.0000
   135 H62     10.6452  -1.2109   8.0192   H         3 RES3   0.0000
   136 C65      9.1709  -2.4201   7.3106   C.ar      3 RES3   0.0000
   137 H63      9.0690  -2.9432   8.0969   H         3 RES3   0.0000
   138 C66      8.3959  -2.6748   6.1904   C.ar      3 RES3   0.0000
   139 H64      7.7625  -3.3838   6.2012   H         3 RES3   0.0000
   140 C67      8.5476  -1.8920   5.0484   C.ar      3 RES3   0.0000
   141 H65      8.0027  -2.0855   4.2938   H         3 RES3   0.0000
   142 C68     11.0579   0.7023   3.3932   C.ar      3 RES3   0.0000
   143 C69     11.6824   1.6966   4.1690   C.ar      3 RES3   0.0000
   144 H66     11.1781   2.1225   4.8520   H         3 RES3   0.0000
   145 C70     13.0051   2.0811   3.9797   C.ar      3 RES3   0.0000
   146 H67     13.3875   2.7447   4.5399   H         3 RES3   0.0000
   147 C71     13.7663   1.5039   2.9840   C.ar      3 RES3   0.0000
   148 H68     14.6718   1.7625   2.8552   H         3 RES3   0.0000
   149 C72     13.1845   0.5368   2.1731   C.ar      3 RES3   0.0000
   150 H69     13.6886   0.1379   1.4738   H         3 RES3   0.0000
   151 C73     11.8659   0.1507   2.3844   C.ar      3 RES3   0.0000
   152 H70     11.4933  -0.5180   1.8210   H         3 RES3   0.0000
@<TRIPOS>BOND
     1     1     2    1
     2     2     3    1
     3     3     4    1
     4     5     3    1
     5     6     3    1
     6     7     6    1
     7     8     6    1
     8     9     1    1
     9    10     9    1
    10    11    10    1
    11    12    10    1
    12    13    10    1
    13    14     2    1
    14    15    14    1
    15    16    14    1
    16    17    13    1
    17    18    17    1
    18    19    17    1
    19    20    17    1
    20    21     1    1
    21    22    21   ar
    22    23    22    1
    23    24    22   ar
    24    25    24    1
    25    26    24   ar
    26    27    26    1
    27    28    26   ar
    28    29    28    1
    29    30    13    1
    30    31     1    1
    31    32    31   ar
    32    33    32    1
    33    34    32   ar
    34    35    34    1
    35    36    34   ar
    36    37    36    1
    37    38    36   ar
    38    39    38    1
    39    40    31   ar
    40    41     2    1
    41    42    41    1
    42    43    41    1
    43    44     1    1
    44    45    44   ar
    45    46    45    1
    46    47    45   ar
    47    48    47    1
    48    49    47   ar
    49    50    49    1
    50    51    49   ar
    51    52    51    1
    52    53    44   ar
    53    54     9    1
    54    55    54    1
    55    56    54    1
    56    57     1    1
    57    58    57    3
    58    59    58    1
    59    60    59    1
    60    61    59    1
    61    62    59    1
    62     6     9    1
    63    13    14    1
    64    21    30   ar
    65    28    30   ar
    66    38    40   ar
    67    40    41    1
    68    51    53   ar
    69    53    54    1
    70    63    64    1
    71    64    65   ar
    72    65    66    1
    73    67    65   ar
    74    68    67    1
    75    69    67   ar
    76    70    69    1
    77    71    69   ar
    78    72    71    1
    79    73    64   ar
    80    74    73    1
    81    75    63    1
    82    76    75   ar
    83    77    76    1
    84    78    76   ar
    85    79    78    1
    86    80    78   ar
    87    81    80    1
    88    82    80   ar
    89    83    82    1
    90    84    75   ar
    91    85    84    1
    92    86    63    1
    93    87    86   ar
    94    88    87    1
    95    89    87   ar
    96    90    89    1
    97    91    89   ar
    98    92    91    1
    99    93    91   ar
   100    94    93    1
   101    95    86   ar
   102    96    95    1
   103    97    63    1
   104    98    97   ar
   105    99    98    1
   106   100    98   ar
   107   101   100    1
   108   102   100   ar
   109   103   102    1
   110   104   102   ar
   111   105   104    1
   112   106    97   ar
   113   107   106    1
   114    71    73   ar
   115    82    84   ar
   116    93    95   ar
   117   104   106   ar
   118   108   109    1
   119   109   110   ar
   120   110   111    1
   121   112   110   ar
   122   113   112    1
   123   114   112   ar
   124   115   114    1
   125   116   114   ar
   126   117   116    1
   127   118   109   ar
   128   119   118    1
   129   120   108    1
   130   121   120   ar
   131   122   121    1
   132   123   121   ar
   133   124   123    1
   134   125   123   ar
   135   126   125    1
   136   127   125   ar
   137   128   127    1
   138   129   120   ar
   139   130   129    1
   140   131   108    1
   141   132   131   ar
   142   133   132    1
   143   134   132   ar
   144   135   134    1
   145   136   134   ar
   146   137   136    1
   147   138   136   ar
   148   139   138    1
   149   140   131   ar
   150   141   140    1
   151   142   108    1
   152   143   142   ar
   153   144   143    1
   154   145   143   ar
   155   146   145    1
   156   147   145   ar
   157   148   147    1
   158   149   147   ar
   159   150   149    1
   160   151   142   ar
   161   152   151    1
   162   116   118   ar
   163   127   129   ar
   164   138   140   ar
   165   149   151   ar
@<TRIPOS>SUBSTRUCTURE
     1 RES1        1 GROUP             0 ****  ****    0  
     2 RES2       63 GROUP             0 ****  ****    0  
     3 RES3      108 GROUP             0 ****  ****    0  
@<TRIPOS>CRYSIN
   12.0919   33.6364   14.6502   90.0000   90.4960   90.0000   231     1
