@<TRIPOS>MOLECULE
NABXEW
   139   152     1     0     0
SMALL
NO_CHARGES
****
Generated from the CSD

@<TRIPOS>ATOM
     1 Fe1     12.8555   5.3459   0.0000   Fe        1 RES1   0.0000
     2 O1      17.6184   5.4593   7.7399   O.3       1 RES1   0.0000
     3 O2      11.0592  14.2500   0.2681   O.3       1 RES1   0.0000
     4 O3      10.2184   1.0082   4.3658   O.3       1 RES1   0.0000
     5 C1      19.0184   5.2165   7.7056   C.3       1 RES1   0.0000
     6 H1      19.1982   4.4257   7.1545   H         1 RES1   0.0000
     7 H2      19.3448   5.0621   8.6162   H         1 RES1   0.0000
     8 H3      19.4753   5.9939   7.3217   H         1 RES1   0.0000
     9 N1       9.9418   3.5679   3.1413   N.3       1 RES1   0.0000
    10 C2      17.5922   5.5927   5.3112   C.ar      1 RES1   0.0000
    11 H4      18.5410   5.6289   5.2595   H         1 RES1   0.0000
    12 C3      16.9676   5.5106   6.5364   C.ar      1 RES1   0.0000
    13 N2      13.4163   6.8128   1.2285   N.2       1 RES1   0.0000
    14 N3      13.7753   4.0324   1.1651   N.2       1 RES1   0.0000
    15 N4      11.1121   5.0113   0.9986   N.3       1 RES1   0.0000
    16 H5      10.3715   5.2493   0.3860   H         1 RES1   0.0000
    17 H6      11.0491   4.0369   1.1614   H         1 RES1   0.0000
    18 C4       9.0035   1.4093   3.7417   C.3       1 RES1   0.0000
    19 H7       8.2415   0.9707   4.1970   H         1 RES1   0.0000
    20 H8       9.0068   1.1119   2.7980   H         1 RES1   0.0000
    21 C5       9.7655  14.6560   0.6775   C.3       1 RES1   0.0000
    22 H9       9.0916  14.2044   0.1276   H         1 RES1   0.0000
    23 H10      9.6786  15.6263   0.5697   H         1 RES1   0.0000
    24 H11      9.6313  14.4181   1.6190   H         1 RES1   0.0000
    25 C6      12.5321  12.5100  -0.2486   C.ar      1 RES1   0.0000
    26 H12     13.1362  13.1624  -0.5807   H         1 RES1   0.0000
    27 C7      13.6656   8.8825   2.2349   C.2       1 RES1   0.0000
    28 H13     13.5811   9.8143   2.3977   H         1 RES1   0.0000
    29 C8      10.4446  11.9478   0.7875   C.ar      1 RES1   0.0000
    30 H14      9.6087  12.2084   1.1537   H         1 RES1   0.0000
    31 C9      16.8298   5.6236   4.1552   C.ar      1 RES1   0.0000
    32 H15     17.2694   5.6827   3.3161   H         1 RES1   0.0000
    33 C10     14.3382   8.0007   2.9938   C.2       1 RES1   0.0000
    34 H16     14.8312   8.1924   3.7835   H         1 RES1   0.0000
    35 C11     11.3186   1.6711   3.7516   C.3       1 RES1   0.0000
    36 H17     11.3830   1.3869   2.8057   H         1 RES1   0.0000
    37 H18     12.1562   1.4036   4.2069   H         1 RES1   0.0000
    38 C12     11.3144  12.9015   0.2904   C.ar      1 RES1   0.0000
    39 C13      8.8189   2.9055   3.7912   C.3       1 RES1   0.0000
    40 H19      7.9768   3.1521   3.3337   H         1 RES1   0.0000
    41 H20      8.7565   3.2026   4.7338   H         1 RES1   0.0000
    42 C14     13.0979   8.1579   1.1317   C.2       1 RES1   0.0000
    43 C15     12.0106  10.1944   0.1980   C.ar      1 RES1   0.0000
    44 C16     15.4504   5.5712   4.1827   C.ar      1 RES1   0.0000
    45 C17     10.8042  10.6079   0.7457   C.ar      1 RES1   0.0000
    46 H21     10.2088   9.9570   1.0999   H         1 RES1   0.0000
    47 C18     12.8636  11.1717  -0.3025   C.ar      1 RES1   0.0000
    48 H22     13.6915  10.9120  -0.6896   H         1 RES1   0.0000
    49 C19     15.5922   5.4762   6.5870   C.ar      1 RES1   0.0000
    50 H23     15.1529   5.4316   7.4284   H         1 RES1   0.0000
    51 C20     14.1687   6.7057   2.3757   C.2       1 RES1   0.0000
    52 C21     11.1767   3.1697   3.8121   C.3       1 RES1   0.0000
    53 H24     11.1567   3.4672   4.7558   H         1 RES1   0.0000
    54 H25     11.9518   3.5982   3.3688   H         1 RES1   0.0000
    55 C22     14.8447   5.5076   5.4223   C.ar      1 RES1   0.0000
    56 H26     13.8970   5.4851   5.4773   H         1 RES1   0.0000
    57 C23     12.3431   8.7328   0.1155   C.2       1 RES1   0.0000
    58 C24     14.4368   4.2693   2.3493   C.2       1 RES1   0.0000
    59 C25     14.9158   3.0320   2.9278   C.2       1 RES1   0.0000
    60 H27     15.3825   2.9321   3.7494   H         1 RES1   0.0000
    61 C26     10.8533   5.6865   2.2789   C.3       1 RES1   0.0000
    62 H28     10.5997   6.6271   2.1029   H         1 RES1   0.0000
    63 H29     11.6844   5.6913   2.8156   H         1 RES1   0.0000
    64 C27     14.5705   2.0499   2.0721   C.2       1 RES1   0.0000
    65 H30     14.7539   1.1231   2.1755   H         1 RES1   0.0000
    66 C28     13.8726   2.6628   0.9723   C.2       1 RES1   0.0000
    67 C29     14.6570   5.5208   2.9168   C.2       1 RES1   0.0000
    68 C30      9.7449   5.0116   3.0807   C.3       1 RES1   0.0000
    69 H31      9.7335   5.3814   3.9991   H         1 RES1   0.0000
    70 H32      8.8696   5.2068   2.6605   H         1 RES1   0.0000
    71 O1A      8.0926   5.2326  -7.7399   O.3       1 RES1   0.0000
    72 O2A     14.6518  -3.5581  -0.2681   O.3       1 RES1   0.0000
    73 C1A      6.6926   5.4753  -7.7056   C.3       1 RES1   0.0000
    74 H1A      6.5128   6.2662  -7.1545   H         1 RES1   0.0000
    75 H2A      6.3662   5.6298  -8.6162   H         1 RES1   0.0000
    76 H3A      6.2357   4.6980  -7.3217   H         1 RES1   0.0000
    77 C2A      8.1188   5.0992  -5.3112   C.ar      1 RES1   0.0000
    78 H4A      7.1700   5.0629  -5.2595   H         1 RES1   0.0000
    79 C3A      8.7434   5.1812  -6.5364   C.ar      1 RES1   0.0000
    80 N2A     12.2947   3.8791  -1.2285   N.2       1 RES1   0.0000
    81 N3A     11.9357   6.6595  -1.1651   N.2       1 RES1   0.0000
    82 C5A     15.9455  -3.9641  -0.6775   C.3       1 RES1   0.0000
    83 H9A     16.6194  -3.5125  -0.1276   H         1 RES1   0.0000
    84 H10A    16.0323  -4.9344  -0.5697   H         1 RES1   0.0000
    85 H11A    16.0797  -3.7262  -1.6190   H         1 RES1   0.0000
    86 C6A     13.1789  -1.8182   0.2486   C.ar      1 RES1   0.0000
    87 H12A    12.5747  -2.4705   0.5807   H         1 RES1   0.0000
    88 C7A     12.0454   1.8094  -2.2349   C.2       1 RES1   0.0000
    89 H13A    12.1299   0.8776  -2.3977   H         1 RES1   0.0000
    90 C8A     15.2664  -1.2559  -0.7875   C.ar      1 RES1   0.0000
    91 H14A    16.1022  -1.5166  -1.1537   H         1 RES1   0.0000
    92 C9A      8.8812   5.0683  -4.1552   C.ar      1 RES1   0.0000
    93 H15A     8.4416   5.0092  -3.3161   H         1 RES1   0.0000
    94 C10A    11.3727   2.6911  -2.9938   C.2       1 RES1   0.0000
    95 H16A    10.8798   2.4995  -3.7835   H         1 RES1   0.0000
    96 C12A    14.3966  -2.2097  -0.2904   C.ar      1 RES1   0.0000
    97 C14A    12.6131   2.5339  -1.1317   C.2       1 RES1   0.0000
    98 C15A    13.7004   0.4975  -0.1980   C.ar      1 RES1   0.0000
    99 C16A    10.2606   5.1206  -4.1827   C.ar      1 RES1   0.0000
   100 C17A    14.9068   0.0840  -0.7457   C.ar      1 RES1   0.0000
   101 H21A    15.5022   0.7348  -1.0999   H         1 RES1   0.0000
   102 C18A    12.8474  -0.4799   0.3025   C.ar      1 RES1   0.0000
   103 H22A    12.0195  -0.2202   0.6896   H         1 RES1   0.0000
   104 C19A    10.1188   5.2157  -6.5870   C.ar      1 RES1   0.0000
   105 H23A    10.5581   5.2602  -7.4284   H         1 RES1   0.0000
   106 C20A    11.5422   3.9862  -2.3757   C.2       1 RES1   0.0000
   107 C22A    10.8663   5.1843  -5.4223   C.ar      1 RES1   0.0000
   108 H26A    11.8140   5.2067  -5.4773   H         1 RES1   0.0000
   109 C23A    13.3679   1.9591  -0.1155   C.2       1 RES1   0.0000
   110 C24A    11.2742   6.4225  -2.3493   C.2       1 RES1   0.0000
   111 C25A    10.7951   7.6599  -2.9278   C.2       1 RES1   0.0000
   112 H27A    10.3284   7.7598  -3.7494   H         1 RES1   0.0000
   113 C27A    11.1405   8.6420  -2.0721   C.2       1 RES1   0.0000
   114 H30A    10.9571   9.5688  -2.1755   H         1 RES1   0.0000
   115 C28A    11.8384   8.0290  -0.9723   C.2       1 RES1   0.0000
   116 C29A    11.0540   5.1711  -2.9168   C.2       1 RES1   0.0000
   117 O3A     15.4926   9.6837  -4.3658   O.3       1 RES1   0.0000
   118 N1A     15.7692   7.1240  -3.1413   N.3       1 RES1   0.0000
   119 N4A     14.5988   5.6806  -0.9986   N.3       1 RES1   0.0000
   120 H5A     15.3395   5.4426  -0.3860   H         1 RES1   0.0000
   121 H6A     14.6619   6.6550  -1.1614   H         1 RES1   0.0000
   122 C4A     16.7075   9.2826  -3.7417   C.3       1 RES1   0.0000
   123 H7A     17.4695   9.7212  -4.1970   H         1 RES1   0.0000
   124 H8A     16.7042   9.5800  -2.7980   H         1 RES1   0.0000
   125 C11A    14.3924   9.0207  -3.7516   C.3       1 RES1   0.0000
   126 H17A    14.3280   9.3050  -2.8057   H         1 RES1   0.0000
   127 H18A    13.5548   9.2883  -4.2069   H         1 RES1   0.0000
   128 C13A    16.8921   7.7863  -3.7912   C.3       1 RES1   0.0000
   129 H19A    17.7342   7.5398  -3.3337   H         1 RES1   0.0000
   130 H20A    16.9545   7.4892  -4.7338   H         1 RES1   0.0000
   131 C21A    14.5343   7.5221  -3.8121   C.3       1 RES1   0.0000
   132 H24A    14.5543   7.2247  -4.7558   H         1 RES1   0.0000
   133 H25A    13.7592   7.0937  -3.3688   H         1 RES1   0.0000
   134 C26A    14.8577   5.0054  -2.2789   C.3       1 RES1   0.0000
   135 H28A    15.1113   4.0648  -2.1029   H         1 RES1   0.0000
   136 H29A    14.0266   5.0005  -2.8156   H         1 RES1   0.0000
   137 C30A    15.9661   5.6802  -3.0807   C.3       1 RES1   0.0000
   138 H31A    15.9775   5.3105  -3.9991   H         1 RES1   0.0000
   139 H32A    16.8414   5.4851  -2.6605   H         1 RES1   0.0000
@<TRIPOS>BOND
     1     1    13    1
     2     2     5    1
     3     3    21    1
     4     4    18    1
     5     5     6    1
     6     7     5    1
     7     8     5    1
     8     9    39    1
     9    10    11    1
    10    12     2    1
    11    13    42    1
    12    14     1    1
    13    15     1    1
    14    16    15    1
    15    17    15    1
    16    18    19    1
    17    20    18    1
    18    21    22    1
    19    23    21    1
    20    24    21    1
    21    25    26    1
    22    27    28    1
    23    29    30    1
    24    31    10   ar
    25    32    31    1
    26    33    27    2
    27    34    33    1
    28    35     4    1
    29    36    35    1
    30    37    35    1
    31    38     3    1
    32    39    18    1
    33    40    39    1
    34    41    39    1
    35    42    27    1
    36    43    45   ar
    37    44    31   ar
    38    45    29   ar
    39    46    45    1
    40    47    25   ar
    41    48    47    1
    42    49    12   ar
    43    50    49    1
    44    51    13    1
    45    52     9    1
    46    53    52    1
    47    54    52    1
    48    55    44   ar
    49    56    55    1
    50    57    42    2
    51    58    14    2
    52    59    58    1
    53    60    59    1
    54    61    15    1
    55    62    61    1
    56    63    61    1
    57    64    59    2
    58    65    64    1
    59    66    14    1
    60    67    44    1
    61    68     9    1
    62    69    68    1
    63    70    68    1
    64    71    73    1
    65    72    82    1
    66    73    74    1
    67    75    73    1
    68    76    73    1
    69    77    78    1
    70    79    71    1
    71    80     1    1
    72    81     1    1
    73    82    83    1
    74    84    82    1
    75    85    82    1
    76    86    87    1
    77    88    89    1
    78    90    91    1
    79    92    77   ar
    80    93    92    1
    81    94    88    1
    82    95    94    1
    83    96    72    1
    84    97    80    1
    85    98   100   ar
    86    99    92   ar
    87   100    90   ar
    88   101   100    1
    89   102    86   ar
    90   103   102    1
    91   104    79   ar
    92   105   104    1
    93   106    80    1
    94   107    99   ar
    95   108   107    1
    96   109    66    2
    97   110    81    1
    98   111   110    1
    99   112   111    1
   100   113   111    2
   101   114   113    1
   102   115    57    1
   103   116    99    1
   104   117   122    1
   105   118   128    1
   106   119     1    1
   107   120   119    1
   108   121   119    1
   109   122   123    1
   110   124   122    1
   111   125   117    1
   112   126   125    1
   113   127   125    1
   114   128   122    1
   115   129   128    1
   116   130   128    1
   117   131   118    1
   118   132   131    1
   119   133   131    1
   120   134   119    1
   121   135   134    1
   122   136   134    1
   123   137   118    1
   124   138   137    1
   125   139   137    1
   126    10    12   ar
   127    25    38   ar
   128    29    38   ar
   129    33    51    1
   130    35    52    1
   131    43    47   ar
   132    43    57    1
   133    49    55   ar
   134    51    67    2
   135    58    67    1
   136    61    68    1
   137    64    66    1
   138    77    79   ar
   139    81   115    2
   140    86    96   ar
   141    88    97    2
   142    90    96   ar
   143    94   106    2
   144    97   109    1
   145    98   102   ar
   146    98   109    1
   147   104   107   ar
   148   106   116    1
   149   110   116    2
   150   113   115    1
   151   125   131    1
   152   134   137    1
@<TRIPOS>SUBSTRUCTURE
     1 RES1        1 GROUP             0 ****  ****    0  
@<TRIPOS>CRYSIN
   11.1253   11.2379   11.5488   72.3040   86.0020   72.0660     2     1
