@<TRIPOS>MOLECULE
NACXIA
   117   126     1     0     0
SMALL
NO_CHARGES
****
Generated from the CSD

@<TRIPOS>ATOM
     1 Fe1      3.9956   7.4578  17.1391   Fe        1 RES1   0.0000
     2 O1       9.2972   8.4765  16.2912   O.2       1 RES1   0.0000
     3 O2       8.9192   9.8432  17.9300   O.2       1 RES1   0.0000
     4 O3       4.1203   8.4869  22.5800   O.2       1 RES1   0.0000
     5 O4       3.6962   6.3646  22.4824   O.2       1 RES1   0.0000
     6 O5      -0.2802   4.1692  17.9131   O.2       1 RES1   0.0000
     7 O6      -1.1628   5.5662  16.5063   O.2       1 RES1   0.0000
     8 O7       2.7843   8.6291  11.9706   O.2       1 RES1   0.0000
     9 O8       4.5288   7.3773  11.6234   O.2       1 RES1   0.0000
    10 N1       5.2442   8.0991  15.7373   N.2       1 RES1   0.0000
    11 N2       5.3391   7.8849  18.5506   N.2       1 RES1   0.0000
    12 N3       2.6708   6.9915  18.5354   N.2       1 RES1   0.0000
    13 N4       2.7250   6.8504  15.7413   N.2       1 RES1   0.0000
    14 N5       8.5659   8.9887  17.1102   N.pl3     1 RES1   0.0000
    15 N6       3.9309   7.4596  21.9721   N.pl3     1 RES1   0.0000
    16 N7      -0.2352   5.1598  17.1987   N.pl3     1 RES1   0.0000
    17 N8       3.7180   7.9308  12.3544   N.pl3     1 RES1   0.0000
    18 N9       3.2575   9.3329  17.1541   N.ar      1 RES1   0.0000
    19 N10      1.2751  14.3223  17.3111   N.1       1 RES1   0.0000
    20 N11      4.7021   5.5723  17.1219   N.ar      1 RES1   0.0000
    21 N12      6.1551   0.3920  17.1667   N.1       1 RES1   0.0000
    22 C1       4.9105   8.3900  14.4272   C.2       1 RES1   0.0000
    23 C2       5.8446   9.3463  13.8513   C.2       1 RES1   0.0000
    24 C3       6.7906   9.5837  14.8101   C.2       1 RES1   0.0000
    25 C4       6.4369   8.7513  15.9515   C.2       1 RES1   0.0000
    26 C5       7.1514   8.5762  17.1383   C.2       1 RES1   0.0000
    27 C6       6.6829   8.0744  18.3463   C.2       1 RES1   0.0000
    28 C7       7.4411   7.7270  19.5454   C.2       1 RES1   0.0000
    29 C8       6.5238   7.4366  20.5036   C.2       1 RES1   0.0000
    30 C9       5.2144   7.5904  19.8941   C.2       1 RES1   0.0000
    31 C10      3.9660   7.5136  20.4800   C.2       1 RES1   0.0000
    32 C11      2.7305   7.3512  19.8651   C.2       1 RES1   0.0000
    33 C12      1.4101   7.3228  20.4638   C.2       1 RES1   0.0000
    34 C13      0.5678   6.8083  19.5307   C.2       1 RES1   0.0000
    35 C14      1.3836   6.5502  18.3490   C.2       1 RES1   0.0000
    36 C15      1.0360   5.9141  17.1635   C.2       1 RES1   0.0000
    37 C16      1.6988   5.9555  15.9415   C.2       1 RES1   0.0000
    38 C17      1.3541   5.2753  14.7074   C.2       1 RES1   0.0000
    39 C18      2.0574   5.8929  13.7193   C.2       1 RES1   0.0000
    40 C19      2.9150   6.8758  14.3796   C.2       1 RES1   0.0000
    41 C20      3.8550   7.7322  13.8151   C.2       1 RES1   0.0000
    42 C21      5.8198  10.0284  12.5089   C.3       1 RES1   0.0000
    43 H1       5.9666  10.9986  12.6375   H         1 RES1   0.0000
    44 H2       4.9251   9.9098  12.1033   H         1 RES1   0.0000
    45 C22      6.8782   9.4889  11.5443   C.3       1 RES1   0.0000
    46 H3       6.8480   9.9973  10.7079   H         1 RES1   0.0000
    47 H4       6.6990   8.5427  11.3589   H         1 RES1   0.0000
    48 H5       7.7659   9.5793  11.9498   H         1 RES1   0.0000
    49 C23      7.8518  10.6526  14.7505   C.3       1 RES1   0.0000
    50 H6       7.8814  11.0325  13.8376   H         1 RES1   0.0000
    51 H7       8.7345  10.2459  14.9393   H         1 RES1   0.0000
    52 C24      7.5881  11.7787  15.7589   C.3       1 RES1   0.0000
    53 H8       8.2969  12.4518  15.6888   H         1 RES1   0.0000
    54 H9       7.5781  11.4082  16.6669   H         1 RES1   0.0000
    55 H10      6.7212  12.1934  15.5652   H         1 RES1   0.0000
    56 C25      8.9313   7.5166  19.6988   C.3       1 RES1   0.0000
    57 H11      9.3452   7.5428  18.8001   H         1 RES1   0.0000
    58 H12      9.0823   6.6107  20.0687   H         1 RES1   0.0000
    59 C26      9.6527   8.5314  20.5944   C.3       1 RES1   0.0000
    60 H13     10.6034   8.3026  20.6479   H         1 RES1   0.0000
    61 H14      9.2608   8.5116  21.4926   H         1 RES1   0.0000
    62 H15      9.5534   9.4296  20.2156   H         1 RES1   0.0000
    63 C27      6.8429   6.7359  21.7980   C.3       1 RES1   0.0000
    64 H16      6.2358   7.0598  22.5108   H         1 RES1   0.0000
    65 H17      7.7723   6.9412  22.0668   H         1 RES1   0.0000
    66 C28      6.6778   5.2256  21.6318   C.3       1 RES1   0.0000
    67 H18      6.9393   4.7748  22.4624   H         1 RES1   0.0000
    68 H19      7.2466   4.9132  20.8983   H         1 RES1   0.0000
    69 H20      5.7414   5.0191  21.4291   H         1 RES1   0.0000
    70 C29      0.9774   7.9693  21.7568   C.3       1 RES1   0.0000
    71 H21      1.5795   7.6798  22.4874   H         1 RES1   0.0000
    72 H22      0.0576   7.6770  21.9816   H         1 RES1   0.0000
    73 C30      1.0138   9.4931  21.6393   C.3       1 RES1   0.0000
    74 H23      0.6930   9.8928  22.4757   H         1 RES1   0.0000
    75 H24      0.4367   9.7770  20.9000   H         1 RES1   0.0000
    76 H25      1.9333   9.7855  21.4675   H         1 RES1   0.0000
    77 C31     -0.9270   6.7054  19.6656   C.3       1 RES1   0.0000
    78 H26     -1.3183   6.6136  18.7617   H         1 RES1   0.0000
    79 H27     -1.2655   7.5513  20.0537   H         1 RES1   0.0000
    80 C32     -1.4215   5.5459  20.5259   C.3       1 RES1   0.0000
    81 H28     -2.4003   5.5247  20.5127   H         1 RES1   0.0000
    82 H29     -1.1084   5.6659  21.4475   H         1 RES1   0.0000
    83 H30     -1.0727   4.7028  20.1706   H         1 RES1   0.0000
    84 C33      0.5468   4.0115  14.5482   C.3       1 RES1   0.0000
    85 H31      0.4188   3.8244  13.5839   H         1 RES1   0.0000
    86 H32     -0.3450   4.1393  14.9577   H         1 RES1   0.0000
    87 C34      1.2432   2.8146  15.2097   C.3       1 RES1   0.0000
    88 H33      0.6615   2.0280  15.1580   H         1 RES1   0.0000
    89 H34      1.4283   3.0222  16.1495   H         1 RES1   0.0000
    90 H35      2.0851   2.6282  14.7457   H         1 RES1   0.0000
    91 C35      2.0146   5.4951  12.2634   C.3       1 RES1   0.0000
    92 H36      2.1977   6.2916  11.7061   H         1 RES1   0.0000
    93 H37      1.1039   5.1731  12.0432   H         1 RES1   0.0000
    94 C36      3.0204   4.4090  11.9214   C.3       1 RES1   0.0000
    95 H38      2.9635   4.2000  10.9649   H         1 RES1   0.0000
    96 H39      2.8233   3.6041  12.4438   H         1 RES1   0.0000
    97 H40      3.9251   4.7226  12.1334   H         1 RES1   0.0000
    98 C37      1.9405   9.5653  16.9772   C.ar      1 RES1   0.0000
    99 H41      1.3627   8.8252  16.8338   H         1 RES1   0.0000
   100 C38      1.3970  10.8348  16.9966   C.ar      1 RES1   0.0000
   101 H42      0.4632  10.9619  16.8739   H         1 RES1   0.0000
   102 C39      2.2364  11.9198  17.1969   C.ar      1 RES1   0.0000
   103 C40      3.6043  11.6982  17.3493   C.ar      1 RES1   0.0000
   104 H43      4.2075  12.4236  17.4631   H         1 RES1   0.0000
   105 C41      4.0565  10.3980  17.3302   C.ar      1 RES1   0.0000
   106 H44      4.9867  10.2459  17.4481   H         1 RES1   0.0000
   107 C42      1.7025  13.2681  17.2461   C.1       1 RES1   0.0000
   108 C43      4.8390   4.8757  18.2563   C.ar      1 RES1   0.0000
   109 H45      4.6479   5.3115  19.0789   H         1 RES1   0.0000
   110 C44      5.2455   3.5473  18.2914   C.ar      1 RES1   0.0000
   111 H46      5.3671   3.0999  19.1206   H         1 RES1   0.0000
   112 C45      5.4681   2.8885  17.0952   C.ar      1 RES1   0.0000
   113 C46      5.3202   3.5956  15.9069   C.ar      1 RES1   0.0000
   114 H47      5.4574   3.1663  15.0695   H         1 RES1   0.0000
   115 C47      4.9714   4.9280  15.9642   C.ar      1 RES1   0.0000
   116 H48      4.9171   5.4174  15.1513   H         1 RES1   0.0000
   117 C48      5.8514   1.4871  17.1039   C.1       1 RES1   0.0000
@<TRIPOS>BOND
     1     1    10    1
     2     2    14    2
     3     3    14    2
     4     4    15    2
     5     5    15    2
     6     6    16    2
     7     7    16    2
     8     8    17    2
     9     9    17    2
    10    10    22    1
    11    11     1    1
    12    12     1    1
    13    13     1    1
    14    14    26    1
    15    15    31    1
    16    16    36    1
    17    17    41    1
    18    18     1    1
    19    19   107    3
    20    20     1    1
    21    21   117    3
    22    22    23    1
    23    23    24    2
    24    24    25    1
    25    25    10    2
    26    26    25    1
    27    27    11    1
    28    28    27    1
    29    29    28    2
    30    30    11    1
    31    31    30    2
    32    32    12    2
    33    33    32    1
    34    34    33    2
    35    35    12    1
    36    36    35    2
    37    37    13    1
    38    38    37    2
    39    39    38    1
    40    40    13    1
    41    41    22    2
    42    42    23    1
    43    43    42    1
    44    44    42    1
    45    45    42    1
    46    46    45    1
    47    47    45    1
    48    48    45    1
    49    49    24    1
    50    50    49    1
    51    51    49    1
    52    52    49    1
    53    53    52    1
    54    54    52    1
    55    55    52    1
    56    56    28    1
    57    57    56    1
    58    58    56    1
    59    59    56    1
    60    60    59    1
    61    61    59    1
    62    62    59    1
    63    63    29    1
    64    64    63    1
    65    65    63    1
    66    66    63    1
    67    67    66    1
    68    68    66    1
    69    69    66    1
    70    70    33    1
    71    71    70    1
    72    72    70    1
    73    73    70    1
    74    74    73    1
    75    75    73    1
    76    76    73    1
    77    77    34    1
    78    78    77    1
    79    79    77    1
    80    80    77    1
    81    81    80    1
    82    82    80    1
    83    83    80    1
    84    84    38    1
    85    85    84    1
    86    86    84    1
    87    87    84    1
    88    88    87    1
    89    89    87    1
    90    90    87    1
    91    91    39    1
    92    92    91    1
    93    93    91    1
    94    94    91    1
    95    95    94    1
    96    96    94    1
    97    97    94    1
    98    98    18   ar
    99    99    98    1
   100   100    98   ar
   101   101   100    1
   102   102   100   ar
   103   103   102   ar
   104   104   103    1
   105   105    18   ar
   106   106   105    1
   107   107   102    1
   108   108    20   ar
   109   109   108    1
   110   110   108   ar
   111   111   110    1
   112   112   110   ar
   113   113   112   ar
   114   114   113    1
   115   115    20   ar
   116   116   115    1
   117   117   112    1
   118    26    27    2
   119    29    30    1
   120    31    32    1
   121    34    35    1
   122    36    37    1
   123    39    40    2
   124    40    41    1
   125   103   105   ar
   126   113   115   ar
@<TRIPOS>SUBSTRUCTURE
     1 RES1        1 GROUP             0 ****  ****    0  
@<TRIPOS>CRYSIN
   19.4563   14.1225   16.7267   90.0000   93.6940   90.0000    14     1
