@<TRIPOS>MOLECULE
NAHYIH
   177   199     4     0     0
SMALL
USER_CHARGES
****
Generated from the CSD

@<TRIPOS>ATOM
     1 U1      12.3826   9.4056  17.0701   U         1 RES1   0.0000
     2 U2      14.1816  11.1535   6.6588   U         1 RES1   0.0000
     3 S1      13.1118  10.2469  11.8030   S.3       1 RES1   0.0000
     4 S2       9.6034  13.0047  19.9571   S.3       1 RES1   0.0000
     5 S3      12.1213  15.2149   3.7808   S.3       1 RES1   0.0000
     6 O1      13.8878  10.2900  17.3540   O.2       1 RES1   0.0000
     7 O2      10.8972   8.4919  16.7618   O.2       1 RES1   0.0000
     8 O3      15.5114  12.2608   7.0074   O.2       1 RES1   0.0000
     9 O4      12.8627  10.0501   6.3098   O.2       1 RES1   0.0000
    10 O5      12.8696   9.3614  14.6596   O.co2     1 RES1   0.0000
    11 O6      11.8185  11.1513  15.4003   O.co2     1 RES1   0.0000
    12 O7      13.9498  10.4373   8.9755   O.co2     1 RES1   0.0000
    13 O8      12.9881  12.3510   8.4998   O.co2     1 RES1   0.0000
    14 O9      10.9818  11.2256  17.9925   O.co2     1 RES1   0.0000
    15 O10     11.7038   9.7347  19.4195   O.co2     1 RES1   0.0000
    16 O11      7.9955  15.1454  21.1227   O.co2     1 RES1   0.0000
    17 O12      8.0629  14.5197  23.2265   O.co2     1 RES1   0.0000
    18 O13     12.9136  13.0459   5.6937   O.co2     1 RES1  -1.0000
    19 O14     14.1131  11.8840   4.2635   O.co2     1 RES1   0.0000
    20 O15     10.6492  17.4904   2.6306   O.co2     1 RES1   0.0000
    21 O16     11.1463  17.1773   0.5252   O.co2     1 RES1   0.0000
    22 C1      12.3860  10.5270  14.4521   C.2       1 RES1   0.0000
    23 C2      12.4706  11.1370  13.1209   C.2       1 RES1   0.0000
    24 C3      12.1736  12.4258  12.7697   C.2       1 RES1   0.0000
    25 H1      11.8410  13.0763  13.3779   H         1 RES1   0.0000
    26 C4      12.4186  12.6768  11.4177   C.2       1 RES1   0.0000
    27 H2      12.2461  13.5127  10.9995   H         1 RES1   0.0000
    28 C5      12.9324  11.5954  10.7585   C.2       1 RES1   0.0000
    29 C6      13.2929  11.4615   9.3347   C.2       1 RES1   0.0000
    30 C7      11.0831  10.8007  19.1849   C.2       1 RES1   0.0000
    31 C8      10.4582  11.5488  20.2831   C.2       1 RES1   0.0000
    32 C9      10.4645  11.2713  21.6239   C.2       1 RES1   0.0000
    33 H3      10.8960  10.5097  21.9926   H         1 RES1   0.0000
    34 C10      9.7817  12.2091  22.3965   C.2       1 RES1   0.0000
    35 H4       9.7028  12.1650  23.3430   H         1 RES1   0.0000
    36 C11      9.2365  13.2043  21.6207   C.2       1 RES1   0.0000
    37 C12      8.3948  14.3482  22.0261   C.2       1 RES1   0.0000
    38 C13     13.3204  12.8196   4.5013   C.2       1 RES1   0.0000
    39 C14     12.8542  13.7031   3.4207   C.2       1 RES1   0.0000
    40 C15     12.9000  13.4654   2.0527   C.2       1 RES1   0.0000
    41 H5      13.2676  12.6824   1.6601   H         1 RES1   0.0000
    42 C16     12.3362  14.5332   1.3137   C.2       1 RES1   0.0000
    43 H6      12.2669  14.5365   0.3671   H         1 RES1   0.0000
    44 C17     11.9012  15.5558   2.1006   C.2       1 RES1   0.0000
    45 C18     11.1934  16.7988   1.7207   C.2       1 RES1   0.0000
    46 U1       9.7955  19.2200   1.1079   U         1 RES1   0.0000
    47 U2       6.5403  16.4488  22.6209   U         1 RES1   0.0000
    48 O11     15.6368   9.8501   5.1606   O.2       1 RES1   0.0000
    49 O12     15.7041   9.2244   7.2644   O.2       1 RES1   0.0000
    50 O15     13.2362   7.6759  18.5927   O.2       1 RES1   0.0000
    51 O16     13.7334   7.3628  16.4873   O.2       1 RES1   0.0000
    52 U3       3.0449   2.6477   7.9811   U         2 RES2   0.0000
    53 O17      4.1047   2.8704   6.5892   O.2       2 RES2   0.0000
    54 O18      4.9308   2.7121   9.6603   O.3       2 RES2   0.0000
    55 O19      4.2110   4.6157   9.0537   O.3       2 RES2  -1.0000
    56 O20      5.8133   4.5357  10.5206   O.2       2 RES2   0.0000
    57 O21      1.9304   4.6775   7.6459   O.2       2 RES2   0.0000
    58 N1       5.0312   3.9881   9.7672   N.pl3     2 RES2   0.0000
    59 N2       0.3408   6.2946   7.6969   N.am      2 RES2   0.0000
    60 C19      1.2369   5.5112   8.2732   C.2       2 RES2   0.0000
    61 C20      1.3308   5.8171   9.7145   C.3       2 RES2   0.0000
    62 H7       2.2708   5.9615   9.9859   H         2 RES2   0.0000
    63 H8       0.9460   5.0845  10.2573   H         2 RES2   0.0000
    64 C21      0.5091   7.1079   9.8662   C.3       2 RES2   0.0000
    65 H9      -0.0487   7.0693  10.6835   H         2 RES2   0.0000
    66 H10      1.1067   7.8941   9.9268   H         2 RES2   0.0000
    67 C22     -0.3623   7.1972   8.6323   C.3       2 RES2   0.0000
    68 H11     -1.2820   6.8803   8.8159   H         2 RES2   0.0000
    69 H12     -0.3985   8.1223   8.2827   H         2 RES2   0.0000
    70 C23     -0.0202   6.1902   6.2891   C.3       2 RES2   0.0000
    71 H13      0.6736   5.6898   5.8102   H         2 RES2   0.0000
    72 H14     -0.0994   7.0885   5.9044   H         2 RES2   0.0000
    73 H15     -0.8761   5.7229   6.2061   H         2 RES2   0.0000
    74 O17A     1.9851   2.4249   9.3730   O.2       2 RES2   0.0000
    75 O18A     1.1591   2.5832   6.3018   O.3       2 RES2  -1.0000
    76 O19A     1.8788   0.6796   6.9084   O.3       2 RES2   0.0000
    77 O20A     0.2765   0.7596   5.4415   O.2       2 RES2   0.0000
    78 O21A     4.1594   0.6178   8.3163   O.2       2 RES2   0.0000
    79 N1A      1.0586   1.3072   6.1949   N.pl3     2 RES2   0.0000
    80 N2A      5.7490  -0.9993   8.2652   N.am      2 RES2   0.0000
    81 C19A     4.8530  -0.2159   7.6890   C.2       2 RES2   0.0000
    82 C20A     4.7590  -0.5218   6.2476   C.3       2 RES2   0.0000
    83 H7A      3.8190  -0.6662   5.9762   H         2 RES2   0.0000
    84 H8A      5.1439   0.2108   5.7049   H         2 RES2   0.0000
    85 C21A     5.5807  -1.8126   6.0959   C.3       2 RES2   0.0000
    86 H9A      6.1385  -1.7740   5.2787   H         2 RES2   0.0000
    87 H10A     4.9832  -2.5988   6.0353   H         2 RES2   0.0000
    88 C22A     6.4522  -1.9019   7.3298   C.3       2 RES2   0.0000
    89 H11A     7.3719  -1.5850   7.1462   H         2 RES2   0.0000
    90 H12A     6.4884  -2.8270   7.6794   H         2 RES2   0.0000
    91 C23A     6.1101  -0.8949   9.6730   C.3       2 RES2   0.0000
    92 H13A     5.4162  -0.3945  10.1519   H         2 RES2   0.0000
    93 H14A     6.1893  -1.7932  10.0577   H         2 RES2   0.0000
    94 H15A     6.9659  -0.4276   9.7561   H         2 RES2   0.0000
    95 Fe1      5.1291  11.8091   1.7073   Fe        3 RES3   2.0000
    96 N3       4.9764  11.7603   3.6904   N.ar      3 RES3   0.0000
    97 N4       6.1428  10.1222   2.0001   N.ar      3 RES3   0.0000
    98 N5       3.4576  10.8275   1.3887   N.ar      3 RES3   0.0000
    99 N6       5.3532  11.5910  -0.2315   N.ar      3 RES3   0.0000
   100 N7       4.1831  13.5481   1.6233   N.ar      3 RES3   0.0000
   101 N8       6.7147  12.9676   1.9825   N.ar      3 RES3   0.0000
   102 C24      4.4214  12.6353   4.5380   C.ar      3 RES3   0.0000
   103 H16      3.9346  13.3689   4.1805   H         3 RES3   0.0000
   104 C25      4.5319  12.5165   5.9379   C.ar      3 RES3   0.0000
   105 H17      4.1492  13.1774   6.5046   H         3 RES3   0.0000
   106 C26      5.1886  11.4499   6.4758   C.ar      3 RES3   0.0000
   107 H18      5.2697  11.3619   7.4176   H         3 RES3   0.0000
   108 C27      5.7459  10.4746   5.6219   C.ar      3 RES3   0.0000
   109 C28      5.6438  10.7019   4.2348   C.ar      3 RES3   0.0000
   110 C29      6.2617   9.7906   3.3233   C.ar      3 RES3   0.0000
   111 C30      6.9295   8.6846   3.7926   C.ar      3 RES3   0.0000
   112 C31      6.9701   8.4310   5.2052   C.ar      3 RES3   0.0000
   113 H19      7.3677   7.6314   5.5277   H         3 RES3   0.0000
   114 C32      6.4530   9.3140   6.0768   C.ar      3 RES3   0.0000
   115 H20      6.5560   9.1669   7.0090   H         3 RES3   0.0000
   116 C33      7.5074   7.8264   2.8269   C.ar      3 RES3   0.0000
   117 H21      7.9726   7.0440   3.0967   H         3 RES3   0.0000
   118 C34      7.3865   8.1309   1.5084   C.ar      3 RES3   0.0000
   119 H22      7.7650   7.5556   0.8540   H         3 RES3   0.0000
   120 C35      6.7108   9.2828   1.1094   C.ar      3 RES3   0.0000
   121 H23      6.6483   9.4834   0.1836   H         3 RES3   0.0000
   122 C36      2.4651  10.5076   2.2235   C.ar      3 RES3   0.0000
   123 H24      2.5500  10.7421   3.1398   H         3 RES3   0.0000
   124 C37      1.3039   9.8446   1.8053   C.ar      3 RES3   0.0000
   125 H25      0.6132   9.6659   2.4326   H         3 RES3   0.0000
   126 C38      1.1561   9.4502   0.4980   C.ar      3 RES3   0.0000
   127 H26      0.3765   8.9902   0.2091   H         3 RES3   0.0000
   128 C39      2.2104   9.7522  -0.4134   C.ar      3 RES3   0.0000
   129 C40      3.3107  10.4580   0.0607   C.ar      3 RES3   0.0000
   130 C41      4.3576  10.8400  -0.7917   C.ar      3 RES3   0.0000
   131 C42      4.3540  10.4759  -2.1581   C.ar      3 RES3   0.0000
   132 C43      3.2159   9.7068  -2.6226   C.ar      3 RES3   0.0000
   133 H27      3.1915   9.4147  -3.5260   H         3 RES3   0.0000
   134 C44      2.1883   9.3948  -1.8005   C.ar      3 RES3   0.0000
   135 H28      1.4372   8.9298  -2.1501   H         3 RES3   0.0000
   136 C45      5.4424  10.8677  -2.9402   C.ar      3 RES3   0.0000
   137 H29      5.4813  10.6346  -3.8612   H         3 RES3   0.0000
   138 C46      6.4513  11.5881  -2.3672   C.ar      3 RES3   0.0000
   139 H30      7.2065  11.8411  -2.8844   H         3 RES3   0.0000
   140 C47      6.3768  11.9549  -1.0248   C.ar      3 RES3   0.0000
   141 H31      7.0754  12.4821  -0.6560   H         3 RES3   0.0000
   142 C48      2.8778  13.8140   1.4047   C.ar      3 RES3   0.0000
   143 H32      2.3114  13.1208   1.0870   H         3 RES3   0.0000
   144 C49      2.3402  15.0743   1.6329   C.ar      3 RES3   0.0000
   145 H33      1.4191  15.2327   1.4637   H         3 RES3   0.0000
   146 C50      3.1359  16.0993   2.1038   C.ar      3 RES3   0.0000
   147 H34      2.7590  16.9506   2.2922   H         3 RES3   0.0000
   148 C51      4.5010  15.8703   2.2969   C.ar      3 RES3   0.0000
   149 C52      4.9759  14.5911   2.0256   C.ar      3 RES3   0.0000
   150 C53      6.3404  14.2712   2.2363   C.ar      3 RES3   0.0000
   151 C54      7.2369  15.2606   2.6864   C.ar      3 RES3   0.0000
   152 C55      6.7485  16.5629   2.9546   C.ar      3 RES3   0.0000
   153 H35      7.3483  17.2347   3.2627   H         3 RES3   0.0000
   154 C56      5.4194  16.8668   2.7774   C.ar      3 RES3   0.0000
   155 H36      5.1057  17.7433   2.9737   H         3 RES3   0.0000
   156 C57      8.5823  14.8748   2.8397   C.ar      3 RES3   0.0000
   157 H37      9.2256  15.5053   3.1461   H         3 RES3   0.0000
   158 C58      8.9659  13.5902   2.5476   C.ar      3 RES3   0.0000
   159 H38      9.8766  13.3315   2.6194   H         3 RES3   0.0000
   160 C59      7.9921  12.6594   2.1373   C.ar      3 RES3   0.0000
   161 H39      8.2654  11.7666   1.9649   H         3 RES3   0.0000
   162 O22     12.6233  15.9528  10.0290   O.2       4 RES4   0.0000
   163 N9      14.7361  16.1846   9.2293   N.am      4 RES4   0.0000
   164 C60     13.4100  15.9469   9.1048   C.2       4 RES4   0.0000
   165 C61     13.1088  15.7326   7.6299   C.3       4 RES4   0.0000
   166 H40     12.4462  16.3937   7.3091   H         4 RES4   0.0000
   167 H41     12.7527  14.8225   7.4735   H         4 RES4   0.0000
   168 C62     14.4896  15.9232   6.8972   C.3       4 RES4   0.0000
   169 H42     14.6842  15.1467   6.3146   H         4 RES4   0.0000
   170 H43     14.4767  16.7417   6.3402   H         4 RES4   0.0000
   171 C63     15.5306  16.0371   7.9874   C.3       4 RES4   0.0000
   172 H44     16.1003  15.2303   8.0242   H         4 RES4   0.0000
   173 H45     16.1092  16.8325   7.8438   H         4 RES4   0.0000
   174 C64     15.3770  16.3542  10.4919   C.3       4 RES4   0.0000
   175 H46     15.7101  15.4884  10.8064   H         4 RES4   0.0000
   176 H47     14.7296  16.7082  11.1400   H         4 RES4   0.0000
   177 H48     16.1215  16.9807  10.3993   H         4 RES4   0.0000
@<TRIPOS>BOND
     1     1     6    2
     2     2     8    2
     3     3    23    1
     4     4    31    1
     5     5    39    1
     6     7     1    2
     7     9     2    2
     8    10     1    1
     9    11     1    1
    10    12     2    1
    11    13     2    1
    12    14     1    1
    13    15     1    1
    14    16    37   un
    15    17    37   un
    16    18     2    1
    17    19     2    1
    18    20    45   un
    19    21    45   un
    20    22    10   un
    21    23    22    1
    22    24    23    2
    23    25    24    1
    24    26    24    1
    25    27    26    1
    26    28     3    1
    27    29    12   un
    28    30    14   un
    29    31    30    1
    30    32    31    2
    31    33    32    1
    32    34    32    1
    33    35    34    1
    34    36     4    1
    35    37    36    1
    36    38    18   un
    37    39    38    1
    38    40    39    2
    39    41    40    1
    40    42    40    1
    41    43    42    1
    42    44     5    1
    43    45    44    1
    44    46    20   un
    45    47    16   un
    46    48     2   un
    47    49     2   un
    48    50     1   un
    49    51     1   un
    50    11    22   un
    51    13    29   un
    52    15    30   un
    53    17    47   un
    54    19    38   un
    55    21    46   un
    56    26    28    2
    57    28    29    1
    58    34    36    2
    59    42    44    2
    60    52    53    2
    61    54    52    1
    62    55    52    1
    63    56    58    2
    64    57    52    1
    65    58    54    1
    66    59    60   am
    67    60    57    2
    68    61    60    1
    69    62    61    1
    70    63    61    1
    71    64    61    1
    72    65    64    1
    73    66    64    1
    74    67    59    1
    75    68    67    1
    76    69    67    1
    77    70    59    1
    78    71    70    1
    79    72    70    1
    80    73    70    1
    81    74    52    2
    82    75    52    1
    83    76    52    1
    84    77    79    2
    85    78    52    1
    86    79    75    1
    87    80    81   am
    88    81    78    2
    89    82    81    1
    90    83    82    1
    91    84    82    1
    92    85    82    1
    93    86    85    1
    94    87    85    1
    95    88    80    1
    96    89    88    1
    97    90    88    1
    98    91    80    1
    99    92    91    1
   100    93    91    1
   101    94    91    1
   102    55    58    1
   103    64    67    1
   104    76    79    1
   105    85    88    1
   106    95    96    1
   107    96   102   ar
   108    97    95    1
   109    98    95    1
   110    99    95    1
   111   100    95    1
   112   101    95    1
   113   102   103    1
   114   104   102   ar
   115   105   104    1
   116   106   104   ar
   117   107   106    1
   118   108   106   ar
   119   109    96   ar
   120   110    97   ar
   121   111   110   ar
   122   112   111   ar
   123   113   112    1
   124   114   108   ar
   125   115   114    1
   126   116   111   ar
   127   117   116    1
   128   118   116   ar
   129   119   118    1
   130   120    97   ar
   131   121   120    1
   132   122    98   ar
   133   123   122    1
   134   124   122   ar
   135   125   124    1
   136   126   124   ar
   137   127   126    1
   138   128   126   ar
   139   129    98   ar
   140   130    99   ar
   141   131   130   ar
   142   132   131   ar
   143   133   132    1
   144   134   128   ar
   145   135   134    1
   146   136   131   ar
   147   137   136    1
   148   138   136   ar
   149   139   138    1
   150   140    99   ar
   151   141   140    1
   152   142   100   ar
   153   143   142    1
   154   144   142   ar
   155   145   144    1
   156   146   144   ar
   157   147   146    1
   158   148   146   ar
   159   149   100   ar
   160   150   101   ar
   161   151   150   ar
   162   152   151   ar
   163   153   152    1
   164   154   148   ar
   165   155   154    1
   166   156   151   ar
   167   157   156    1
   168   158   156   ar
   169   159   158    1
   170   160   101   ar
   171   161   160    1
   172   108   109   ar
   173   109   110   ar
   174   112   114   ar
   175   118   120   ar
   176   128   129   ar
   177   129   130   ar
   178   132   134   ar
   179   138   140   ar
   180   148   149   ar
   181   149   150   ar
   182   152   154   ar
   183   158   160   ar
   184   162   164    2
   185   163   164   am
   186   164   165    1
   187   165   166    1
   188   167   165    1
   189   168   165    1
   190   169   168    1
   191   170   168    1
   192   171   163    1
   193   172   171    1
   194   173   171    1
   195   174   163    1
   196   175   174    1
   197   176   174    1
   198   177   174    1
   199   168   171    1
@<TRIPOS>SUBSTRUCTURE
     1 RES1        1 GROUP             0 ****  ****    0  
     2 RES2       52 GROUP             0 ****  ****    0  
     3 RES3       95 GROUP             0 ****  ****    0  
     4 RES4      162 GROUP             0 ****  ****    0  
@<TRIPOS>CRYSIN
   13.7311   15.5105   17.8862   68.5740   70.0940   76.9480     2     1
