@<TRIPOS>MOLECULE
NALPOF
   106   112     3     0     0
SMALL
NO_CHARGES
****
Generated from the CSD

@<TRIPOS>ATOM
     1 Fe1      8.7758  19.5990   2.4377   Fe        1 RES1   0.0000
     2 N1       6.8905  19.5676   2.5746   N.2       1 RES1   0.0000
     3 N2       8.5100  21.4295   2.8646   N.2       1 RES1   0.0000
     4 N3      10.6472  19.6421   2.1796   N.2       1 RES1   0.0000
     5 N4       9.0505  17.7841   1.9478   N.2       1 RES1   0.0000
     6 O1       6.1033  18.5191   2.2390   O.3       1 RES1   0.0000
     7 O2       9.4945  22.3703   2.8844   O.3       1 RES1   0.0000
     8 O3      11.3817  20.8043   2.1994   O.3       1 RES1   0.0000
     9 O4       8.0285  16.8924   1.7358   O.3       1 RES1   0.0000
    10 C1       6.3176  20.7044   2.8879   C.2       1 RES1   0.0000
    11 C2       7.2794  21.7941   3.0592   C.2       1 RES1   0.0000
    12 C3      11.2231  18.5681   1.7905   C.2       1 RES1   0.0000
    13 C4      10.2502  17.4176   1.6740   C.2       1 RES1   0.0000
    14 C5       4.8712  20.8631   3.0883   C.3       1 RES1   0.0000
    15 H1       4.4082  20.0302   2.9730   H         1 RES1   0.0000
    16 H2       4.5843  21.4864   2.4161   H         1 RES1   0.0000
    17 H3       4.6761  21.2198   3.9585   H         1 RES1   0.0000
    18 C6       6.8499  23.1739   3.3807   C.3       1 RES1   0.0000
    19 H4       7.6377  23.7226   3.4168   H         1 RES1   0.0000
    20 H5       6.4023  23.1993   4.2288   H         1 RES1   0.0000
    21 H6       6.2617  23.5051   2.6980   H         1 RES1   0.0000
    22 C7      12.6548  18.4113   1.4504   C.3       1 RES1   0.0000
    23 H7      13.0839  19.2501   1.6321   H         1 RES1   0.0000
    24 H8      12.7379  18.2055   0.5161   H         1 RES1   0.0000
    25 H9      13.0722  17.7195   1.9688   H         1 RES1   0.0000
    26 C8      10.6398  16.0829   1.2314   C.3       1 RES1   0.0000
    27 H10      9.8748  15.5048   1.1894   H         1 RES1   0.0000
    28 H11     11.2675  15.7380   1.8698   H         1 RES1   0.0000
    29 H12     11.0537  16.1280   0.3670   H         1 RES1   0.0000
    30 B1       6.6882  17.1197   2.4639   B         1 RES1   0.0000
    31 B2      10.9151  21.8901   3.2118   B         1 RES1   0.0000
    32 C9       6.8126  16.7944   4.0226   C.ar      1 RES1   0.0000
    33 C10      5.8121  17.2079   4.8975   C.ar      1 RES1   0.0000
    34 H13      5.1253  17.7959   4.5771   H         1 RES1   0.0000
    35 C11      5.7829  16.7552   6.2115   C.ar      1 RES1   0.0000
    36 H14      5.0748  17.0315   6.7975   H         1 RES1   0.0000
    37 C12      6.7776  15.9026   6.6752   C.ar      1 RES1   0.0000
    38 H15      6.7570  15.5890   7.5827   H         1 RES1   0.0000
    39 C13      7.8022  15.5028   5.8259   C.ar      1 RES1   0.0000
    40 H16      8.4890  14.9129   6.1463   H         1 RES1   0.0000
    41 C14      7.8325  15.9555   4.5119   C.ar      1 RES1   0.0000
    42 H17      8.5399  15.6792   3.9247   H         1 RES1   0.0000
    43 C15     11.0479  21.3414   4.7239   C.ar      1 RES1   0.0000
    44 C16     10.3030  21.9646   5.7199   C.ar      1 RES1   0.0000
    45 H18      9.6621  22.6408   5.4893   H         1 RES1   0.0000
    46 C17     10.4847  21.6040   7.0503   C.ar      1 RES1   0.0000
    47 H19      9.9705  22.0332   7.7388   H         1 RES1   0.0000
    48 C18     11.4109  20.6240   7.3858   C.ar      1 RES1   0.0000
    49 H20     11.5376  20.3771   8.3050   H         1 RES1   0.0000
    50 C19     12.1558  20.0027   6.3898   C.ar      1 RES1   0.0000
    51 H21     12.7963  19.3266   6.6216   H         1 RES1   0.0000
    52 C20     11.9741  20.3614   5.0594   C.ar      1 RES1   0.0000
    53 H22     12.4879  19.9322   4.3721   H         1 RES1   0.0000
    54 C21     11.8541  23.1876   2.9042   C.ar      1 RES1   0.0000
    55 C22     11.6078  23.9755   1.7847   C.ar      1 RES1   0.0000
    56 H23     10.8708  23.7677   1.2057   H         1 RES1   0.0000
    57 C23     12.4275  25.0632   1.5063   C.ar      1 RES1   0.0000
    58 H24     12.2575  25.6061   0.7328   H         1 RES1   0.0000
    59 C24     13.4943  25.3631   2.3451   C.ar      1 RES1   0.0000
    60 H25     14.0609  26.1117   2.1517   H         1 RES1   0.0000
    61 C25     13.7406  24.5752   3.4646   C.ar      1 RES1   0.0000
    62 H26     14.4776  24.7810   4.0436   H         1 RES1   0.0000
    63 C26     12.9130  23.4953   3.7185   C.ar      1 RES1   0.0000
    64 H27     13.0893  22.9543   4.4921   H         1 RES1   0.0000
    65 C27      5.6403  16.1417   1.6682   C.ar      1 RES1   0.0000
    66 C28      5.0654  16.5474   0.4695   C.ar      1 RES1   0.0000
    67 H28      5.2827  17.4059   0.1002   H         1 RES1   0.0000
    68 C29      4.1742  15.7106  -0.1922   C.ar      1 RES1   0.0000
    69 H29      3.7778  15.9928  -1.0205   H         1 RES1   0.0000
    70 C30      3.8583  14.4680   0.3437   C.ar      1 RES1   0.0000
    71 H30      3.2442  13.8898  -0.1142   H         1 RES1   0.0000
    72 C31      4.4342  14.0623   1.5424   C.ar      1 RES1   0.0000
    73 H31      4.2155  13.2038   1.9129   H         1 RES1   0.0000
    74 C32      5.3240  14.8992   2.2053   C.ar      1 RES1   0.0000
    75 H32      5.7218  14.6189   3.0324   H         1 RES1   0.0000
    76 N5       8.9281  19.1796   4.2334   N.1       1 RES1   0.0000
    77 C33      8.9373  18.9326   5.3576   C.1       1 RES1   0.0000
    78 C34      8.8031  18.6073   6.7101   C.2       1 RES1   0.0000
    79 C35      7.7614  19.1717   7.4324   C.2       1 RES1   0.0000
    80 C36      6.9041  20.1243   6.8360   C.1       1 RES1   0.0000
    81 N6       6.2358  20.9219   6.3874   N.1       1 RES1   0.0000
    82 C37      7.5175  18.7778   8.7756   C.1       1 RES1   0.0000
    83 N7       7.2946  18.4858   9.8497   N.1       1 RES1   0.0000
    84 C38      9.6887  17.6959   7.3497   C.1       1 RES1   0.0000
    85 N8      10.3902  16.9845   7.8739   N.1       1 RES1   0.0000
    86 N9       8.5847  20.0478   0.4800   N.ar      1 RES1   0.0000
    87 C39      9.0881  21.1748  -0.0466   C.ar      1 RES1   0.0000
    88 H33      9.5206  21.7921   0.5487   H         1 RES1   0.0000
    89 C40      8.9460  21.5001  -1.3805   C.ar      1 RES1   0.0000
    90 H34      9.3381  22.3017  -1.7369   H         1 RES1   0.0000
    91 C41      8.2544  20.6769  -2.2157   C.ar      1 RES1   0.0000
    92 H35      8.1590  20.8749  -3.1500   H         1 RES1   0.0000
    93 C42      7.7427  19.5147  -1.6892   C.ar      1 RES1   0.0000
    94 H36      7.2550  18.8974  -2.2402   H         1 RES1   0.0000
    95 C43      7.9180  19.2521  -0.3495   C.ar      1 RES1   0.0000
    96 H37      7.5416  18.4485   0.0151   H         1 RES1   0.0000
    97 C44      3.5310   5.4622   7.1144   C.3       2 RES2   0.0000
    98 H38      3.0737   5.4622   7.9578   H         2 RES2   0.0000
    99 H39      2.8748   5.3819   6.4189   H         2 RES2   0.0000
   100 Cl1      4.3713   6.9459   6.8919   Cl        2 RES2   0.0000
   101 Cl2      4.5942   4.0766   7.0235   Cl        2 RES2   0.0000
   102 C45     -0.9693   2.4479  11.3944   C.3       3 RES3   0.0000
   103 H40     -1.4916   2.1676  12.1493   H         3 RES3   0.0000
   104 H41     -0.5171   3.2613  11.6309   H         3 RES3   0.0000
   105 Cl3     -2.0753   2.7478  10.0675   Cl        3 RES3   0.0000
   106 Cl4      0.1818   1.2112  11.0414   Cl        3 RES3   0.0000
@<TRIPOS>BOND
     1     1     2    1
     2     2     6    1
     3     3     1    1
     4     4     1    1
     5     5     1    1
     6     6    30    1
     7     7     3    1
     8     8     4    1
     9     9     5    1
    10    10     2    2
    11    11     3    2
    12    12     4    2
    13    13     5    2
    14    14    10    1
    15    15    14    1
    16    16    14    1
    17    17    14    1
    18    18    11    1
    19    19    18    1
    20    20    18    1
    21    21    18    1
    22    22    12    1
    23    23    22    1
    24    24    22    1
    25    25    22    1
    26    26    13    1
    27    27    26    1
    28    28    26    1
    29    29    26    1
    30    30     9    1
    31    31     7    1
    32    32    30    1
    33    33    32   ar
    34    34    33    1
    35    35    33   ar
    36    36    35    1
    37    37    35   ar
    38    38    37    1
    39    39    37   ar
    40    40    39    1
    41    41    32   ar
    42    42    41    1
    43    43    31    1
    44    44    43   ar
    45    45    44    1
    46    46    44   ar
    47    47    46    1
    48    48    46   ar
    49    49    48    1
    50    50    48   ar
    51    51    50    1
    52    52    43   ar
    53    53    52    1
    54    54    31    1
    55    55    54   ar
    56    56    55    1
    57    57    55   ar
    58    58    57    1
    59    59    57   ar
    60    60    59    1
    61    61    59   ar
    62    62    61    1
    63    63    54   ar
    64    64    63    1
    65    65    30    1
    66    66    65   ar
    67    67    66    1
    68    68    66   ar
    69    69    68    1
    70    70    68   ar
    71    71    70    1
    72    72    70   ar
    73    73    72    1
    74    74    65   ar
    75    75    74    1
    76    76     1    1
    77    77    76    3
    78    78    77    1
    79    79    78    2
    80    80    79    1
    81    81    80    3
    82    82    79    1
    83    83    82    3
    84    84    78    1
    85    85    84    3
    86    86     1    1
    87    87    86   ar
    88    88    87    1
    89    89    87   ar
    90    90    89    1
    91    91    89   ar
    92    92    91    1
    93    93    91   ar
    94    94    93    1
    95    95    86   ar
    96    96    95    1
    97     8    31    1
    98    10    11    1
    99    12    13    1
   100    39    41   ar
   101    50    52   ar
   102    61    63   ar
   103    72    74   ar
   104    93    95   ar
   105    97    98    1
   106    99    97    1
   107   100    97    1
   108   101    97    1
   109   102   103    1
   110   104   102    1
   111   105   102    1
   112   106   102    1
@<TRIPOS>SUBSTRUCTURE
     1 RES1        1 GROUP             0 ****  ****    0  
     2 RES2       97 GROUP             0 ****  ****    0  
     3 RES3      102 GROUP             0 ****  ****    0  
@<TRIPOS>CRYSIN
   10.3710   19.5990   12.3630   90.0000  109.5600   90.0000     4     1
