@<TRIPOS>MOLECULE
NALRIB
   114   122     2     0     0
SMALL
NO_CHARGES
****
Generated from the CSD

@<TRIPOS>ATOM
     1 Fe1      0.0000   0.0000   0.0000   Fe        1 RES1   0.0000
     2 N1       0.1359   1.8394   0.3235   N.2       1 RES1   0.0000
     3 N2       1.8454  -0.4278   0.2135   N.2       1 RES1   0.0000
     4 C1      -0.9982   2.5763   0.2875   C.2       1 RES1   0.0000
     5 C2       2.1468  -1.6896   0.1568   C.2       1 RES1   0.0000
     6 C3      -1.1514   3.9074   0.7515   C.3       1 RES1   0.0000
     7 H1      -0.3277   4.3258   1.0107   H         1 RES1   0.0000
     8 H2      -1.5404   4.3927   0.0196   H         1 RES1   0.0000
     9 H3      -1.7592   3.9090   1.4954   H         1 RES1   0.0000
    10 C4       3.5019  -2.2257   0.4520   C.3       1 RES1   0.0000
    11 H4       4.1055  -1.5244   0.7057   H         1 RES1   0.0000
    12 H5       3.4268  -2.8597   1.1697   H         1 RES1   0.0000
    13 H6       3.8371  -2.6690  -0.3311   H         1 RES1   0.0000
    14 O1       1.2304   2.4541   0.8778   O.3       1 RES1   0.0000
    15 O2       2.7737   0.4379   0.7286   O.3       1 RES1   0.0000
    16 B1       2.5495   1.9571   0.3855   B         1 RES1   0.0000
    17 C5       2.8143   2.1941  -1.1969   C.ar      1 RES1   0.0000
    18 C6       2.2004   3.2783  -1.8232   C.ar      1 RES1   0.0000
    19 H7       1.5536   3.8049  -1.3472   H         1 RES1   0.0000
    20 C7       2.5249   3.5988  -3.1421   C.ar      1 RES1   0.0000
    21 H8       2.1030   4.3455  -3.5723   H         1 RES1   0.0000
    22 C8       3.4646   2.8340  -3.8337   C.ar      1 RES1   0.0000
    23 H9       3.6882   3.0541  -4.7409   H         1 RES1   0.0000
    24 C9       4.0785   1.7487  -3.2074   C.ar      1 RES1   0.0000
    25 H10      4.7239   1.2221  -3.6845   H         1 RES1   0.0000
    26 C10      3.7526   1.4293  -1.8896   C.ar      1 RES1   0.0000
    27 H11      4.1759   0.6826  -1.4583   H         1 RES1   0.0000
    28 C11      3.6932   2.6657   1.3527   C.ar      1 RES1   0.0000
    29 C12      4.3438   1.9892   2.3862   C.ar      1 RES1   0.0000
    30 H12      4.1575   1.0618   2.5442   H         1 RES1   0.0000
    31 C13      5.2644   2.6635   3.1889   C.ar      1 RES1   0.0000
    32 H13      5.7122   2.1980   3.9001   H         1 RES1   0.0000
    33 C14      5.5359   4.0121   2.9591   C.ar      1 RES1   0.0000
    34 H14      6.1695   4.4751   3.5113   H         1 RES1   0.0000
    35 C15      4.8857   4.6876   1.9266   C.ar      1 RES1   0.0000
    36 H15      5.0716   5.6161   1.7676   H         1 RES1   0.0000
    37 C16      3.9647   4.0144   1.1229   C.ar      1 RES1   0.0000
    38 H16      3.5173   4.4799   0.4128   H         1 RES1   0.0000
    39 N3       0.3114   0.3671  -2.1031   N.3       1 RES1   0.0000
    40 H17      0.9619   0.9874  -2.1466   H         1 RES1   0.0000
    41 C17      0.8461  -0.8630  -2.8404   C.3       1 RES1   0.0000
    42 H18      0.2103  -1.5802  -2.7859   H         1 RES1   0.0000
    43 H19      1.6486  -1.1365  -2.3895   H         1 RES1   0.0000
    44 C18      1.2342  -0.5146  -4.3020   C.3       1 RES1   0.0000
    45 H20      1.4866  -1.3276  -4.7453   H         1 RES1   0.0000
    46 H21      1.9824   0.0855  -4.3434   H         1 RES1   0.0000
    47 C19      0.1004   0.0483  -5.0491   C.3       1 RES1   0.0000
    48 H22     -0.5934  -0.6051  -5.1635   H         1 RES1   0.0000
    49 H23      0.4085   0.3195  -5.9171   H         1 RES1   0.0000
    50 C20     -0.4087   1.2765  -4.3009   C.3       1 RES1   0.0000
    51 H24     -1.1970   1.5959  -4.7474   H         1 RES1   0.0000
    52 H25      0.2478   1.9760  -4.3347   H         1 RES1   0.0000
    53 C21     -0.7403   0.9064  -2.8567   C.3       1 RES1   0.0000
    54 H26     -1.0358   1.7250  -2.4505   H         1 RES1   0.0000
    55 H27     -1.4703   0.2837  -2.8219   H         1 RES1   0.0000
    56 C2A     -2.1468   1.6896  -0.1568   C.2       1 RES1   0.0000
    57 N2A     -1.8454   0.4278  -0.2135   N.2       1 RES1   0.0000
    58 N1A     -0.1359  -1.8394  -0.3235   N.2       1 RES1   0.0000
    59 C1A      0.9982  -2.5763  -0.2875   C.2       1 RES1   0.0000
    60 N3A     -0.3114  -0.3671   2.1031   N.3       1 RES1   0.0000
    61 H17A    -0.9619  -0.9874   2.1466   H         1 RES1   0.0000
    62 C17A    -0.8461   0.8630   2.8404   C.3       1 RES1   0.0000
    63 H18A    -0.2103   1.5802   2.7859   H         1 RES1   0.0000
    64 H19A    -1.6486   1.1365   2.3895   H         1 RES1   0.0000
    65 C18A    -1.2342   0.5146   4.3020   C.3       1 RES1   0.0000
    66 H20A    -1.4866   1.3276   4.7453   H         1 RES1   0.0000
    67 H21A    -1.9824  -0.0855   4.3434   H         1 RES1   0.0000
    68 C19A    -0.1004  -0.0483   5.0491   C.3       1 RES1   0.0000
    69 H22A     0.5934   0.6051   5.1635   H         1 RES1   0.0000
    70 H23A    -0.4085  -0.3195   5.9171   H         1 RES1   0.0000
    71 C20A     0.4087  -1.2765   4.3009   C.3       1 RES1   0.0000
    72 H24A     1.1970  -1.5959   4.7474   H         1 RES1   0.0000
    73 H25A    -0.2478  -1.9760   4.3347   H         1 RES1   0.0000
    74 C21A     0.7403  -0.9064   2.8567   C.3       1 RES1   0.0000
    75 H26A     1.0358  -1.7250   2.4505   H         1 RES1   0.0000
    76 H27A     1.4703  -0.2837   2.8219   H         1 RES1   0.0000
    77 C3A      1.1514  -3.9074  -0.7515   C.3       1 RES1   0.0000
    78 H1A      0.3277  -4.3258  -1.0107   H         1 RES1   0.0000
    79 H2A      1.5404  -4.3927  -0.0196   H         1 RES1   0.0000
    80 H3A      1.7592  -3.9090  -1.4954   H         1 RES1   0.0000
    81 O1A     -1.2304  -2.4541  -0.8778   O.3       1 RES1   0.0000
    82 B1A     -2.5495  -1.9571  -0.3855   B         1 RES1   0.0000
    83 O2A     -2.7737  -0.4379  -0.7286   O.3       1 RES1   0.0000
    84 C5A     -2.8143  -2.1941   1.1969   C.ar      1 RES1   0.0000
    85 C6A     -2.2004  -3.2783   1.8232   C.ar      1 RES1   0.0000
    86 H7A     -1.5536  -3.8049   1.3472   H         1 RES1   0.0000
    87 C7A     -2.5249  -3.5988   3.1421   C.ar      1 RES1   0.0000
    88 H8A     -2.1030  -4.3455   3.5723   H         1 RES1   0.0000
    89 C8A     -3.4646  -2.8340   3.8337   C.ar      1 RES1   0.0000
    90 H9A     -3.6882  -3.0541   4.7409   H         1 RES1   0.0000
    91 C9A     -4.0785  -1.7487   3.2074   C.ar      1 RES1   0.0000
    92 H10A    -4.7239  -1.2221   3.6845   H         1 RES1   0.0000
    93 C10A    -3.7526  -1.4293   1.8896   C.ar      1 RES1   0.0000
    94 H11A    -4.1759  -0.6826   1.4583   H         1 RES1   0.0000
    95 C11A    -3.6932  -2.6657  -1.3527   C.ar      1 RES1   0.0000
    96 C12A    -4.3438  -1.9892  -2.3862   C.ar      1 RES1   0.0000
    97 H12A    -4.1575  -1.0618  -2.5442   H         1 RES1   0.0000
    98 C13A    -5.2644  -2.6635  -3.1889   C.ar      1 RES1   0.0000
    99 H13A    -5.7122  -2.1980  -3.9001   H         1 RES1   0.0000
   100 C14A    -5.5359  -4.0121  -2.9591   C.ar      1 RES1   0.0000
   101 H14A    -6.1695  -4.4751  -3.5113   H         1 RES1   0.0000
   102 C15A    -4.8857  -4.6876  -1.9266   C.ar      1 RES1   0.0000
   103 H15A    -5.0716  -5.6161  -1.7676   H         1 RES1   0.0000
   104 C16A    -3.9647  -4.0144  -1.1229   C.ar      1 RES1   0.0000
   105 H16A    -3.5173  -4.4799  -0.4128   H         1 RES1   0.0000
   106 C4A     -3.5019   2.2257  -0.4520   C.3       1 RES1   0.0000
   107 H4A     -4.1055   1.5244  -0.7057   H         1 RES1   0.0000
   108 H5A     -3.4268   2.8597  -1.1697   H         1 RES1   0.0000
   109 H6A     -3.8371   2.6690   0.3311   H         1 RES1   0.0000
   110 Cl1      0.3006   4.0469   4.8302   Cl        2 RES2   0.0000
   111 Cl2      1.3593   6.0369   3.0615   Cl        2 RES2   0.0000
   112 C22      1.5805   4.4665   3.7117   C.3       2 RES2   0.0000
   113 H28      1.6672   3.8074   3.0190   H         2 RES2   0.0000
   114 H29      2.3997   4.4951   4.2127   H         2 RES2   0.0000
@<TRIPOS>BOND
     1     1     2    1
     2     2     4    2
     3     3     1    1
     4     4     6    1
     5     5     3    2
     6     6     7    1
     7     8     6    1
     8     9     6    1
     9    10     5    1
    10    11    10    1
    11    12    10    1
    12    13    10    1
    13    14     2    1
    14    15     3    1
    15    16    14    1
    16    17    16    1
    17    18    17   ar
    18    19    18    1
    19    20    18   ar
    20    21    20    1
    21    22    20   ar
    22    23    22    1
    23    24    22   ar
    24    25    24    1
    25    26    17   ar
    26    27    26    1
    27    28    16    1
    28    29    28   ar
    29    30    29    1
    30    31    29   ar
    31    32    31    1
    32    33    31   ar
    33    34    33    1
    34    35    33   ar
    35    36    35    1
    36    37    28   ar
    37    38    37    1
    38    39     1    1
    39    40    39    1
    40    41    39    1
    41    42    41    1
    42    43    41    1
    43    44    41    1
    44    45    44    1
    45    46    44    1
    46    47    44    1
    47    48    47    1
    48    49    47    1
    49    50    47    1
    50    51    50    1
    51    52    50    1
    52    53    39    1
    53    54    53    1
    54    55    53    1
    55    56     4    1
    56    57     1    1
    57    58     1    1
    58    59     5    1
    59    60     1    1
    60    61    60    1
    61    62    60    1
    62    63    62    1
    63    64    62    1
    64    65    62    1
    65    66    65    1
    66    67    65    1
    67    68    65    1
    68    69    68    1
    69    70    68    1
    70    71    68    1
    71    72    71    1
    72    73    71    1
    73    74    60    1
    74    75    74    1
    75    76    74    1
    76    77    59    1
    77    78    77    1
    78    79    77    1
    79    80    77    1
    80    81    58    1
    81    82    81    1
    82    83    57    1
    83    84    82    1
    84    85    84   ar
    85    86    85    1
    86    87    85   ar
    87    88    87    1
    88    89    87   ar
    89    90    89    1
    90    91    89   ar
    91    92    91    1
    92    93    84   ar
    93    94    93    1
    94    95    82    1
    95    96    95   ar
    96    97    96    1
    97    98    96   ar
    98    99    98    1
    99   100    98   ar
   100   101   100    1
   101   102   100   ar
   102   103   102    1
   103   104    95   ar
   104   105   104    1
   105   106    56    1
   106   107   106    1
   107   108   106    1
   108   109   106    1
   109    15    16    1
   110    24    26   ar
   111    35    37   ar
   112    50    53    1
   113    56    57    2
   114    58    59    2
   115    71    74    1
   116    82    83    1
   117    91    93   ar
   118   102   104   ar
   119   110   112    1
   120   111   112    1
   121   112   113    1
   122   114   112    1
@<TRIPOS>SUBSTRUCTURE
     1 RES1        1 GROUP             0 ****  ****    0  
     2 RES2      110 GROUP             0 ****  ****    0  
@<TRIPOS>CRYSIN
   10.3180   10.6740   11.5700   88.7600   70.3100   89.6600     2     1
