@<TRIPOS>MOLECULE
NARCIU
   510   553     7     0     0
SMALL
NO_CHARGES
****
Generated from the CSD

@<TRIPOS>ATOM
     1 C1       4.1628   6.0394  15.9496   C.ar      1 RES1   0.0000
     2 C2       2.9970   5.2665  16.0468   C.ar      1 RES1   0.0000
     3 C3       1.7778   5.9153  15.9361   C.ar      1 RES1   0.0000
     4 H1       0.9829   5.3945  15.9469   H         1 RES1   0.0000
     5 C4       1.6690   7.2563  15.8174   C.ar      1 RES1   0.0000
     6 H2       0.8124   7.6644  15.7743   H         1 RES1   0.0000
     7 C5       2.8250   8.0408  15.7608   C.ar      1 RES1   0.0000
     8 C6       4.0522   7.4506  15.8066   C.ar      1 RES1   0.0000
     9 H3       4.8366   7.9830  15.7446   H         1 RES1   0.0000
    10 C7       5.5310   5.5176  15.9847   C.2       1 RES1   0.0000
    11 C8       7.2511   2.6215  16.5755   C.2       1 RES1   0.0000
    12 C9       8.6508   2.0624  16.7131   C.3       1 RES1   0.0000
    13 H4       8.6384   1.0845  16.5566   H         1 RES1   0.0000
    14 H5       9.2440   2.4747  16.0360   H         1 RES1   0.0000
    15 C10      9.1615   2.3424  18.0539   C.3       1 RES1   0.0000
    16 H6       8.5435   1.9873  18.7392   H         1 RES1   0.0000
    17 H7       9.2590   3.3186  18.1888   H         1 RES1   0.0000
    18 C11     10.5994   1.6121  18.1538   C.3       1 RES1   0.0000
    19 H8      11.0127   1.6495  17.2554   H         1 RES1   0.0000
    20 H9      11.1658   2.1539  18.7554   H         1 RES1   0.0000
    21 C12     10.6728   0.2530  18.6016   C.2       1 RES1   0.0000
    22 C13     12.1108  -1.5964  18.7095   C.3       1 RES1   0.0000
    23 H10     12.0892  -1.7013  19.6834   H         1 RES1   0.0000
    24 H11     12.9947  -1.8518  18.3723   H         1 RES1   0.0000
    25 H12     11.4287  -2.1711  18.3021   H         1 RES1   0.0000
    26 C14      2.4255  -0.9709  17.0504   C.ar      1 RES1   0.0000
    27 C15      1.2415  -3.2166  18.2752   C.ar      1 RES1   0.0000
    28 H13      0.8424  -3.9701  18.6933   H         1 RES1   0.0000
    29 C16      1.4379  -2.0477  18.9955   C.ar      1 RES1   0.0000
    30 C17      2.0422  -0.9601  18.4020   C.ar      1 RES1   0.0000
    31 H14      2.2060  -0.1814  18.9227   H         1 RES1   0.0000
    32 C18      3.0922   0.2231  16.4973   C.2       1 RES1   0.0000
    33 C19      3.9647   4.1895  19.3111   C.3       1 RES1   0.0000
    34 H15      3.9702   4.9782  18.7284   H         1 RES1   0.0000
    35 H16      4.4798   4.3801  20.1232   H         1 RES1   0.0000
    36 H17      3.0415   3.9681  19.5539   H         1 RES1   0.0000
    37 C20     11.4970   5.2368  16.9155   C.ar      1 RES1   0.0000
    38 C21     10.4544   5.8259  17.7059   C.ar      1 RES1   0.0000
    39 C22     10.7809   6.3506  18.9227   C.ar      1 RES1   0.0000
    40 H18     10.0881   6.6881  19.4784   H         1 RES1   0.0000
    41 C23     12.0839   6.4084  19.3732   C.ar      1 RES1   0.0000
    42 H19     12.2903   6.8142  20.2068   H         1 RES1   0.0000
    43 C24     13.0769   5.8711  18.5935   C.ar      1 RES1   0.0000
    44 C25     12.7936   5.2835  17.3876   C.ar      1 RES1   0.0000
    45 H20     13.4955   4.9054  16.8723   H         1 RES1   0.0000
    46 C26     11.2505   4.6200  15.6070   C.2       1 RES1   0.0000
    47 C27      8.8798   4.1729  13.1763   C.2       1 RES1   0.0000
    48 C28      8.6471   3.5014  11.8732   C.3       1 RES1   0.0000
    49 H21      7.6870   3.2746  11.7923   H         1 RES1   0.0000
    50 H22      9.1621   2.6567  11.8462   H         1 RES1   0.0000
    51 C29      9.0562   4.3742  10.6834   C.3       1 RES1   0.0000
    52 H23      8.5468   5.2228  10.7050   H         1 RES1   0.0000
    53 H24     10.0194   4.5914  10.7482   H         1 RES1   0.0000
    54 C30      8.7881   3.6573   9.3777   C.3       1 RES1   0.0000
    55 H25      7.8083   3.6082   9.2374   H         1 RES1   0.0000
    56 H26      9.1252   2.7296   9.4478   H         1 RES1   0.0000
    57 C31      9.4190   4.3100   8.1583   C.2       1 RES1   0.0000
    58 C32      9.8795   6.3072   7.0629   C.3       1 RES1   0.0000
    59 H27     10.7999   6.0094   6.9065   H         1 RES1   0.0000
    60 H28      9.8719   7.2764   7.2167   H         1 RES1   0.0000
    61 H29      9.3291   6.0962   6.2806   H         1 RES1   0.0000
    62 C33      9.8557   8.2644  15.3642   C.3       1 RES1   0.0000
    63 H30      9.6942   8.5858  16.2761   H         1 RES1   0.0000
    64 H31      9.9641   9.0290  14.7626   H         1 RES1   0.0000
    65 H32     10.6697   7.7190  15.3507   H         1 RES1   0.0000
    66 C34      2.2301  -2.1567  16.2950   C.ar      1 RES1   0.0000
    67 C35      1.6297  -3.2774  16.9532   C.ar      1 RES1   0.0000
    68 H33      1.4967  -4.0831  16.4676   H         1 RES1   0.0000
    69 C36      4.1762   1.6190  13.6052   C.2       1 RES1   0.0000
    70 C37      4.9587   2.7795  13.0575   C.3       1 RES1   0.0000
    71 H34      5.6875   3.0067  13.6861   H         1 RES1   0.0000
    72 H35      5.3689   2.5156  12.1942   H         1 RES1   0.0000
    73 C38      4.0782   4.0135  12.8363   C.3       1 RES1   0.0000
    74 H36      3.5199   4.1599  13.6430   H         1 RES1   0.0000
    75 H37      3.4718   3.8479  12.0728   H         1 RES1   0.0000
    76 C39      4.8972   5.2772  12.5611   C.3       1 RES1   0.0000
    77 H38      5.6864   5.2773  13.1601   H         1 RES1   0.0000
    78 H39      4.3463   6.0659  12.7932   H         1 RES1   0.0000
    79 C40      5.3669   5.4265  11.1583   C.2       1 RES1   0.0000
    80 C41      6.3047   6.9513   9.6097   C.3       1 RES1   0.0000
    81 H40      5.5270   7.1479   9.0486   H         1 RES1   0.0000
    82 H41      6.9019   7.7286   9.6232   H         1 RES1   0.0000
    83 H42      6.7844   6.1778   9.2455   H         1 RES1   0.0000
    84 C42     14.9849   2.7624  12.7122   C.3       1 RES1   0.0000
    85 H43     14.8534   2.2270  11.9029   H         1 RES1   0.0000
    86 H44     15.8254   2.5020  13.1439   H         1 RES1   0.0000
    87 H45     15.0221   3.7124  12.4748   H         1 RES1   0.0000
    88 Cl1      2.7339   9.7806  15.6842   Cl        1 RES1   0.0000
    89 Cl2     14.7408   5.9521  19.1239   Cl        1 RES1   0.0000
    90 Cl3      0.9400  -1.9438  20.6522   Cl        1 RES1   0.0000
    91 Fe1      4.4330   2.6890  16.6144   Fe        1 RES1   0.0000
    92 Fe2      8.3214   5.5250  15.6302   Fe        1 RES1   0.0000
    93 Fe3     11.9009   3.0709  13.3190   Fe        1 RES1   0.0000
    94 N1       4.0410   1.5249  14.9164   N.2       1 RES1   0.0000
    95 N2       5.7265   4.2105  16.1574   N.2       1 RES1   0.0000
    96 N3       7.1064   3.8959  16.2383   N.2       1 RES1   0.0000
    97 N4      10.0732   4.6874  15.0216   N.2       1 RES1   0.0000
    98 N5      10.0574   4.0212  13.7860   N.2       1 RES1   0.0000
    99 N6       3.3567   0.3002  15.2212   N.2       1 RES1   0.0000
   100 O1       3.0188   3.9508  16.2356   O.3       1 RES1   0.0000
   101 O2       6.5140   6.3117  15.8336   O.2       1 RES1   0.0000
   102 O3       6.2776   1.8451  16.7725   O.2       1 RES1   0.0000
   103 O4       9.7645  -0.3467  19.1601   O.2       1 RES1   0.0000
   104 O5      11.8527  -0.2607  18.3777   O.3       1 RES1   0.0000
   105 O6       3.3815   1.1472  17.3414   O.2       1 RES1   0.0000
   106 O7       4.5278   3.1342  18.6529   O.3       1 RES1   0.0000
   107 H106     4.6622   2.3708  18.7797   H         1 RES1   0.0000
   108 O8       9.1746   5.8457  17.2905   O.3       1 RES1   0.0000
   109 O9      12.2442   3.9945  15.0378   O.2       1 RES1   0.0000
   110 O10      7.9826   4.9062  13.7126   O.2       1 RES1   0.0000
   111 O11      9.8900   3.7094   7.2383   O.2       1 RES1   0.0000
   112 O12      9.3430   5.6254   8.2365   O.3       1 RES1   0.0000
   113 O13      8.7390   7.4686  14.9325   O.3       1 RES1   0.0000
   114 H107     8.0296   7.8452  14.6493   H         1 RES1   0.0000
   115 O14     12.3955   4.3808  11.9628   O.3       1 RES1   0.0000
   116 O15      3.7575   0.7324  12.7878   O.2       1 RES1   0.0000
   117 O16      5.3660   4.5607  10.3192   O.2       1 RES1   0.0000
   118 O17      5.8665   6.6561  10.9532   O.3       1 RES1   0.0000
   119 O18     13.8896   2.5391  13.6187   O.3       1 RES1   0.0000
   120 H108    14.0188   2.5555  14.4442   H         1 RES1   0.0000
   121 C1A     10.7566  -3.9336  11.0288   C.ar      1 RES1   0.0000
   122 C2A     11.9224  -3.1607  10.9316   C.ar      1 RES1   0.0000
   123 C3A     13.1415  -3.8095  11.0423   C.ar      1 RES1   0.0000
   124 H1A     13.9365  -3.2886  11.0315   H         1 RES1   0.0000
   125 C4A     13.2504  -5.1505  11.1610   C.ar      1 RES1   0.0000
   126 H2A     14.1070  -5.5585  11.2041   H         1 RES1   0.0000
   127 C5A     12.0944  -5.9350  11.2176   C.ar      1 RES1   0.0000
   128 C6A     10.8671  -5.3448  11.1718   C.ar      1 RES1   0.0000
   129 H3A     10.0828  -5.8772  11.2338   H         1 RES1   0.0000
   130 C7A      9.3883  -3.4118  10.9937   C.2       1 RES1   0.0000
   131 C8A      7.6682  -0.5156  10.4029   C.2       1 RES1   0.0000
   132 C9A      6.2686   0.0434  10.2653   C.3       1 RES1   0.0000
   133 H4A      6.2810   1.0213  10.4218   H         1 RES1   0.0000
   134 H5A      5.6754  -0.3689  10.9424   H         1 RES1   0.0000
   135 C10A     5.7579  -0.2365   8.9245   C.3       1 RES1   0.0000
   136 H6A      6.3759   0.1186   8.2392   H         1 RES1   0.0000
   137 H7A      5.6604  -1.2127   8.7896   H         1 RES1   0.0000
   138 C11A     4.3200   0.4937   8.8246   C.3       1 RES1   0.0000
   139 H8A      3.9067   0.4564   9.7230   H         1 RES1   0.0000
   140 H9A      3.7535  -0.0481   8.2230   H         1 RES1   0.0000
   141 C12A     4.2466   1.8528   8.3768   C.2       1 RES1   0.0000
   142 C13A     2.8086   3.7022   8.2689   C.3       1 RES1   0.0000
   143 H10A     2.8302   3.8072   7.2950   H         1 RES1   0.0000
   144 H11A     1.9247   3.9576   8.6061   H         1 RES1   0.0000
   145 H12A     3.4907   4.2769   8.6763   H         1 RES1   0.0000
   146 C14A    12.4939   3.0767   9.9281   C.ar      1 RES1   0.0000
   147 C15A    13.6779   5.3225   8.7032   C.ar      1 RES1   0.0000
   148 H13A    14.0770   6.0760   8.2851   H         1 RES1   0.0000
   149 C16A    13.4815   4.1535   7.9829   C.ar      1 RES1   0.0000
   150 C17A    12.8771   3.0660   8.5764   C.ar      1 RES1   0.0000
   151 H14A    12.7134   2.2873   8.0558   H         1 RES1   0.0000
   152 C18A    11.8272   1.8828  10.4811   C.2       1 RES1   0.0000
   153 C19A    10.9547  -2.0836   7.6673   C.3       1 RES1   0.0000
   154 H15A    10.9492  -2.8723   8.2500   H         1 RES1   0.0000
   155 H16A    10.4396  -2.2743   6.8552   H         1 RES1   0.0000
   156 H17A    11.8779  -1.8622   7.4245   H         1 RES1   0.0000
   157 C20A     3.4224  -3.1309  10.0629   C.ar      1 RES1   0.0000
   158 C21A     4.4650  -3.7200   9.2725   C.ar      1 RES1   0.0000
   159 C22A     4.1385  -4.2448   8.0558   C.ar      1 RES1   0.0000
   160 H18A     4.8312  -4.5823   7.5000   H         1 RES1   0.0000
   161 C23A     2.8355  -4.3026   7.6052   C.ar      1 RES1   0.0000
   162 H19A     2.6291  -4.7084   6.7716   H         1 RES1   0.0000
   163 C24A     1.8425  -3.7653   8.3849   C.ar      1 RES1   0.0000
   164 C25A     2.1257  -3.1777   9.5908   C.ar      1 RES1   0.0000
   165 H20A     1.4239  -2.7996  10.1061   H         1 RES1   0.0000
   166 C26A     3.6689  -2.5142  11.3714   C.2       1 RES1   0.0000
   167 C27A     6.0396  -2.0671  13.8022   C.2       1 RES1   0.0000
   168 C28A     6.2722  -1.3956  15.1052   C.3       1 RES1   0.0000
   169 H21A     7.2324  -1.1687  15.1861   H         1 RES1   0.0000
   170 H22A     5.7573  -0.5508  15.1322   H         1 RES1   0.0000
   171 C29A     5.8631  -2.2684  16.2950   C.3       1 RES1   0.0000
   172 H23A     6.3726  -3.1170  16.2734   H         1 RES1   0.0000
   173 H24A     4.9000  -2.4855  16.2302   H         1 RES1   0.0000
   174 C30A     6.1313  -1.5514  17.6007   C.3       1 RES1   0.0000
   175 H25A     7.1110  -1.5023  17.7410   H         1 RES1   0.0000
   176 H26A     5.7942  -0.6238  17.5306   H         1 RES1   0.0000
   177 C31A     5.5004  -2.2042  18.8201   C.2       1 RES1   0.0000
   178 C32A     5.0399  -4.2013  19.9155   C.3       1 RES1   0.0000
   179 H27A     4.1195  -3.9035  20.0719   H         1 RES1   0.0000
   180 H28A     5.0475  -5.1705  19.7617   H         1 RES1   0.0000
   181 H29A     5.5903  -3.9904  20.6978   H         1 RES1   0.0000
   182 C33A     5.0637  -6.1585  11.6142   C.3       1 RES1   0.0000
   183 H30A     5.2252  -6.4800  10.7023   H         1 RES1   0.0000
   184 H31A     4.9553  -6.9231  12.2158   H         1 RES1   0.0000
   185 H32A     4.2497  -5.6131  11.6277   H         1 RES1   0.0000
   186 C34A    12.6893   4.2625  10.6834   C.ar      1 RES1   0.0000
   187 C35A    13.2897   5.3833  10.0252   C.ar      1 RES1   0.0000
   188 H33A    13.4227   6.1889  10.5108   H         1 RES1   0.0000
   189 C36A    10.7432   0.4868  13.3732   C.2       1 RES1   0.0000
   190 C37A     9.9607  -0.6737  13.9209   C.3       1 RES1   0.0000
   191 H34A     9.2319  -0.9009  13.2923   H         1 RES1   0.0000
   192 H35A     9.5505  -0.4097  14.7842   H         1 RES1   0.0000
   193 C38A    10.8412  -1.9077  14.1421   C.3       1 RES1   0.0000
   194 H36A    11.3995  -2.0540  13.3354   H         1 RES1   0.0000
   195 H37A    11.4476  -1.7420  14.9056   H         1 RES1   0.0000
   196 C39A    10.0222  -3.1714  14.4173   C.3       1 RES1   0.0000
   197 H38A     9.2330  -3.1715  13.8183   H         1 RES1   0.0000
   198 H39A    10.5731  -3.9601  14.1852   H         1 RES1   0.0000
   199 C40A     9.5525  -3.3206  15.8201   C.2       1 RES1   0.0000
   200 C41A     8.6146  -4.8455  17.3687   C.3       1 RES1   0.0000
   201 H40A     9.3924  -5.0420  17.9298   H         1 RES1   0.0000
   202 H41A     8.0175  -5.6228  17.3552   H         1 RES1   0.0000
   203 H42A     8.1350  -4.0720  17.7329   H         1 RES1   0.0000
   204 C42A    -0.0655  -0.6566  14.2662   C.3       1 RES1   0.0000
   205 H43A     0.0659  -0.1212  15.0755   H         1 RES1   0.0000
   206 H44A    -0.9060  -0.3962  13.8345   H         1 RES1   0.0000
   207 H45A    -0.1028  -1.6066  14.5036   H         1 RES1   0.0000
   208 Cl1A    12.1855  -7.6747  11.2942   Cl        1 RES1   0.0000
   209 Cl2A     0.1786  -3.8462   7.8545   Cl        1 RES1   0.0000
   210 Cl3A    13.9794   4.0497   6.3262   Cl        1 RES1   0.0000
   211 Fe1A    10.4864  -0.5831  10.3640   Fe        1 RES1   0.0000
   212 Fe2A     6.5980  -3.4191  11.3482   Fe        1 RES1   0.0000
   213 Fe3A     3.0185  -0.9651  13.6594   Fe        1 RES1   0.0000
   214 N1A     10.8784   0.5810  12.0620   N.2       1 RES1   0.0000
   215 N2A      9.1929  -2.1047  10.8210   N.2       1 RES1   0.0000
   216 N3A      7.8130  -1.7900  10.7401   N.2       1 RES1   0.0000
   217 N4A      4.8461  -2.5816  11.9568   N.2       1 RES1   0.0000
   218 N5A      4.8619  -1.9153  13.1924   N.2       1 RES1   0.0000
   219 N6A     11.5627   1.8056  11.7572   N.2       1 RES1   0.0000
   220 O1A     11.9005  -1.8450  10.7428   O.3       1 RES1   0.0000
   221 O2A      8.4054  -4.2059  11.1448   O.2       1 RES1   0.0000
   222 O3A      8.6418   0.2608  10.2059   O.2       1 RES1   0.0000
   223 O4A      5.1549   2.4525   7.8183   O.2       1 RES1   0.0000
   224 O5A      3.0666   2.3666   8.6007   O.3       1 RES1   0.0000
   225 O6A     11.5378   0.9587   9.6370   O.2       1 RES1   0.0000
   226 O7A     10.3915  -1.0284   8.3255   O.3       1 RES1   0.0000
   227 H106A   10.2571  -0.2649   8.1987   H         1 RES1   0.0000
   228 O8A      5.7448  -3.7399   9.6879   O.3       1 RES1   0.0000
   229 O9A      2.6751  -1.8886  11.9406   O.2       1 RES1   0.0000
   230 O10A     6.9367  -2.8003  13.2658   O.2       1 RES1   0.0000
   231 O11A     5.0294  -1.6036  19.7401   O.2       1 RES1   0.0000
   232 O12A     5.5764  -3.5195  18.7419   O.3       1 RES1   0.0000
   233 O13A     6.1804  -5.3628  12.0459   O.3       1 RES1   0.0000
   234 H107A    6.8898  -5.7394  12.3291   H         1 RES1   0.0000
   235 O14A     2.5238  -2.2749  15.0156   O.3       1 RES1   0.0000
   236 O15A    11.1619   1.3735  14.1906   O.2       1 RES1   0.0000
   237 O16A     9.5534  -2.4549  16.6592   O.2       1 RES1   0.0000
   238 O17A     9.0528  -4.5502  16.0252   O.3       1 RES1   0.0000
   239 O18A     1.0298  -0.4333  13.3597   O.3       1 RES1   0.0000
   240 H108A    0.9006  -0.4496  12.5342   H         1 RES1   0.0000
   241 C43     13.3890  11.2497  31.9829   C.ar      2 RES2   0.0000
   242 C44     12.3415  11.5100  32.9083   C.ar      2 RES2   0.0000
   243 C45     12.6467  11.3843  34.2680   C.ar      2 RES2   0.0000
   244 H46     11.9621  11.5541  34.9047   H         2 RES2   0.0000
   245 C46     13.8759  11.0304  34.7158   C.ar      2 RES2   0.0000
   246 H47     14.0480  10.9617  35.6466   H         2 RES2   0.0000
   247 C47     14.8848  10.7669  33.7851   C.ar      2 RES2   0.0000
   248 C48     14.6533  10.8737  32.4550   C.ar      2 RES2   0.0000
   249 H48     15.3532  10.6926  31.8372   H         2 RES2   0.0000
   250 C49     13.2215  11.4022  30.5315   C.2       2 RES2   0.0000
   251 C50     11.0136  12.4757  28.1628   C.2       2 RES2   0.0000
   252 C51     10.8844  12.7308  26.7032   C.3       2 RES2   0.0000
   253 H49     10.0228  12.3595  26.3849   H         2 RES2   0.0000
   254 H50     11.6109  12.2580  26.2257   H         2 RES2   0.0000
   255 C52     10.9448  14.2235  26.3552   C.3       2 RES2   0.0000
   256 H51     10.2485  14.7154  26.8597   H         2 RES2   0.0000
   257 H52     11.8279  14.5923  26.6061   H         2 RES2   0.0000
   258 C53     10.7220  14.3939  24.8795   C.3       2 RES2   0.0000
   259 H53      9.8062  14.0947  24.6502   H         2 RES2   0.0000
   260 H54     11.3608  13.8222  24.3831   H         2 RES2   0.0000
   261 C54     10.8995  15.8262  24.4451   C.2       2 RES2   0.0000
   262 C55      9.8096  17.8789  23.9703   C.3       2 RES2   0.0000
   263 H55     10.3107  18.4025  24.6286   H         2 RES2   0.0000
   264 H56      8.8967  18.2297  23.9002   H         2 RES2   0.0000
   265 H57     10.2515  17.9395  23.0989   H         2 RES2   0.0000
   266 C56      6.0919  12.4972  31.2815   C.ar      2 RES2   0.0000
   267 C57      4.6441  14.3374  31.9262   C.ar      2 RES2   0.0000
   268 C58      5.9050  13.8187  31.7293   C.ar      2 RES2   0.0000
   269 H58      6.6642  14.3650  31.8993   H         2 RES2   0.0000
   270 C59      7.5126  12.0628  31.1331   C.2       2 RES2   0.0000
   271 C60     10.9103  14.9225  32.5926   C.3       2 RES2   0.0000
   272 H59     10.2505  14.5229  33.1969   H         2 RES2   0.0000
   273 H60     10.7323  15.8824  32.5009   H         2 RES2   0.0000
   274 H61     11.8101  14.7895  32.9541   H         2 RES2   0.0000
   275 C61     14.6215  12.8153  24.7797   C.ar      2 RES2   0.0000
   276 C62     14.7064  13.5179  25.9910   C.ar      2 RES2   0.0000
   277 C63     15.0791  14.8677  25.9316   C.ar      2 RES2   0.0000
   278 H62     15.0933  15.3744  26.7356   H         2 RES2   0.0000
   279 C64     15.4219  15.4883  24.7527   C.ar      2 RES2   0.0000
   280 H63     15.6611  16.4072  24.7338   H         2 RES2   0.0000
   281 C65     15.4101  14.7369  23.6034   C.ar      2 RES2   0.0000
   282 C66     15.0153  13.4175  23.5818   C.ar      2 RES2   0.0000
   283 H64     15.0101  12.9255  22.7671   H         2 RES2   0.0000
   284 C67     14.0998  11.4246  24.6960   C.2       2 RES2   0.0000
   285 C68     12.9563   8.8221  26.6034   C.2       2 RES2   0.0000
   286 C69     12.4068   7.4637  26.5171   C.3       2 RES2   0.0000
   287 H65     11.7976   7.4031  25.7401   H         2 RES2   0.0000
   288 H66     11.8823   7.2674  27.3345   H         2 RES2   0.0000
   289 C70     13.5421   6.4214  26.3687   C.3       2 RES2   0.0000
   290 H67     14.1148   6.6727  25.6025   H         2 RES2   0.0000
   291 H68     14.1037   6.4356  27.1834   H         2 RES2   0.0000
   292 C71     13.0110   5.0105  26.1529   C.3       2 RES2   0.0000
   293 H69     12.3615   5.0330  25.4083   H         2 RES2   0.0000
   294 H70     12.5189   4.7348  26.9676   H         2 RES2   0.0000
   295 C72     14.0624   3.9502  25.8453   C.2       2 RES2   0.0000
   296 C73     16.3646   3.4882  25.5971   C.3       2 RES2   0.0000
   297 H71     16.4079   2.8309  26.3228   H         2 RES2   0.0000
   298 H72     17.2167   3.9671  25.5378   H         2 RES2   0.0000
   299 H73     16.1866   3.0276  24.7500   H         2 RES2   0.0000
   300 C74     17.0161  11.0653  27.0836   C.3       2 RES2   0.0000
   301 H74     16.7428  11.2162  26.1556   H         2 RES2   0.0000
   302 H75     17.7642  10.4321  27.1052   H         2 RES2   0.0000
   303 H76     17.2964  11.9153  27.4856   H         2 RES2   0.0000
   304 C75      5.0144  11.6727  31.0440   C.ar      2 RES2   0.0000
   305 C76      3.7156  12.2575  31.2356   C.ar      2 RES2   0.0000
   306 H77      2.9467  11.7359  31.0387   H         2 RES2   0.0000
   307 C77      3.5413  13.5445  31.6942   C.ar      2 RES2   0.0000
   308 H78      2.6676  13.8819  31.8507   H         2 RES2   0.0000
   309 C78      9.3786   9.2868  30.6178   C.2       2 RES2   0.0000
   310 C79     10.8623   8.8653  30.5072   C.3       2 RES2   0.0000
   311 H79     11.3479   9.1975  31.3030   H         2 RES2   0.0000
   312 H80     11.2567   9.3023  29.7113   H         2 RES2   0.0000
   313 C80     11.0787   7.3478  30.3939   C.3       2 RES2   0.0000
   314 H81     10.6324   6.9920  29.5845   H         2 RES2   0.0000
   315 H82     10.7137   6.8838  31.1870   H         2 RES2   0.0000
   316 C81     12.5976   7.1484  30.3021   C.3       2 RES2   0.0000
   317 H83     13.0063   7.3861  31.1735   H         2 RES2   0.0000
   318 H84     12.9642   7.7639  29.6196   H         2 RES2   0.0000
   319 C82     12.9904   5.7195  29.9460   C.2       2 RES2   0.0000
   320 C83     14.8419   4.3127  29.6574   C.3       2 RES2   0.0000
   321 H85     14.6763   4.1396  28.7077   H         2 RES2   0.0000
   322 H86     15.8064   4.2979  29.8300   H         2 RES2   0.0000
   323 H87     14.4031   3.6225  30.1969   H         2 RES2   0.0000
   324 C84     14.5445   9.5288  20.7491   C.3       2 RES2   0.0000
   325 H88     14.5251   9.9651  19.8723   H         2 RES2   0.0000
   326 H89     14.8086   8.5900  20.6412   H         2 RES2   0.0000
   327 H90     15.1895   9.9853  21.3264   H         2 RES2   0.0000
   328 Cl4     16.4696  10.2987  34.3624   Cl        2 RES2   0.0000
   329 Cl5     15.9506  15.4372  22.0691   Cl        2 RES2   0.0000
   330 Cl6      4.4039  15.9183  32.5799   Cl        2 RES2   0.0000
   331 Fe4     10.3022  12.3260  30.9056   Fe        2 RES2   0.0000
   332 Fe5     13.9423  11.2343  27.7842   Fe        2 RES2   0.0000
   333 Fe6     13.0642   9.1522  23.4140   Fe        2 RES2   0.0000
   334 N7       9.1483  10.5761  30.7068   N.2       2 RES2   0.0000
   335 N8      12.0871  11.7858  30.0297   N.2       2 RES2   0.0000
   336 N9      12.1244  11.9126  28.6106   N.2       2 RES2   0.0000
   337 N10     13.7192  10.7729  25.8021   N.2       2 RES2   0.0000
   338 N11     13.1949   9.4873  25.4892   N.2       2 RES2   0.0000
   339 N12      7.7647  10.8342  30.7716   N.2       2 RES2   0.0000
   340 O19     11.1063  11.7981  32.5413   O.3       2 RES2   0.0000
   341 O20     14.2507  11.1808  29.7599   O.2       2 RES2   0.0000
   342 O21     10.0672  12.8424  28.9667   O.2       2 RES2   0.0000
   343 O22     11.9303  16.3261  24.1834   O.2       2 RES2   0.0000
   344 O23      9.7626  16.5184  24.3831   O.3       2 RES2   0.0000
   345 O24      8.4278  12.9003  31.3381   O.2       2 RES2   0.0000
   346 O25     10.8166  14.2991  31.3084   O.3       2 RES2   0.0000
   347 H109    10.7775  14.7317  30.6016   H         2 RES2   0.0000
   348 O26     14.4329  12.9832  27.1834   O.3       2 RES2   0.0000
   349 O27     14.0209  10.8819  23.5387   O.2       2 RES2   0.0000
   350 O28     13.2078   9.3463  27.7581   O.2       2 RES2   0.0000
   351 O29     13.7951   2.8074  25.6052   O.2       2 RES2   0.0000
   352 O30     15.2842   4.4469  25.8696   O.3       2 RES2   0.0000
   353 O31     15.9172  10.5293  27.8255   O.3       2 RES2   0.0000
   354 H110    16.0741  10.0750  28.5432   H         2 RES2   0.0000
   355 O32     14.5403   7.9316  23.3093   O.3       2 RES2   0.0000
   356 O33      8.4642   8.4325  30.5962   O.2       2 RES2   0.0000
   357 O34     12.2701   4.8760  29.5737   O.2       2 RES2   0.0000
   358 O35     14.3156   5.5968  30.0054   O.3       2 RES2   0.0000
   359 O36     13.2346   9.5937  21.3453   O.3       2 RES2   0.0000
   360 H111    12.7822   9.8219  20.7734   H         2 RES2   0.0000
   361 C43A     6.2467   7.1006  21.9739   C.ar      2 RES2   0.0000
   362 C44A     7.2943   6.8404  21.0486   C.ar      2 RES2   0.0000
   363 C45A     6.9890   6.9661  19.6888   C.ar      2 RES2   0.0000
   364 H46A     7.6737   6.7962  19.0521   H         2 RES2   0.0000
   365 C46A     5.7598   7.3200  19.2410   C.ar      2 RES2   0.0000
   366 H47A     5.5877   7.3887  18.3102   H         2 RES2   0.0000
   367 C47A     4.7509   7.5835  20.1718   C.ar      2 RES2   0.0000
   368 C48A     4.9824   7.4766  21.5018   C.ar      2 RES2   0.0000
   369 H48A     4.2825   7.6578  22.1196   H         2 RES2   0.0000
   370 C49A     6.4143   6.9481  23.4253   C.2       2 RES2   0.0000
   371 C50A     8.6221   5.8747  25.7941   C.2       2 RES2   0.0000
   372 C51A     8.7513   5.6196  27.2536   C.3       2 RES2   0.0000
   373 H49A     9.6129   5.9908  27.5719   H         2 RES2   0.0000
   374 H50A     8.0248   6.0923  27.7311   H         2 RES2   0.0000
   375 C52A     8.6909   4.1268  27.6016   C.3       2 RES2   0.0000
   376 H51A     9.3872   3.6350  27.0971   H         2 RES2   0.0000
   377 H52A     7.8078   3.7580  27.3507   H         2 RES2   0.0000
   378 C53A     8.9137   3.9564  29.0773   C.3       2 RES2   0.0000
   379 H53A     9.8295   4.2557  29.3066   H         2 RES2   0.0000
   380 H54A     8.2750   4.5282  29.5737   H         2 RES2   0.0000
   381 C54A     8.7362   2.5241  29.5117   C.2       2 RES2   0.0000
   382 C55A     9.8262   0.4715  29.9865   C.3       2 RES2   0.0000
   383 H55A     9.3250  -0.0521  29.3282   H         2 RES2   0.0000
   384 H56A    10.7390   0.1207  30.0566   H         2 RES2   0.0000
   385 H57A     9.3843   0.4109  30.8579   H         2 RES2   0.0000
   386 C56A    13.5438   5.8532  22.6753   C.ar      2 RES2   0.0000
   387 C57A    14.9916   4.0129  22.0306   C.ar      2 RES2   0.0000
   388 C58A    13.7308   4.5316  22.2275   C.ar      2 RES2   0.0000
   389 H58A    12.9715   3.9853  22.0575   H         2 RES2   0.0000
   390 C59A    12.1231   6.2875  22.8237   C.2       2 RES2   0.0000
   391 C60A     8.7254   3.4279  21.3642   C.3       2 RES2   0.0000
   392 H59A     9.3852   3.8275  20.7599   H         2 RES2   0.0000
   393 H60A     8.9035   2.4680  21.4559   H         2 RES2   0.0000
   394 H61A     7.8256   3.5608  21.0027   H         2 RES2   0.0000
   395 C61A     5.0142   5.5350  29.1771   C.ar      2 RES2   0.0000
   396 C62A     4.9294   4.8325  27.9658   C.ar      2 RES2   0.0000
   397 C63A     4.5566   3.4827  28.0252   C.ar      2 RES2   0.0000
   398 H62A     4.5424   2.9759  27.2212   H         2 RES2   0.0000
   399 C64A     4.2138   2.8621  29.2041   C.ar      2 RES2   0.0000
   400 H63A     3.9746   1.9431  29.2230   H         2 RES2   0.0000
   401 C65A     4.2256   3.6135  30.3534   C.ar      2 RES2   0.0000
   402 C66A     4.6204   4.9329  30.3750   C.ar      2 RES2   0.0000
   403 H64A     4.6257   5.4249  31.1897   H         2 RES2   0.0000
   404 C67A     5.5359   6.9257  29.2608   C.2       2 RES2   0.0000
   405 C68A     6.6794   9.5282  27.3534   C.2       2 RES2   0.0000
   406 C69A     7.2289  10.8866  27.4397   C.3       2 RES2   0.0000
   407 H65A     7.8382  10.9473  28.2167   H         2 RES2   0.0000
   408 H66A     7.7535  11.0830  26.6223   H         2 RES2   0.0000
   409 C70A     6.0936  11.9289  27.5881   C.3       2 RES2   0.0000
   410 H67A     5.5209  11.6777  28.3543   H         2 RES2   0.0000
   411 H68A     5.5320  11.9148  26.7734   H         2 RES2   0.0000
   412 C71A     6.6247  13.3398  27.8039   C.3       2 RES2   0.0000
   413 H69A     7.2742  13.3174  28.5485   H         2 RES2   0.0000
   414 H70A     7.1168  13.6156  26.9892   H         2 RES2   0.0000
   415 C72A     5.5734  14.4002  28.1115   C.2       2 RES2   0.0000
   416 C73A     3.2711  14.8621  28.3597   C.3       2 RES2   0.0000
   417 H71A     3.2278  15.5195  27.6340   H         2 RES2   0.0000
   418 H72A     2.4190  14.3832  28.4190   H         2 RES2   0.0000
   419 H73A     3.4491  15.3227  29.2068   H         2 RES2   0.0000
   420 C74A     2.6197   7.2851  26.8732   C.3       2 RES2   0.0000
   421 H74A     2.8929   7.1342  27.8012   H         2 RES2   0.0000
   422 H75A     1.8716   7.9183  26.8516   H         2 RES2   0.0000
   423 H76A     2.3393   6.4351  26.4712   H         2 RES2   0.0000
   424 C75A    14.6214   6.6776  22.9128   C.ar      2 RES2   0.0000
   425 C76A    15.9201   6.0929  22.7212   C.ar      2 RES2   0.0000
   426 H77A    16.6890   6.6144  22.9182   H         2 RES2   0.0000
   427 C77A    16.0944   4.8058  22.2626   C.ar      2 RES2   0.0000
   428 H78A    16.9681   4.4684  22.1061   H         2 RES2   0.0000
   429 C78A    10.2571   9.0636  23.3390   C.2       2 RES2   0.0000
   430 C79A     8.7734   9.4851  23.4496   C.3       2 RES2   0.0000
   431 H79A     8.2878   9.1529  22.6538   H         2 RES2   0.0000
   432 H80A     8.3790   9.0481  24.2455   H         2 RES2   0.0000
   433 C80A     8.5570  11.0025  23.5629   C.3       2 RES2   0.0000
   434 H81A     9.0034  11.3584  24.3723   H         2 RES2   0.0000
   435 H82A     8.9220  11.4666  22.7698   H         2 RES2   0.0000
   436 C81A     7.0381  11.2020  23.6547   C.3       2 RES2   0.0000
   437 H83A     6.6294  10.9643  22.7833   H         2 RES2   0.0000
   438 H84A     6.6716  10.5865  24.3372   H         2 RES2   0.0000
   439 C82A     6.6454  12.6309  24.0108   C.2       2 RES2   0.0000
   440 C83A     4.7938  14.0376  24.2994   C.3       2 RES2   0.0000
   441 H85A     4.9594  14.2107  25.2491   H         2 RES2   0.0000
   442 H86A     3.8293  14.0524  24.1268   H         2 RES2   0.0000
   443 H87A     5.2327  14.7279  23.7599   H         2 RES2   0.0000
   444 C84A     5.0913   8.8216  33.2077   C.3       2 RES2   0.0000
   445 H88A     5.1106   8.3853  34.0845   H         2 RES2   0.0000
   446 H89A     4.8272   9.7603  33.3156   H         2 RES2   0.0000
   447 H90A     4.4462   8.3651  32.6304   H         2 RES2   0.0000
   448 Cl4A     3.1661   8.0516  19.5944   Cl        2 RES2   0.0000
   449 Cl5A     3.6851   2.9132  31.8877   Cl        2 RES2   0.0000
   450 Cl6A    15.2318   2.4321  21.3769   Cl        2 RES2   0.0000
   451 Fe4A     9.3335   6.0244  23.0512   Fe        2 RES2   0.0000
   452 Fe5A     5.6934   7.1160  26.1726   Fe        2 RES2   0.0000
   453 Fe6A     6.5715   9.1982  30.5428   Fe        2 RES2   0.0000
   454 N7A     10.4874   7.7743  23.2500   N.2       2 RES2   0.0000
   455 N8A      7.5486   6.5645  23.9271   N.2       2 RES2   0.0000
   456 N9A      7.5113   6.4378  25.3462   N.2       2 RES2   0.0000
   457 N10A     5.9165   7.5774  28.1547   N.2       2 RES2   0.0000
   458 N11A     6.4409   8.8630  28.4676   N.2       2 RES2   0.0000
   459 N12A    11.8710   7.5161  23.1852   N.2       2 RES2   0.0000
   460 O19A     8.5295   6.5523  21.4155   O.3       2 RES2   0.0000
   461 O20A     5.3851   7.1695  24.1969   O.2       2 RES2   0.0000
   462 O21A     9.5685   5.5079  24.9901   O.2       2 RES2   0.0000
   463 O22A     7.7054   2.0243  29.7734   O.2       2 RES2   0.0000
   464 O23A     9.8731   1.8319  29.5737   O.3       2 RES2   0.0000
   465 O24A    11.2079   5.4501  22.6187   O.2       2 RES2   0.0000
   466 O25A     8.8191   4.0513  22.6484   O.3       2 RES2   0.0000
   467 H109A    8.8582   3.6186  23.3552   H         2 RES2   0.0000
   468 O26A     5.2028   5.3672  26.7734   O.3       2 RES2   0.0000
   469 O27A     5.6148   7.4685  30.4181   O.2       2 RES2   0.0000
   470 O28A     6.4280   9.0040  26.1987   O.2       2 RES2   0.0000
   471 O29A     5.8407  15.5430  28.3516   O.2       2 RES2   0.0000
   472 O30A     4.3515  13.9035  28.0872   O.3       2 RES2   0.0000
   473 O31A     3.7185   7.8210  26.1313   O.3       2 RES2   0.0000
   474 H110A    3.5616   8.2754  25.4137   H         2 RES2   0.0000
   475 O32A     5.0954  10.4188  30.6475   O.3       2 RES2   0.0000
   476 O33A    11.1715   9.9178  23.3606   O.2       2 RES2   0.0000
   477 O34A     7.3656  13.4744  24.3831   O.2       2 RES2   0.0000
   478 O35A     5.3202  12.7535  23.9514   O.3       2 RES2   0.0000
   479 O36A     6.4011   8.7567  32.6115   O.3       2 RES2   0.0000
   480 H111A    6.8535   8.5284  33.1834   H         2 RES2   0.0000
   481 C85      5.9869   9.1148  13.2356   C.3       3 RES3   0.0000
   482 H91      5.1660   9.4790  13.6268   H         3 RES3   0.0000
   483 H92      5.8670   8.1588  13.0522   H         3 RES3   0.0000
   484 H93      6.1858   9.5840  12.3993   H         3 RES3   0.0000
   485 O37      7.0498   9.2893  14.1313   O.3       3 RES3   0.0000
   486 H112     7.0072  10.0567  14.4712   H         3 RES3   0.0000
   487 C86      4.6325  14.1012   9.7716   C.3       4 RES4   0.0000
   488 H94      4.1471  14.9068   9.4964   H         4 RES4   0.0000
   489 H95      4.5261  13.4074   9.0890   H         4 RES4   0.0000
   490 H96      5.5832  14.3116   9.8768   H         4 RES4   0.0000
   491 O38      4.1155  13.6381  10.9937   O.3       4 RES4   0.0000
   492 H113     3.3372  13.3461  10.8750   H         4 RES4   0.0000
   493 C87     17.5254  10.1262  23.3849   C.3       5 RES5   0.0000
   494 H97     16.9345  10.8952  23.5279   H         5 RES5   0.0000
   495 H98     17.5684   9.9242  22.4271   H         5 RES5   0.0000
   496 H99     18.4239  10.3373  23.7167   H         5 RES5   0.0000
   497 O39     17.0143   9.0001  24.0836   O.3       5 RES5   0.0000
   498 H114    16.2027   8.8977  23.8948   H         5 RES5   0.0000
   499 C88      8.4741  15.0804  21.5018   C.3       6 RES6   0.0000
   500 H100     9.0974  14.6137  22.0980   H         6 RES6   0.0000
   501 H101     7.6435  14.5643  21.4289   H         6 RES6   0.0000
   502 H102     8.2749  15.9673  21.8687   H         6 RES6   0.0000
   503 O40      9.0347  15.2136  20.2743   O.3       6 RES6   0.0000
   504 H115     9.0833  14.4609  19.9047   H         6 RES6   0.0000
   505 C89     11.9500  12.9198  21.5530   C.3       7 RES7   0.0000
   506 H103    12.6917  13.2308  22.1142   H         7 RES7   0.0000
   507 H104    11.2816  12.4716  22.1142   H         7 RES7   0.0000
   508 H105    11.5380  13.6863  21.1025   H         7 RES7   0.0000
   509 O41     12.4453  12.0009  20.5764   O.3       7 RES7   0.0000
   510 H116    12.7433  12.4286  19.9155   H         7 RES7   0.0000
@<TRIPOS>BOND
     1     1     2   ar
     2     2     3   ar
     3     3     4    1
     4     5     3   ar
     5     6     5    1
     6     7     5   ar
     7     8     1   ar
     8     9     8    1
     9    10     1    1
    10    11    12    1
    11    12    13    1
    12    14    12    1
    13    15    12    1
    14    16    15    1
    15    17    15    1
    16    18    15    1
    17    19    18    1
    18    20    18    1
    19    21    18    1
    20    22    23    1
    21    24    22    1
    22    25    22    1
    23    26    30   ar
    24    27    28    1
    25    29    27   ar
    26    30    29   ar
    27    31    30    1
    28    32    26    1
    29    33    34    1
    30    35    33    1
    31    36    33    1
    32    37    38   ar
    33    38    39   ar
    34    39    40    1
    35    41    39   ar
    36    42    41    1
    37    43    41   ar
    38    44    37   ar
    39    45    44    1
    40    46    37    1
    41    47    48    1
    42    48    49    1
    43    50    48    1
    44    51    48    1
    45    52    51    1
    46    53    51    1
    47    54    51    1
    48    55    54    1
    49    56    54    1
    50    57    54    1
    51    58    59    1
    52    60    58    1
    53    61    58    1
    54    62    63    1
    55    64    62    1
    56    65    62    1
    57    66    26   ar
    58    67    27   ar
    59    68    67    1
    60    69    70    1
    61    70    71    1
    62    72    70    1
    63    73    70    1
    64    74    73    1
    65    75    73    1
    66    76    73    1
    67    77    76    1
    68    78    76    1
    69    79    76    1
    70    80    81    1
    71    82    80    1
    72    83    80    1
    73    84    85    1
    74    86    84    1
    75    87    84    1
    76    88     7    1
    77    89    43    1
    78    90    29    1
    79    91    94    1
    80    92    96    1
    81    93    98    1
    82    94    69    1
    83    95    10    1
    84    96    11    1
    85    97    46    1
    86    98    47    1
    87    99    32    1
    88   100     2    1
    89   101    10    2
    90   102    11    2
    91   103    21    2
    92   104    21    1
    93   105    32    2
    94   106    33    1
    95   107   106    1
    96   108    38    1
    97   109    46    2
    98   110    47    2
    99   111    57    2
   100   112    57    1
   101   113    62    1
   102   114   113    1
   103   115    93    1
   104   116    69    2
   105   117    79    2
   106   118    79    1
   107   119    84    1
   108   120   119    1
   109   121   122   ar
   110   122   123   ar
   111   123   124    1
   112   125   123   ar
   113   126   125    1
   114   127   125   ar
   115   128   121   ar
   116   129   128    1
   117   130   121    1
   118   131   132    1
   119   132   133    1
   120   134   132    1
   121   135   132    1
   122   136   135    1
   123   137   135    1
   124   138   135    1
   125   139   138    1
   126   140   138    1
   127   141   138    1
   128   142   143    1
   129   144   142    1
   130   145   142    1
   131   146   150   ar
   132   147   148    1
   133   149   147   ar
   134   150   149   ar
   135   151   150    1
   136   152   146    1
   137   153   154    1
   138   155   153    1
   139   156   153    1
   140   157   158   ar
   141   158   159   ar
   142   159   160    1
   143   161   159   ar
   144   162   161    1
   145   163   161   ar
   146   164   157   ar
   147   165   164    1
   148   166   157    1
   149   167   168    1
   150   168   169    1
   151   170   168    1
   152   171   168    1
   153   172   171    1
   154   173   171    1
   155   174   171    1
   156   175   174    1
   157   176   174    1
   158   177   174    1
   159   178   179    1
   160   180   178    1
   161   181   178    1
   162   182   183    1
   163   184   182    1
   164   185   182    1
   165   186   115    1
   166   187   147   ar
   167   188   187    1
   168   189   190    1
   169   190   191    1
   170   192   190    1
   171   193   190    1
   172   194   193    1
   173   195   193    1
   174   196   193    1
   175   197   196    1
   176   198   196    1
   177   199   196    1
   178   200   201    1
   179   202   200    1
   180   203   200    1
   181   204   205    1
   182   206   204    1
   183   207   204    1
   184   208   127    1
   185   209   163    1
   186   210   149    1
   187   211   214    1
   188   212   216    1
   189   213    99    1
   190   214   189    1
   191   215   130    1
   192   216   131    1
   193   217   166    1
   194   218   167    1
   195   219    93    1
   196   220   122    1
   197   221   130    2
   198   222   131    2
   199   223   141    2
   200   224   141    1
   201   225   152    2
   202   226   153    1
   203   227   226    1
   204   228   158    1
   205   229   166    2
   206   230   167    2
   207   231   177    2
   208   232   177    1
   209   233   182    1
   210   234   233    1
   211   235    66    1
   212   236    93    1
   213   237   199    2
   214   238   199    1
   215   239   204    1
   216   240   239    1
   217     7     8   ar
   218    22   104    1
   219    43    44   ar
   220    58   112    1
   221    66    67   ar
   222    80   118    1
   223    91    95    1
   224    91   100    1
   225    91   102    1
   226    91   105    1
   227    91   106    1
   228    92    97    1
   229    92   101    1
   230    92   108    1
   231    92   110    1
   232    92   113    1
   233    93   109    1
   234    93   119    1
   235    94    99    2
   236    95    96    2
   237    97    98    2
   238   116   213    1
   239   127   128   ar
   240   142   224    1
   241   146   186   ar
   242   152   219    1
   243   163   164   ar
   244   178   232    1
   245   186   187   ar
   246   189   236    2
   247   200   238    1
   248   211   215    1
   249   211   220    1
   250   211   222    1
   251   211   225    1
   252   211   226    1
   253   212   217    1
   254   212   221    1
   255   212   228    1
   256   212   230    1
   257   212   233    1
   258   213   218    1
   259   213   229    1
   260   213   235    1
   261   213   239    1
   262   214   219    2
   263   215   216    2
   264   217   218    2
   265   241   242   ar
   266   242   243   ar
   267   243   244    1
   268   245   243   ar
   269   246   245    1
   270   247   245   ar
   271   248   241   ar
   272   249   248    1
   273   250   241    1
   274   251   252    1
   275   252   253    1
   276   254   252    1
   277   255   252    1
   278   256   255    1
   279   257   255    1
   280   258   255    1
   281   259   258    1
   282   260   258    1
   283   261   258    1
   284   262   263    1
   285   264   262    1
   286   265   262    1
   287   266   268   ar
   288   267   268   ar
   289   268   269    1
   290   270   266    1
   291   271   272    1
   292   273   271    1
   293   274   271    1
   294   275   276   ar
   295   276   277   ar
   296   277   278    1
   297   279   277   ar
   298   280   279    1
   299   281   279   ar
   300   282   275   ar
   301   283   282    1
   302   284   275    1
   303   285   286    1
   304   286   287    1
   305   288   286    1
   306   289   286    1
   307   290   289    1
   308   291   289    1
   309   292   289    1
   310   293   292    1
   311   294   292    1
   312   295   292    1
   313   296   297    1
   314   298   296    1
   315   299   296    1
   316   300   301    1
   317   302   300    1
   318   303   300    1
   319   304   266   ar
   320   305   304   ar
   321   306   305    1
   322   307   267   ar
   323   308   307    1
   324   309   310    1
   325   310   311    1
   326   312   310    1
   327   313   310    1
   328   314   313    1
   329   315   313    1
   330   316   313    1
   331   317   316    1
   332   318   316    1
   333   319   316    1
   334   320   321    1
   335   322   320    1
   336   323   320    1
   337   324   325    1
   338   326   324    1
   339   327   324    1
   340   328   247    1
   341   329   281    1
   342   330   267    1
   343   331   334    1
   344   332   336    1
   345   333   338    1
   346   334   309    1
   347   335   250    1
   348   336   251    1
   349   337   284    1
   350   338   285    1
   351   339   270    1
   352   340   242    1
   353   341   250    2
   354   342   251    2
   355   343   261    2
   356   344   261    1
   357   345   270    2
   358   346   271    1
   359   347   346    1
   360   348   276    1
   361   349   284    2
   362   350   285    2
   363   351   295    2
   364   352   295    1
   365   353   300    1
   366   354   353    1
   367   355   333    1
   368   356   309    2
   369   357   319    2
   370   358   319    1
   371   359   324    1
   372   360   359    1
   373   361   362   ar
   374   362   363   ar
   375   363   364    1
   376   365   363   ar
   377   366   365    1
   378   367   365   ar
   379   368   361   ar
   380   369   368    1
   381   370   361    1
   382   371   372    1
   383   372   373    1
   384   374   372    1
   385   375   372    1
   386   376   375    1
   387   377   375    1
   388   378   375    1
   389   379   378    1
   390   380   378    1
   391   381   378    1
   392   382   383    1
   393   384   382    1
   394   385   382    1
   395   386   388   ar
   396   387   388   ar
   397   388   389    1
   398   390   386    1
   399   391   392    1
   400   393   391    1
   401   394   391    1
   402   395   396   ar
   403   396   397   ar
   404   397   398    1
   405   399   397   ar
   406   400   399    1
   407   401   399   ar
   408   402   395   ar
   409   403   402    1
   410   404   395    1
   411   405   406    1
   412   406   407    1
   413   408   406    1
   414   409   406    1
   415   410   409    1
   416   411   409    1
   417   412   409    1
   418   413   412    1
   419   414   412    1
   420   415   412    1
   421   416   417    1
   422   418   416    1
   423   419   416    1
   424   420   421    1
   425   422   420    1
   426   423   420    1
   427   424   355    1
   428   425   424   ar
   429   426   425    1
   430   427   387   ar
   431   428   427    1
   432   429   430    1
   433   430   431    1
   434   432   430    1
   435   433   430    1
   436   434   433    1
   437   435   433    1
   438   436   433    1
   439   437   436    1
   440   438   436    1
   441   439   436    1
   442   440   441    1
   443   442   440    1
   444   443   440    1
   445   444   445    1
   446   446   444    1
   447   447   444    1
   448   448   367    1
   449   449   401    1
   450   450   387    1
   451   451   454    1
   452   452   456    1
   453   453   339    1
   454   454   429    1
   455   455   370    1
   456   456   371    1
   457   457   404    1
   458   458   405    1
   459   459   333    1
   460   460   362    1
   461   461   370    2
   462   462   371    2
   463   463   381    2
   464   464   381    1
   465   465   390    2
   466   466   391    1
   467   467   466    1
   468   468   396    1
   469   469   404    2
   470   470   405    2
   471   471   415    2
   472   472   415    1
   473   473   420    1
   474   474   473    1
   475   475   304    1
   476   476   333    1
   477   477   439    2
   478   478   439    1
   479   479   444    1
   480   480   479    1
   481   247   248   ar
   482   262   344    1
   483   281   282   ar
   484   296   352    1
   485   305   307   ar
   486   320   358    1
   487   331   335    1
   488   331   340    1
   489   331   342    1
   490   331   345    1
   491   331   346    1
   492   332   337    1
   493   332   341    1
   494   332   348    1
   495   332   350    1
   496   332   353    1
   497   333   349    1
   498   333   359    1
   499   334   339    2
   500   335   336    2
   501   337   338    2
   502   356   453    1
   503   367   368   ar
   504   382   464    1
   505   386   424   ar
   506   390   459    1
   507   401   402   ar
   508   416   472    1
   509   425   427   ar
   510   429   476    2
   511   440   478    1
   512   451   455    1
   513   451   460    1
   514   451   462    1
   515   451   465    1
   516   451   466    1
   517   452   457    1
   518   452   461    1
   519   452   468    1
   520   452   470    1
   521   452   473    1
   522   453   458    1
   523   453   469    1
   524   453   475    1
   525   453   479    1
   526   454   459    2
   527   455   456    2
   528   457   458    2
   529   481   482    1
   530   483   481    1
   531   484   481    1
   532   485   481    1
   533   486   485    1
   534   487   488    1
   535   489   487    1
   536   490   487    1
   537   491   487    1
   538   492   491    1
   539   493   494    1
   540   495   493    1
   541   496   493    1
   542   497   493    1
   543   498   497    1
   544   499   500    1
   545   501   499    1
   546   502   499    1
   547   503   499    1
   548   504   503    1
   549   505   506    1
   550   507   505    1
   551   508   505    1
   552   509   505    1
   553   510   509    1
@<TRIPOS>SUBSTRUCTURE
     1 RES1        1 GROUP             0 ****  ****    0  
     2 RES2      241 GROUP             0 ****  ****    0  
     3 RES3      481 GROUP             0 ****  ****    0  
     4 RES4      487 GROUP             0 ****  ****    0  
     5 RES5      493 GROUP             0 ****  ****    0  
     6 RES6      499 GROUP             0 ****  ****    0  
     7 RES7      505 GROUP             0 ****  ****    0  
@<TRIPOS>CRYSIN
   14.4820   14.7720   27.0640   85.4600   89.0740   73.1620     2     1
