@<TRIPOS>MOLECULE
NASTOS01
   177   192     1     0     0
SMALL
NO_CHARGES
****
Generated from the CSD

@<TRIPOS>ATOM
     1 Fe1      0.0000  11.6975   0.0000   Fe        1 RES1   0.0000
     2 S1       1.4097  13.8005   4.1505   S.2       1 RES1   0.0000
     3 N1       4.1615  11.9286   1.8693   N.ar      1 RES1   0.0000
     4 N2       3.1505  12.2824  -0.1697   N.pl3     1 RES1   0.0000
     5 N3       4.5826  15.9287   2.2788   N.pl3     1 RES1   0.0000
     6 N4       1.7477  10.3900  -0.2938   N.ar      1 RES1   0.0000
     7 N5       4.9061  13.8136   3.1554   N.ar      1 RES1   0.0000
     8 N6       1.1978  13.0911  -1.2242   N.ar      1 RES1   0.0000
     9 C1       3.7849  12.8120   0.9500   C.ar      1 RES1   0.0000
    10 N7       3.9155  14.1383   0.9889   N.ar      1 RES1   0.0000
    11 N8       5.1323  11.6523   3.9466   N.pl3     1 RES1   0.0000
    12 C2       4.4554  14.5758   2.1453   C.ar      1 RES1   0.0000
    13 C3       5.0340  10.2007   3.8108   C.3       1 RES1   0.0000
    14 H1       5.9208   9.8072   3.9457   H         1 RES1   0.0000
    15 H2       4.7456   9.9850   2.8995   H         1 RES1   0.0000
    16 N9       0.7790  12.5016   1.7599   N.2       1 RES1   0.0000
    17 C4       1.0427  13.0481   2.7534   C.1       1 RES1   0.0000
    18 C5       4.7178  12.4913   2.9640   C.ar      1 RES1   0.0000
    19 C6       7.3018  11.8854   5.0873   C.ar      1 RES1   0.0000
    20 C7       4.0645   9.5828   4.7957   C.ar      1 RES1   0.0000
    21 C8       0.6110  13.8615  -2.1668   C.ar      1 RES1   0.0000
    22 H3      -0.3216  13.8077  -2.2680   H         1 RES1   0.0000
    23 C9       5.8142  12.1240   5.1546   C.3       1 RES1   0.0000
    24 H4       5.4470  11.6577   5.9350   H         1 RES1   0.0000
    25 H5       5.6448  13.0825   5.2677   H         1 RES1   0.0000
    26 C10      2.9910  10.8686  -0.3020   C.ar      1 RES1   0.0000
    27 C11      1.5860   9.0590  -0.4992   C.ar      1 RES1   0.0000
    28 H6       0.7130   8.7123  -0.5313   H         1 RES1   0.0000
    29 C12      3.3082  13.9790  -1.9304   C.ar      1 RES1   0.0000
    30 H7       4.2431  13.9925  -1.8369   H         1 RES1   0.0000
    31 C13      2.5278  13.1538  -1.1318   C.ar      1 RES1   0.0000
    32 C14      7.9452  11.0761   6.0157   C.ar      1 RES1   0.0000
    33 H8       7.4483  10.6494   6.6900   H         1 RES1   0.0000
    34 C15      2.6829  14.7777  -2.8625   C.ar      1 RES1   0.0000
    35 H9       3.1851  15.3565  -3.4089   H         1 RES1   0.0000
    36 C16      1.8452  16.7714   1.8589   C.ar      1 RES1   0.0000
    37 H10      2.0528  16.1168   2.5014   H         1 RES1   0.0000
    38 C17      2.8513  17.2952   1.0573   C.ar      1 RES1   0.0000
    39 C18      4.1106  10.0622  -0.4552   C.ar      1 RES1   0.0000
    40 H11      4.9740  10.4342  -0.4434   H         1 RES1   0.0000
    41 C19      4.4725   8.5967   5.6708   C.ar      1 RES1   0.0000
    42 H12      5.3748   8.3356   5.6865   H         1 RES1   0.0000
    43 C20      2.6433   8.1953  -0.6631   C.ar      1 RES1   0.0000
    44 H13      2.4960   7.2758  -0.7990   H         1 RES1   0.0000
    45 C21      1.3036  14.7152  -2.9819   C.ar      1 RES1   0.0000
    46 H14      0.8529  15.2489  -3.6107   H         1 RES1   0.0000
    47 C22      4.8224  16.5431   3.5838   C.3       1 RES1   0.0000
    48 H15      4.6095  15.8899   4.2820   H         1 RES1   0.0000
    49 H16      4.2103  17.3006   3.6903   H         1 RES1   0.0000
    50 C23      8.0614  12.4789   4.0895   C.ar      1 RES1   0.0000
    51 H17      7.6359  13.0100   3.4404   H         1 RES1   0.0000
    52 C24      6.2393  17.0309   3.7938   C.ar      1 RES1   0.0000
    53 C25      4.2843  16.8114   1.1527   C.3       1 RES1   0.0000
    54 H18      4.5064  16.3391   0.3226   H         1 RES1   0.0000
    55 H19      4.8717  17.5954   1.2109   H         1 RES1   0.0000
    56 C26      3.5686   7.9838   6.5280   C.ar      1 RES1   0.0000
    57 H20      3.8548   7.2992   7.1047   H         1 RES1   0.0000
    58 C27      7.3014  16.1458   3.7535   C.ar      1 RES1   0.0000
    59 H21      7.1372  15.2395   3.5667   H         1 RES1   0.0000
    60 C28      2.7296   9.9906   4.8229   C.ar      1 RES1   0.0000
    61 H22      2.4362  10.6798   4.2559   H         1 RES1   0.0000
    62 C29      1.8374   9.3767   5.6878   C.ar      1 RES1   0.0000
    63 H23      0.9372   9.6458   5.6975   H         1 RES1   0.0000
    64 C30      9.3205  10.8967   5.9514   C.ar      1 RES1   0.0000
    65 H24      9.7500  10.3476   6.5816   H         1 RES1   0.0000
    66 C31      2.2563   8.3820   6.5294   C.ar      1 RES1   0.0000
    67 H25      1.6418   7.9707   7.1101   H         1 RES1   0.0000
    68 C32      9.4338  12.3060   4.0294   C.ar      1 RES1   0.0000
    69 H26      9.9357  12.7222   3.3526   H         1 RES1   0.0000
    70 C33      6.5086  18.3648   4.0637   C.ar      1 RES1   0.0000
    71 H27      5.8037  18.9874   4.0980   H         1 RES1   0.0000
    72 C34      2.5212  18.2668   0.1208   C.ar      1 RES1   0.0000
    73 H28      3.1947  18.6388  -0.4187   H         1 RES1   0.0000
    74 C35      3.9323   8.7064  -0.6247   C.ar      1 RES1   0.0000
    75 H29      4.6733   8.1368  -0.7139   H         1 RES1   0.0000
    76 C36     10.0598  11.5167   4.9726   C.ar      1 RES1   0.0000
    77 H30     10.9930  11.4027   4.9451   H         1 RES1   0.0000
    78 C37      0.2217  18.1707   0.7661   C.ar      1 RES1   0.0000
    79 H31     -0.6652  18.4657   0.6631   H         1 RES1   0.0000
    80 C38      7.8135  18.7864   4.2834   C.ar      1 RES1   0.0000
    81 H32      7.9860  19.6939   4.4605   H         1 RES1   0.0000
    82 C39      0.5279  17.2117   1.7147   C.ar      1 RES1   0.0000
    83 H33     -0.1490  16.8561   2.2611   H         1 RES1   0.0000
    84 C40      1.2192  18.6917  -0.0247   C.ar      1 RES1   0.0000
    85 H34      1.0108  19.3430  -0.6700   H         1 RES1   0.0000
    86 C41      8.8535  17.8927   4.2422   C.ar      1 RES1   0.0000
    87 H35      9.7337  18.1873   4.3905   H         1 RES1   0.0000
    88 C42      8.6079  16.5669   3.9855   C.ar      1 RES1   0.0000
    89 H36      9.3154  15.9484   3.9649   H         1 RES1   0.0000
    90 S1B     -1.4097   9.5945  -4.1505   S.2       1 RES1   0.0000
    91 N1B     -4.1615  11.4664  -1.8693   N.ar      1 RES1   0.0000
    92 N2B     -3.1505  11.1126   0.1697   N.pl3     1 RES1   0.0000
    93 N3B     -4.5826   7.4663  -2.2788   N.pl3     1 RES1   0.0000
    94 N4B     -1.7477  13.0050   0.2938   N.ar      1 RES1   0.0000
    95 N5B     -4.9061   9.5814  -3.1554   N.ar      1 RES1   0.0000
    96 N6B     -1.1978  10.3039   1.2242   N.ar      1 RES1   0.0000
    97 C1B     -3.7849  10.5830  -0.9500   C.ar      1 RES1   0.0000
    98 N7B     -3.9155   9.2567  -0.9889   N.ar      1 RES1   0.0000
    99 N8B     -5.1323  11.7427  -3.9466   N.pl3     1 RES1   0.0000
   100 C2B     -4.4554   8.8192  -2.1453   C.ar      1 RES1   0.0000
   101 C3B     -5.0340  13.1943  -3.8108   C.3       1 RES1   0.0000
   102 H1B     -5.9208  13.5878  -3.9457   H         1 RES1   0.0000
   103 H2B     -4.7456  13.4100  -2.8995   H         1 RES1   0.0000
   104 N9B     -0.7790  10.8934  -1.7599   N.2       1 RES1   0.0000
   105 C4B     -1.0427  10.3469  -2.7534   C.1       1 RES1   0.0000
   106 C5B     -4.7178  10.9037  -2.9640   C.ar      1 RES1   0.0000
   107 C6B     -7.3018  11.5096  -5.0873   C.ar      1 RES1   0.0000
   108 C7B     -4.0645  13.8122  -4.7957   C.ar      1 RES1   0.0000
   109 C8B     -0.6110   9.5335   2.1668   C.ar      1 RES1   0.0000
   110 H3B      0.3216   9.5873   2.2680   H         1 RES1   0.0000
   111 C9B     -5.8142  11.2710  -5.1546   C.3       1 RES1   0.0000
   112 H4B     -5.4470  11.7373  -5.9350   H         1 RES1   0.0000
   113 H5B     -5.6448  10.3125  -5.2677   H         1 RES1   0.0000
   114 C10B    -2.9910  12.5264   0.3020   C.ar      1 RES1   0.0000
   115 C11B    -1.5860  14.3360   0.4992   C.ar      1 RES1   0.0000
   116 H6B     -0.7130  14.6827   0.5313   H         1 RES1   0.0000
   117 C12B    -3.3082   9.4160   1.9304   C.ar      1 RES1   0.0000
   118 H7B     -4.2431   9.4025   1.8369   H         1 RES1   0.0000
   119 C13B    -2.5278  10.2412   1.1318   C.ar      1 RES1   0.0000
   120 C14B    -7.9452  12.3189  -6.0157   C.ar      1 RES1   0.0000
   121 H8B     -7.4483  12.7456  -6.6900   H         1 RES1   0.0000
   122 C15B    -2.6829   8.6173   2.8625   C.ar      1 RES1   0.0000
   123 H9B     -3.1851   8.0385   3.4089   H         1 RES1   0.0000
   124 C16B    -1.8452   6.6236  -1.8589   C.ar      1 RES1   0.0000
   125 H10B    -2.0528   7.2782  -2.5014   H         1 RES1   0.0000
   126 C17B    -2.8513   6.0998  -1.0573   C.ar      1 RES1   0.0000
   127 C18B    -4.1106  13.3328   0.4552   C.ar      1 RES1   0.0000
   128 H11B    -4.9740  12.9608   0.4434   H         1 RES1   0.0000
   129 C19B    -4.4725  14.7983  -5.6708   C.ar      1 RES1   0.0000
   130 H12B    -5.3748  15.0594  -5.6865   H         1 RES1   0.0000
   131 C20B    -2.6433  15.1997   0.6631   C.ar      1 RES1   0.0000
   132 H13B    -2.4960  16.1192   0.7990   H         1 RES1   0.0000
   133 C21B    -1.3036   8.6798   2.9819   C.ar      1 RES1   0.0000
   134 H14B    -0.8529   8.1461   3.6107   H         1 RES1   0.0000
   135 C22B    -4.8224   6.8519  -3.5838   C.3       1 RES1   0.0000
   136 H15B    -4.6095   7.5051  -4.2820   H         1 RES1   0.0000
   137 H16B    -4.2103   6.0944  -3.6903   H         1 RES1   0.0000
   138 C23B    -8.0614  10.9161  -4.0895   C.ar      1 RES1   0.0000
   139 H17B    -7.6359  10.3850  -3.4404   H         1 RES1   0.0000
   140 C24B    -6.2393   6.3641  -3.7938   C.ar      1 RES1   0.0000
   141 C25B    -4.2843   6.5836  -1.1527   C.3       1 RES1   0.0000
   142 H18B    -4.5064   7.0559  -0.3226   H         1 RES1   0.0000
   143 H19B    -4.8717   5.7996  -1.2109   H         1 RES1   0.0000
   144 C26B    -3.5686  15.4112  -6.5280   C.ar      1 RES1   0.0000
   145 H20B    -3.8548  16.0958  -7.1047   H         1 RES1   0.0000
   146 C27B    -7.3014   7.2492  -3.7535   C.ar      1 RES1   0.0000
   147 H21B    -7.1372   8.1555  -3.5667   H         1 RES1   0.0000
   148 C28B    -2.7296  13.4044  -4.8229   C.ar      1 RES1   0.0000
   149 H22B    -2.4362  12.7152  -4.2559   H         1 RES1   0.0000
   150 C29B    -1.8374  14.0183  -5.6878   C.ar      1 RES1   0.0000
   151 H23B    -0.9372  13.7492  -5.6975   H         1 RES1   0.0000
   152 C30B    -9.3205  12.4983  -5.9514   C.ar      1 RES1   0.0000
   153 H24B    -9.7500  13.0474  -6.5816   H         1 RES1   0.0000
   154 C31B    -2.2563  15.0130  -6.5294   C.ar      1 RES1   0.0000
   155 H25B    -1.6418  15.4243  -7.1101   H         1 RES1   0.0000
   156 C32B    -9.4338  11.0890  -4.0294   C.ar      1 RES1   0.0000
   157 H26B    -9.9357  10.6728  -3.3526   H         1 RES1   0.0000
   158 C33B    -6.5086   5.0302  -4.0637   C.ar      1 RES1   0.0000
   159 H27B    -5.8037   4.4076  -4.0980   H         1 RES1   0.0000
   160 C34B    -2.5212   5.1282  -0.1208   C.ar      1 RES1   0.0000
   161 H28B    -3.1947   4.7562   0.4187   H         1 RES1   0.0000
   162 C35B    -3.9323  14.6886   0.6247   C.ar      1 RES1   0.0000
   163 H29B    -4.6733  15.2582   0.7139   H         1 RES1   0.0000
   164 C36B   -10.0598  11.8783  -4.9726   C.ar      1 RES1   0.0000
   165 H30B   -10.9930  11.9923  -4.9451   H         1 RES1   0.0000
   166 C37B    -0.2217   5.2243  -0.7661   C.ar      1 RES1   0.0000
   167 H31B     0.6652   4.9293  -0.6631   H         1 RES1   0.0000
   168 C38B    -7.8135   4.6086  -4.2834   C.ar      1 RES1   0.0000
   169 H32B    -7.9860   3.7011  -4.4605   H         1 RES1   0.0000
   170 C39B    -0.5279   6.1833  -1.7147   C.ar      1 RES1   0.0000
   171 H33B     0.1490   6.5389  -2.2611   H         1 RES1   0.0000
   172 C40B    -1.2192   4.7033   0.0247   C.ar      1 RES1   0.0000
   173 H34B    -1.0108   4.0520   0.6700   H         1 RES1   0.0000
   174 C41B    -8.8535   5.5023  -4.2422   C.ar      1 RES1   0.0000
   175 H35B    -9.7337   5.2077  -4.3905   H         1 RES1   0.0000
   176 C42B    -8.6079   6.8281  -3.9855   C.ar      1 RES1   0.0000
   177 H36B    -9.3154   7.4466  -3.9649   H         1 RES1   0.0000
@<TRIPOS>BOND
     1     1     6    1
     2     2    17    2
     3     3     9   ar
     4     4     9    1
     5     5    12    1
     6     6    26   ar
     7     7    12   ar
     8     8     1    1
     9     9    10   ar
    10    10    12   ar
    11    11    13    1
    12    13    14    1
    13    15    13    1
    14    16     1    1
    15    17    16    2
    16    18     3   ar
    17    19    23    1
    18    20    13    1
    19    21     8   ar
    20    22    21    1
    21    23    11    1
    22    24    23    1
    23    25    23    1
    24    26     4    1
    25    27     6   ar
    26    28    27    1
    27    29    30    1
    28    31     4    1
    29    32    19   ar
    30    33    32    1
    31    34    29   ar
    32    35    34    1
    33    36    37    1
    34    38    36   ar
    35    39    26   ar
    36    40    39    1
    37    41    20   ar
    38    42    41    1
    39    43    27   ar
    40    44    43    1
    41    45    21   ar
    42    46    45    1
    43    47     5    1
    44    48    47    1
    45    49    47    1
    46    50    19   ar
    47    51    50    1
    48    52    47    1
    49    53     5    1
    50    54    53    1
    51    55    53    1
    52    56    41   ar
    53    57    56    1
    54    58    52   ar
    55    59    58    1
    56    60    20   ar
    57    61    60    1
    58    62    60   ar
    59    63    62    1
    60    64    32   ar
    61    65    64    1
    62    66    56   ar
    63    67    66    1
    64    68    50   ar
    65    69    68    1
    66    70    52   ar
    67    71    70    1
    68    72    38   ar
    69    73    72    1
    70    74    39   ar
    71    75    74    1
    72    76    64   ar
    73    77    76    1
    74    78    79    1
    75    80    70   ar
    76    81    80    1
    77    82    36   ar
    78    83    82    1
    79    84    72   ar
    80    85    84    1
    81    86    80   ar
    82    87    86    1
    83    88    58   ar
    84    89    88    1
    85    90   105    2
    86    91    97   ar
    87    92    97    1
    88    93   100    1
    89    94     1    1
    90    95   100   ar
    91    96     1    1
    92    97    98   ar
    93    98   100   ar
    94    99   101    1
    95   101   102    1
    96   103   101    1
    97   104     1    1
    98   105   104    2
    99   106    91   ar
   100   107   111    1
   101   108   101    1
   102   109    96   ar
   103   110   109    1
   104   111    99    1
   105   112   111    1
   106   113   111    1
   107   114    92    1
   108   115    94   ar
   109   116   115    1
   110   117   118    1
   111   119    92    1
   112   120   107   ar
   113   121   120    1
   114   122   117   ar
   115   123   122    1
   116   124   125    1
   117   126   124   ar
   118   127   114   ar
   119   128   127    1
   120   129   108   ar
   121   130   129    1
   122   131   115   ar
   123   132   131    1
   124   133   109   ar
   125   134   133    1
   126   135    93    1
   127   136   135    1
   128   137   135    1
   129   138   107   ar
   130   139   138    1
   131   140   135    1
   132   141    93    1
   133   142   141    1
   134   143   141    1
   135   144   129   ar
   136   145   144    1
   137   146   140   ar
   138   147   146    1
   139   148   108   ar
   140   149   148    1
   141   150   148   ar
   142   151   150    1
   143   152   120   ar
   144   153   152    1
   145   154   144   ar
   146   155   154    1
   147   156   138   ar
   148   157   156    1
   149   158   140   ar
   150   159   158    1
   151   160   126   ar
   152   161   160    1
   153   162   127   ar
   154   163   162    1
   155   164   152   ar
   156   165   164    1
   157   166   167    1
   158   168   158   ar
   159   169   168    1
   160   170   124   ar
   161   171   170    1
   162   172   160   ar
   163   173   172    1
   164   174   168   ar
   165   175   174    1
   166   176   146   ar
   167   177   176    1
   168     7    18   ar
   169     8    31   ar
   170    11    18    1
   171    29    31   ar
   172    34    45   ar
   173    38    53    1
   174    43    74   ar
   175    62    66   ar
   176    68    76   ar
   177    78    82   ar
   178    78    84   ar
   179    86    88   ar
   180    94   114   ar
   181    95   106   ar
   182    96   119   ar
   183    99   106    1
   184   117   119   ar
   185   122   133   ar
   186   126   141    1
   187   131   162   ar
   188   150   154   ar
   189   156   164   ar
   190   166   170   ar
   191   166   172   ar
   192   174   176   ar
@<TRIPOS>SUBSTRUCTURE
     1 RES1        1 GROUP             0 ****  ****    0  
@<TRIPOS>CRYSIN
   11.6430   23.3950   13.8820   90.0000   98.5200   90.0000    14     1
