@<TRIPOS>MOLECULE
NASWAH
   163   176     3     0     0
SMALL
NO_CHARGES
****
Generated from the CSD

@<TRIPOS>ATOM
     1 Fe1      7.2062   6.5148   9.3132   Fe        1 RES1   0.0000
     2 S1       6.5494   3.0182   5.9429   S.2       1 RES1   0.0000
     3 N1      10.1495   3.6281   6.6617   N.ar      1 RES1   0.0000
     4 N2       9.8834   2.9703   4.3850   N.ar      1 RES1   0.0000
     5 N3       9.2906   5.1914   5.0760   N.ar      1 RES1   0.0000
     6 N4       9.6429   5.7857   7.2911   N.pl3     1 RES1   0.0000
     7 N5      10.7125   1.5004   5.9958   N.pl3     1 RES1   0.0000
     8 N6       8.3307   7.6688   7.8048   N.ar      1 RES1   0.0000
     9 N7       8.9536   4.4613   2.9038   N.pl3     1 RES1   0.0000
    10 N8       9.2124   5.6639   9.6119   N.ar      1 RES1   0.0000
    11 C1       9.3948   4.2037   4.1684   C.ar      1 RES1   0.0000
    12 C2       9.7147   4.8284   6.2795   C.ar      1 RES1   0.0000
    13 N9       6.7584   5.0180   7.8843   N.2       1 RES1   0.0000
    14 C3      11.1642   0.5005   8.1779   C.ar      1 RES1   0.0000
    15 H1      10.3880  -0.0379   8.0801   H         1 RES1   0.0000
    16 C4      10.2219   2.7472   5.6501   C.ar      1 RES1   0.0000
    17 C5      11.3617   4.9638   8.8117   C.ar      1 RES1   0.0000
    18 H2      11.9563   4.8415   8.0801   H         1 RES1   0.0000
    19 C6      11.7561   4.6609  10.0938   C.ar      1 RES1   0.0000
    20 H3      12.6191   4.2984  10.2557   H         1 RES1   0.0000
    21 C7      10.0801   5.4524   8.6059   C.ar      1 RES1   0.0000
    22 C8       9.2701   7.1386   7.0033   C.ar      1 RES1   0.0000
    23 C9      11.4859  -0.6479   5.1418   C.ar      1 RES1   0.0000
    24 H4      12.2822  -0.5453   5.6494   H         1 RES1   0.0000
    25 C10      9.9046   7.8505   6.0221   C.ar      1 RES1   0.0000
    26 H5      10.5335   7.4260   5.4519   H         1 RES1   0.0000
    27 C11     11.9411   0.4077   9.3370   C.ar      1 RES1   0.0000
    28 H6      11.6966  -0.1952  10.0284   H         1 RES1   0.0000
    29 C12      8.0851   8.9920   7.6543   C.ar      1 RES1   0.0000
    30 H7       7.4458   9.3956   8.2291   H         1 RES1   0.0000
    31 C13     13.4342   2.0643   8.4564   C.ar      1 RES1   0.0000
    32 H8      14.2089   2.6038   8.5551   H         1 RES1   0.0000
    33 C14      6.6668   4.1889   7.0685   C.1       1 RES1   0.0000
    34 C15     11.5310   1.3840   7.1734   C.ar      1 RES1   0.0000
    35 C16      8.5088   5.7633   2.4810   C.ar      1 RES1   0.0000
    36 C17      9.6387   5.4058  10.8634   C.ar      1 RES1   0.0000
    37 H9       9.0513   5.5904  11.5856   H         1 RES1   0.0000
    38 C18      9.3293   0.1581   4.4651   C.ar      1 RES1   0.0000
    39 H10      8.6378   0.8088   4.5038   H         1 RES1   0.0000
    40 C19     10.4956   0.3425   5.1938   C.ar      1 RES1   0.0000
    41 C20      7.3011   5.8704   1.8028   C.ar      1 RES1   0.0000
    42 H11      6.7817   5.0946   1.6298   H         1 RES1   0.0000
    43 C21     13.0654   1.1970   9.4707   C.ar      1 RES1   0.0000
    44 H12     13.5877   1.1444  10.2612   H         1 RES1   0.0000
    45 C22      8.6991   9.7754   6.7291   C.ar      1 RES1   0.0000
    46 H13      8.5026  10.7029   6.6720   H         1 RES1   0.0000
    47 C23     11.3125  -1.7726   4.3567   C.ar      1 RES1   0.0000
    48 H14     11.9918  -2.4362   4.3269   H         1 RES1   0.0000
    49 C24     10.8828   4.8872  11.1501   C.ar      1 RES1   0.0000
    50 H15     11.1359   4.6911  12.0438   H         1 RES1   0.0000
    51 C25      8.8117   8.1270   2.2899   C.ar      1 RES1   0.0000
    52 H16      9.3297   8.9047   2.4605   H         1 RES1   0.0000
    53 C26      8.7967   3.3711   1.9766   C.ar      1 RES1   0.0000
    54 C27     12.6773   2.1484   7.2972   C.ar      1 RES1   0.0000
    55 H17     12.9448   2.7270   6.5919   H         1 RES1   0.0000
    56 C28      9.1704  -0.9718   3.6808   C.ar      1 RES1   0.0000
    57 H18      8.3715  -1.0866   3.1795   H         1 RES1   0.0000
    58 C29      9.6635   3.2845   0.9011   C.ar      1 RES1   0.0000
    59 H19     10.3649   3.9157   0.7879   H         1 RES1   0.0000
    60 C30     10.1600  -1.9366   3.6182   C.ar      1 RES1   0.0000
    61 H20     10.0470  -2.7039   3.0715   H         1 RES1   0.0000
    62 C31      9.6185   9.1930   5.8706   C.ar      1 RES1   0.0000
    63 H21     10.0430   9.7072   5.1930   H         1 RES1   0.0000
    64 C32      6.8563   7.1131   1.3795   C.ar      1 RES1   0.0000
    65 H22      6.0335   7.1841   0.9090   H         1 RES1   0.0000
    66 C33      7.5966   8.2434   1.6352   C.ar      1 RES1   0.0000
    67 H23      7.2785   9.0967   1.3653   H         1 RES1   0.0000
    68 C34      7.5870   1.4518   1.2088   C.ar      1 RES1   0.0000
    69 H24      6.8827   0.8241   1.3150   H         1 RES1   0.0000
    70 C35      9.2787   6.8902   2.6991   C.ar      1 RES1   0.0000
    71 H25     10.1234   6.8162   3.1274   H         1 RES1   0.0000
    72 C36      7.7591   2.4771   2.1336   C.ar      1 RES1   0.0000
    73 H26      7.1649   2.5613   2.8703   H         1 RES1   0.0000
    74 C37      9.4793   2.2465  -0.0130   C.ar      1 RES1   0.0000
    75 H27     10.0738   2.1571  -0.7488   H         1 RES1   0.0000
    76 C38      8.4535   1.3580   0.1360   C.ar      1 RES1   0.0000
    77 H28      8.3343   0.6665  -0.5048   H         1 RES1   0.0000
    78 S1A      7.8629  10.0114  12.6834   S.2       1 RES1   0.0000
    79 N1A      4.2628   9.4016  11.9646   N.ar      1 RES1   0.0000
    80 N2A      4.5289  10.0593  14.2413   N.ar      1 RES1   0.0000
    81 N3A      5.1217   7.8382  13.5503   N.ar      1 RES1   0.0000
    82 N4A      4.7694   7.2439  11.3352   N.pl3     1 RES1   0.0000
    83 N5A      3.6998  11.5292  12.6305   N.pl3     1 RES1   0.0000
    84 N6A      6.0816   5.3609  10.8215   N.ar      1 RES1   0.0000
    85 N7A      5.4587   8.5683  15.7225   N.pl3     1 RES1   0.0000
    86 N8A      5.1999   7.3657   9.0144   N.ar      1 RES1   0.0000
    87 C1A      5.0175   8.8259  14.4579   C.ar      1 RES1   0.0000
    88 C2A      4.6977   8.2012  12.3468   C.ar      1 RES1   0.0000
    89 N9A      7.6539   8.0116  10.7420   N.2       1 RES1   0.0000
    90 C3A      3.2481  12.5291  10.4484   C.ar      1 RES1   0.0000
    91 H1A      4.0243  13.0675  10.5462   H         1 RES1   0.0000
    92 C4A      4.1904  10.2824  12.9762   C.ar      1 RES1   0.0000
    93 C5A      3.0506   8.0658   9.8146   C.ar      1 RES1   0.0000
    94 H2A      2.4560   8.1881  10.5462   H         1 RES1   0.0000
    95 C6A      2.6562   8.3687   8.5325   C.ar      1 RES1   0.0000
    96 H3A      1.7933   8.7313   8.3707   H         1 RES1   0.0000
    97 C7A      4.3322   7.5773  10.0204   C.ar      1 RES1   0.0000
    98 C8A      5.1422   5.8911  11.6230   C.ar      1 RES1   0.0000
    99 C9A      2.9264  13.6775  13.4845   C.ar      1 RES1   0.0000
   100 H4A      2.1302  13.5749  12.9770   H         1 RES1   0.0000
   101 C10A     4.5078   5.1791  12.6043   C.ar      1 RES1   0.0000
   102 H5A      3.8788   5.6037  13.1744   H         1 RES1   0.0000
   103 C11A     2.4712  12.6219   9.2893   C.ar      1 RES1   0.0000
   104 H6A      2.7158  13.2248   8.5979   H         1 RES1   0.0000
   105 C12A     6.3273   4.0376  10.9720   C.ar      1 RES1   0.0000
   106 H7A      6.9665   3.6340  10.3972   H         1 RES1   0.0000
   107 C13A     0.9782  10.9654  10.1700   C.ar      1 RES1   0.0000
   108 H8A      0.2034  10.4258  10.0713   H         1 RES1   0.0000
   109 C14A     7.7456   8.8407  11.5578   C.1       1 RES1   0.0000
   110 C15A     2.8813  11.6456  11.4530   C.ar      1 RES1   0.0000
   111 C16A     5.9036   7.2663  16.1453   C.ar      1 RES1   0.0000
   112 C17A     4.7736   7.6238   7.7629   C.ar      1 RES1   0.0000
   113 H9A      5.3610   7.4392   7.0408   H         1 RES1   0.0000
   114 C18A     5.0830  12.8715  14.1612   C.ar      1 RES1   0.0000
   115 H10A     5.7746  12.2208  14.1225   H         1 RES1   0.0000
   116 C19A     3.9168  12.6871  13.4326   C.ar      1 RES1   0.0000
   117 C20A     7.1112   7.1592  16.8235   C.ar      1 RES1   0.0000
   118 H11A     7.6307   7.9350  16.9965   H         1 RES1   0.0000
   119 C21A     1.3469  11.8327   9.1556   C.ar      1 RES1   0.0000
   120 H12A     0.8246  11.8852   8.3651   H         1 RES1   0.0000
   121 C22A     5.7133   3.2543  11.8972   C.ar      1 RES1   0.0000
   122 H13A     5.9098   2.3267  11.9544   H         1 RES1   0.0000
   123 C23A     3.0998  14.8022  14.2696   C.ar      1 RES1   0.0000
   124 H14A     2.4205  15.4658  14.2994   H         1 RES1   0.0000
   125 C24A     3.5295   8.1424   7.4762   C.ar      1 RES1   0.0000
   126 H15A     3.2764   8.3385   6.5825   H         1 RES1   0.0000
   127 C25A     5.6006   4.9026  16.3364   C.ar      1 RES1   0.0000
   128 H16A     5.0826   4.1250  16.1658   H         1 RES1   0.0000
   129 C26A     5.6156   9.6586  16.6497   C.ar      1 RES1   0.0000
   130 C27A     1.7351  10.8812  11.3291   C.ar      1 RES1   0.0000
   131 H17A     1.4675  10.3026  12.0345   H         1 RES1   0.0000
   132 C28A     5.2419  14.0015  14.9456   C.ar      1 RES1   0.0000
   133 H18A     6.0408  14.1162  15.4468   H         1 RES1   0.0000
   134 C29A     4.7488   9.7451  17.7252   C.ar      1 RES1   0.0000
   135 H19A     4.0475   9.1139  17.8384   H         1 RES1   0.0000
   136 C30A     4.2524  14.9662  15.0082   C.ar      1 RES1   0.0000
   137 H20A     4.3654  15.7335  15.5549   H         1 RES1   0.0000
   138 C31A     4.7938   3.8366  12.7557   C.ar      1 RES1   0.0000
   139 H21A     4.3693   3.3225  13.4333   H         1 RES1   0.0000
   140 C32A     7.5561   5.9165  17.2469   C.ar      1 RES1   0.0000
   141 H22A     8.3788   5.8456  17.7174   H         1 RES1   0.0000
   142 C33A     6.8157   4.7862  16.9911   C.ar      1 RES1   0.0000
   143 H23A     7.1339   3.9329  17.2610   H         1 RES1   0.0000
   144 C34A     6.8253  11.5778  17.4175   C.ar      1 RES1   0.0000
   145 H24A     7.5296  12.2056  17.3113   H         1 RES1   0.0000
   146 C35A     5.1337   6.1395  15.9272   C.ar      1 RES1   0.0000
   147 H25A     4.2889   6.2134  15.4990   H         1 RES1   0.0000
   148 C36A     6.6532  10.5525  16.4927   C.ar      1 RES1   0.0000
   149 H26A     7.2474  10.4684  15.7560   H         1 RES1   0.0000
   150 C37A     4.9331  10.7832  18.6394   C.ar      1 RES1   0.0000
   151 H27A     4.3386  10.8725  19.3751   H         1 RES1   0.0000
   152 C38A     5.9588  11.6716  18.4904   C.ar      1 RES1   0.0000
   153 H28A     6.0780  12.3631  19.1311   H         1 RES1   0.0000
   154 Cl1     10.1772  11.5422  14.9143   Cl        2 RES2   0.0000
   155 Cl4     10.9126  11.5757  17.7235   Cl        2 RES2   0.0000
   156 C40     11.4952  11.7402  16.0775   C.3       2 RES2   0.0000
   157 H31     12.1921  11.0582  15.9050   H         2 RES2   0.0000
   158 H32     11.9056  12.6336  15.9609   H         2 RES2   0.0000
   159 Cl2     11.0643   7.6089  13.5322   Cl        3 RES3   0.0000
   160 Cl3     10.7763   7.9341  16.4079   Cl        3 RES3   0.0000
   161 C39      9.9581   7.9097  14.8564   C.3       3 RES3   0.0000
   162 H29      9.2632   7.2047  14.8675   H         3 RES3   0.0000
   163 H30      9.5073   8.7794  14.7129   H         3 RES3   0.0000
@<TRIPOS>BOND
     1     1     8    1
     2     2    33    2
     3     3    12   ar
     4     4    11   ar
     5     5    11   ar
     6     6    12    1
     7     7    16    1
     8     8    22   ar
     9     9    11    1
    10    10     1    1
    11    12     5   ar
    12    13     1    1
    13    14    15    1
    14    16     3   ar
    15    17    18    1
    16    19    17   ar
    17    20    19    1
    18    21     6    1
    19    22     6    1
    20    23    24    1
    21    25    22   ar
    22    26    25    1
    23    27    14   ar
    24    28    27    1
    25    29     8   ar
    26    30    29    1
    27    31    32    1
    28    33    13    2
    29    34     7    1
    30    35     9    1
    31    36    10   ar
    32    37    36    1
    33    38    39    1
    34    40     7    1
    35    41    35   ar
    36    42    41    1
    37    43    27   ar
    38    44    43    1
    39    45    29   ar
    40    46    45    1
    41    47    23   ar
    42    48    47    1
    43    49    19   ar
    44    50    49    1
    45    51    52    1
    46    53     9    1
    47    54    31   ar
    48    55    54    1
    49    56    38   ar
    50    57    56    1
    51    58    53   ar
    52    59    58    1
    53    60    47   ar
    54    61    60    1
    55    62    25   ar
    56    63    62    1
    57    64    41   ar
    58    65    64    1
    59    66    51   ar
    60    67    66    1
    61    68    69    1
    62    70    35   ar
    63    71    70    1
    64    72    53   ar
    65    73    72    1
    66    74    58   ar
    67    75    74    1
    68    76    68   ar
    69    77    76    1
    70    78   109    2
    71    79    88   ar
    72    80    87   ar
    73    81    87   ar
    74    82    88    1
    75    83    92    1
    76    84     1    1
    77    85    87    1
    78    86     1    1
    79    88    81   ar
    80    89     1    1
    81    90    91    1
    82    92    79   ar
    83    93    94    1
    84    95    93   ar
    85    96    95    1
    86    97    82    1
    87    98    82    1
    88    99   100    1
    89   101    98   ar
    90   102   101    1
    91   103    90   ar
    92   104   103    1
    93   105    84   ar
    94   106   105    1
    95   107   108    1
    96   109    89    2
    97   110    83    1
    98   111    85    1
    99   112    86   ar
   100   113   112    1
   101   114   115    1
   102   116    83    1
   103   117   111   ar
   104   118   117    1
   105   119   103   ar
   106   120   119    1
   107   121   105   ar
   108   122   121    1
   109   123    99   ar
   110   124   123    1
   111   125    95   ar
   112   126   125    1
   113   127   128    1
   114   129    85    1
   115   130   107   ar
   116   131   130    1
   117   132   114   ar
   118   133   132    1
   119   134   129   ar
   120   135   134    1
   121   136   123   ar
   122   137   136    1
   123   138   101   ar
   124   139   138    1
   125   140   117   ar
   126   141   140    1
   127   142   127   ar
   128   143   142    1
   129   144   145    1
   130   146   111   ar
   131   147   146    1
   132   148   129   ar
   133   149   148    1
   134   150   134   ar
   135   151   150    1
   136   152   144   ar
   137   153   152    1
   138     4    16   ar
   139    10    21   ar
   140    14    34   ar
   141    17    21   ar
   142    23    40   ar
   143    31    43   ar
   144    34    54   ar
   145    36    49   ar
   146    38    40   ar
   147    45    62   ar
   148    51    70   ar
   149    56    60   ar
   150    64    66   ar
   151    68    72   ar
   152    74    76   ar
   153    80    92   ar
   154    84    98   ar
   155    86    97   ar
   156    90   110   ar
   157    93    97   ar
   158    99   116   ar
   159   107   119   ar
   160   110   130   ar
   161   112   125   ar
   162   114   116   ar
   163   121   138   ar
   164   127   146   ar
   165   132   136   ar
   166   140   142   ar
   167   144   148   ar
   168   150   152   ar
   169   154   156    1
   170   155   156    1
   171   156   157    1
   172   158   156    1
   173   159   161    1
   174   160   161    1
   175   161   162    1
   176   163   161    1
@<TRIPOS>SUBSTRUCTURE
     1 RES1        1 GROUP             0 ****  ****    0  
     2 RES2      154 GROUP             0 ****  ****    0  
     3 RES3      159 GROUP             0 ****  ****    0  
@<TRIPOS>CRYSIN
    9.4833   11.3020   18.8225   82.0310   85.4550   72.2930     2     1
