@<TRIPOS>MOLECULE
NAXGUP
    94    93     8     0     0
SMALL
NO_CHARGES
****
Generated from the CSD

@<TRIPOS>ATOM
     1 Eu1      4.5419   4.3636   5.0542   Eu        1 RES1   0.0000
     2 Fe1      7.8929   0.0305   5.4078   Fe        1 RES1   0.0000
     3 O1       6.5720   5.6159   5.2889   O.3       1 RES1   0.0000
     4 H1       6.5769   6.3740   5.2085   H         1 RES1   0.0000
     5 H2       7.0075   5.3651   5.9110   H         1 RES1   0.0000
     6 O2       4.8631   4.6975   7.4368   O.3       1 RES1   0.0000
     7 H3       5.2173   4.0292   7.8761   H         1 RES1   0.0000
     8 H4       5.2594   5.2700   7.7574   H         1 RES1   0.0000
     9 O3       3.4247   2.5805   6.2769   O.3       1 RES1   0.0000
    10 H5       2.8162   2.2199   6.1525   H         1 RES1   0.0000
    11 H6       3.9138   2.1724   6.8471   H         1 RES1   0.0000
    12 O4       5.0467   5.2008   2.8793   O.3       1 RES1   0.0000
    13 N1       2.1178   4.3000   4.2507   N.ar      1 RES1   0.0000
    14 N2       3.9573   2.5907   3.2599   N.ar      1 RES1   0.0000
    15 N3       6.3812   2.7113   5.3827   N.1       1 RES1   0.0000
    16 N4       7.3659  -0.0330   8.4607   N.1       1 RES1   0.0000
    17 N5      10.7293   1.2351   5.7464   N.1       1 RES1   0.0000
    18 N6       8.3265   0.1344   2.3438   N.1       1 RES1   0.0000
    19 N7       5.0587  -1.1138   5.0443   N.1       1 RES1   0.0000
    20 N8       3.8312   6.7522   5.3459   N.1       1 RES1   0.0000
    21 C1       1.2191   5.1623   4.7573   C.ar      1 RES1   0.0000
    22 H7       1.5143   5.7987   5.3688   H         1 RES1   0.0000
    23 C2      -0.1195   5.1528   4.4150   C.ar      1 RES1   0.0000
    24 H8      -0.7051   5.7762   4.7811   H         1 RES1   0.0000
    25 C3      -0.5678   4.2169   3.5363   C.ar      1 RES1   0.0000
    26 H9      -1.4663   4.1844   3.2989   H         1 RES1   0.0000
    27 C4       0.3348   3.3118   3.0020   C.ar      1 RES1   0.0000
    28 H10      0.0466   2.6665   2.3984   H         1 RES1   0.0000
    29 C5       1.6818   3.3750   3.3758   C.ar      1 RES1   0.0000
    30 C6       2.6867   2.4409   2.8275   C.ar      1 RES1   0.0000
    31 C7       2.3634   1.4701   1.8780   C.ar      1 RES1   0.0000
    32 H11      1.4836   1.3777   1.5911   H         1 RES1   0.0000
    33 C8       3.3328   0.6590   1.3734   C.ar      1 RES1   0.0000
    34 H12      3.1177   0.0113   0.7421   H         1 RES1   0.0000
    35 C9       4.6239   0.8036   1.8006   C.ar      1 RES1   0.0000
    36 H13      5.2993   0.2563   1.4703   H         1 RES1   0.0000
    37 C10      4.9012   1.7858   2.7382   C.ar      1 RES1   0.0000
    38 H14      5.7800   1.8932   3.0198   H         1 RES1   0.0000
    39 C11      7.0121   1.7568   5.4046   C.1       1 RES1   0.0000
    40 C12      7.6009  -0.0282   7.3386   C.1       1 RES1   0.0000
    41 C13      9.6753   0.8058   5.6288   C.1       1 RES1   0.0000
    42 C14      8.1526   0.1078   3.4823   C.1       1 RES1   0.0000
    43 C15      6.1226  -0.7182   5.1723   C.1       1 RES1   0.0000
    44 C16      3.4806   7.8447   5.3854   C.1       1 RES1   0.0000
    45 Fe1      2.7574   9.6521   5.4078   Fe        1 RES1   0.0000
    46 C16      8.6161  -1.7769   5.3854   C.3       1 RES1   0.0000
    47 N9       8.2228   5.0134   7.5775   N.ar      2 RES2   0.0000
    48 N10      6.3941   6.9265   8.1547   N.ar      2 RES2   0.0000
    49 C17      9.0644   3.9630   7.5120   C.ar      2 RES2   0.0000
    50 H15      8.7510   3.1762   7.1261   H         2 RES2   0.0000
    51 C18     10.3486   3.9826   7.9748   C.ar      2 RES2   0.0000
    52 H16     10.8865   3.2261   7.9256   H         2 RES2   0.0000
    53 C19     10.8234   5.1469   8.5133   C.ar      2 RES2   0.0000
    54 H17     11.7061   5.2066   8.8003   H         2 RES2   0.0000
    55 C20      9.9769   6.2370   8.6281   C.ar      2 RES2   0.0000
    56 H18     10.2755   7.0301   9.0100   H         2 RES2   0.0000
    57 C21      8.6706   6.1255   8.1599   C.ar      2 RES2   0.0000
    58 C22      7.6945   7.2396   8.2968   C.ar      2 RES2   0.0000
    59 C23      8.0975   8.5494   8.5519   C.ar      2 RES2   0.0000
    60 H19      9.0006   8.7597   8.6162   H         2 RES2   0.0000
    61 C24      7.1333   9.5354   8.7092   C.ar      2 RES2   0.0000
    62 H20      7.3851  10.4097   8.9012   H         2 RES2   0.0000
    63 C25      5.8114   9.2100   8.5814   C.ar      2 RES2   0.0000
    64 H21      5.1488   9.8544   8.6815   H         2 RES2   0.0000
    65 C26      5.4892   7.8991   8.3008   C.ar      2 RES2   0.0000
    66 H22      4.5901   7.6787   8.2086   H         2 RES2   0.0000
    67 O5       5.1558   2.1867   8.5871   O.3       3 RES3   0.0000
    68 H23      5.0023   2.1001   9.1941   H         3 RES3   0.0000
    69 O6       6.9582   8.2686   4.7739   O.3       4 RES4   0.0000
    70 H24      7.7546   8.3706   4.8088   H         4 RES4   0.0000
    71 H25      6.5898   8.7900   5.1056   H         4 RES4   0.0000
    72 O7       5.9422   7.6386   2.3140   O.3       5 RES5   0.0000
    73 O8       8.4365   9.0642  19.3756   O.3       6 RES6   0.0000
    74 O9       4.9295   8.7180   0.2968   O.3       7 RES7   0.0000
    75 N11      4.7621   5.1303  18.4760   N.ar      8 RES8   0.0000
    76 C27      5.8442   4.3898  18.0101   C.ar      8 RES8   0.0000
    77 H26      5.7317   3.7864  17.3096   H         8 RES8   0.0000
    78 C28      7.0752   4.5535  18.5840   C.ar      8 RES8   0.0000
    79 H27      7.8176   4.0904  18.2714   H         8 RES8   0.0000
    80 C29      7.1771   5.4389  19.6526   C.ar      8 RES8   0.0000
    81 H28      8.0082   5.5375  20.0583   H         8 RES8   0.0000
    82 C30      6.1766   6.1447  20.1284   C.ar      8 RES8   0.0000
    83 H29      6.2963   6.7037  20.8618   H         8 RES8   0.0000
    84 C31      4.9833   6.0400  19.5349   C.ar      8 RES8   0.0000
    85 N11A     4.1087   7.8160  21.1024   N.ar      8 RES8   0.0000
    86 C27A     3.0267   8.5566  21.5682   C.ar      8 RES8   0.0000
    87 H26A     3.1392   9.1600  22.2688   H         8 RES8   0.0000
    88 C28A     1.7957   8.3929  20.9944   C.ar      8 RES8   0.0000
    89 H27A     1.0532   8.8560  21.3070   H         8 RES8   0.0000
    90 C29A     1.6938   7.5074  19.9257   C.ar      8 RES8   0.0000
    91 H28A     0.8627   7.4089  19.5201   H         8 RES8   0.0000
    92 C30A     2.6943   6.8016  19.4500   C.ar      8 RES8   0.0000
    93 H29A     2.5746   6.2426  18.7166   H         8 RES8   0.0000
    94 C31A     3.8875   6.9063  20.0435   C.ar      8 RES8   0.0000
@<TRIPOS>BOND
     1     1     3    1
     2     2    39    1
     3     3     4    1
     4     5     3    1
     5     6     1    1
     6     7     6    1
     7     8     6    1
     8     9     1    1
     9    10     9    1
    10    11     9    1
    11    12     1    1
    12    13     1    1
    13    14     1    1
    14    15     1    1
    15    16    40    3
    16    17    41    3
    17    18    42    3
    18    19    43    3
    19    20     1    1
    20    21    13   ar
    21    22    21    1
    22    23    21   ar
    23    24    23    1
    24    25    23   ar
    25    26    25    1
    26    27    25   ar
    27    28    27    1
    28    29    13   ar
    29    30    14   ar
    30    31    30   ar
    31    32    31    1
    32    33    31   ar
    33    34    33    1
    34    35    33   ar
    35    36    35    1
    36    37    14   ar
    37    38    37    1
    38    39    15    3
    39    40     2    1
    40    41     2    1
    41    42     2    1
    42    43     2    1
    43    44    20    3
    44    45    44   un
    45    46     2   un
    46    27    29   ar
    47    29    30    1
    48    35    37   ar
    49    47    49   ar
    50    48    58   ar
    51    49    50    1
    52    51    49   ar
    53    52    51    1
    54    53    51   ar
    55    54    53    1
    56    55    53   ar
    57    56    55    1
    58    57    47   ar
    59    58    57    1
    60    59    58   ar
    61    60    59    1
    62    61    59   ar
    63    62    61    1
    64    63    61   ar
    65    64    63    1
    66    65    48   ar
    67    66    65    1
    68    55    57   ar
    69    63    65   ar
    70    67    68    1
    71    69    70    1
    72    71    69    1
    73    75    76   ar
    74    76    77    1
    75    78    76   ar
    76    79    78    1
    77    80    78   ar
    78    81    80    1
    79    82    80   ar
    80    83    82    1
    81    84    75   ar
    82    85    86   ar
    83    86    87    1
    84    88    86   ar
    85    89    88    1
    86    90    88   ar
    87    91    90    1
    88    92    90   ar
    89    93    92    1
    90    94    84    1
    91    82    84   ar
    92    85    94   ar
    93    92    94   ar
@<TRIPOS>SUBSTRUCTURE
     1 RES1        1 GROUP             0 ****  ****    0  
     2 RES2       47 GROUP             0 ****  ****    0  
     3 RES3       67 GROUP             0 ****  ****    0  
     4 RES4       69 GROUP             0 ****  ****    0  
     5 RES5       72 GROUP             0 ****  ****    0  
     6 RES6       73 GROUP             0 ****  ****    0  
     7 RES7       74 GROUP             0 ****  ****    0  
     8 RES8       75 GROUP             0 ****  ****    0  
@<TRIPOS>CRYSIN
    9.7631   10.6766   19.9719   83.0470   83.9020   64.3140     2     1
