@<TRIPOS>MOLECULE
NAXTIR
   128   134    10     0     0
SMALL
USER_CHARGES
****
Generated from the CSD

@<TRIPOS>ATOM
     1 Fe1      3.7160   5.8747  11.5930   Fe        1 RES1   2.0000
     2 N1       2.6511   7.4408  11.0419   N.ar      1 RES1   0.0000
     3 N2       4.9576   6.5537  10.2086   N.ar      1 RES1   0.0000
     4 N3       2.9086   4.6763  10.2713   N.ar      1 RES1   0.0000
     5 N4       4.8900   4.3082  11.9077   N.ar      1 RES1   0.0000
     6 N5       2.4383   5.3567  13.0033   N.ar      1 RES1   0.0000
     7 N6       4.4708   6.9499  13.0451   N.ar      1 RES1   0.0000
     8 C1       5.5785   7.7034  13.0451   C.ar      1 RES1   0.0000
     9 H1       6.1300   7.7164  12.2977   H         1 RES1   0.0000
    10 C2       5.9081   8.4721  14.1709   C.ar      1 RES1   0.0000
    11 H2       6.6791   8.9909  14.1500   H         1 RES1   0.0000
    12 C3       5.1393   8.4828  15.2897   C.ar      1 RES1   0.0000
    13 H3       5.3784   9.0103  16.0186   H         1 RES1   0.0000
    14 C4       3.9725   7.6905  15.3408   C.ar      1 RES1   0.0000
    15 C5       3.7181   6.9284  14.1755   C.ar      1 RES1   0.0000
    16 C6       2.6000   6.0327  14.1546   C.ar      1 RES1   0.0000
    17 C7       3.0903   7.5764  16.4248   C.ar      1 RES1   0.0000
    18 H4       3.2414   8.0910  17.1838   H         1 RES1   0.0000
    19 C8       2.0347   6.7475  16.3992   C.ar      1 RES1   0.0000
    20 H5       1.4682   6.7001  17.1351   H         1 RES1   0.0000
    21 C9       1.7723   5.9272  15.2363   C.ar      1 RES1   0.0000
    22 C10      0.7110   5.0380  15.1736   C.ar      1 RES1   0.0000
    23 H6       0.1271   4.9433  15.8932   H         1 RES1   0.0000
    24 C11      0.5434   4.3060  14.0363   C.ar      1 RES1   0.0000
    25 H7      -0.1532   3.6924  13.9713   H         1 RES1   0.0000
    26 C12      1.4267   4.4825  12.9639   C.ar      1 RES1   0.0000
    27 H8       1.3058   3.9723  12.1956   H         1 RES1   0.0000
    28 C13      1.5330   7.8994  11.5131   C.ar      1 RES1   0.0000
    29 H9       1.1229   7.4235  12.1979   H         1 RES1   0.0000
    30 C14      0.9079   9.0534  11.0582   C.ar      1 RES1   0.0000
    31 H10      0.1129   9.3440  11.4435   H         1 RES1   0.0000
    32 C15      1.4681   9.7488  10.0531   C.ar      1 RES1   0.0000
    33 H11      1.0567  10.5196   9.7351   H         1 RES1   0.0000
    34 C16      2.6697   9.3117   9.4867   C.ar      1 RES1   0.0000
    35 C17      3.2193   8.1577  10.0531   C.ar      1 RES1   0.0000
    36 C18      3.3538   9.9662   8.4329   C.ar      1 RES1   0.0000
    37 H12      2.9808  10.7198   8.0383   H         1 RES1   0.0000
    38 C19      4.5343   9.5055   8.0012   C.ar      1 RES1   0.0000
    39 H13      4.9641   9.9619   7.3141   H         1 RES1   0.0000
    40 C20      5.1766   8.3170   8.5582   C.ar      1 RES1   0.0000
    41 C21      4.4798   7.6776   9.5889   C.ar      1 RES1   0.0000
    42 C22      6.3826   7.7659   8.1172   C.ar      1 RES1   0.0000
    43 H14      6.8553   8.1426   7.4093   H         1 RES1   0.0000
    44 C23      1.8385   4.8443   9.5053   C.ar      1 RES1   0.0000
    45 H15      1.3685   5.6452   9.5587   H         1 RES1   0.0000
    46 C24      1.3868   3.8560   8.6116   C.ar      1 RES1   0.0000
    47 H16      0.6240   4.0003   8.1010   H         1 RES1   0.0000
    48 C25      2.0642   2.6956   8.5025   C.ar      1 RES1   0.0000
    49 H17      1.7843   2.0432   7.9013   H         1 RES1   0.0000
    50 C26      3.2071   2.4781   9.3103   C.ar      1 RES1   0.0000
    51 C27      3.5443   3.4943  10.1761   C.ar      1 RES1   0.0000
    52 C28      4.6652   3.3070  11.0210   C.ar      1 RES1   0.0000
    53 C29      5.4501   2.1659  10.9468   C.ar      1 RES1   0.0000
    54 C30      6.5373   2.0820  11.8334   C.ar      1 RES1   0.0000
    55 H18      7.0999   1.3435  11.8126   H         1 RES1   0.0000
    56 C31      6.7588   3.0702  12.7039   C.ar      1 RES1   0.0000
    57 H19      7.4843   3.0142  13.2842   H         1 RES1   0.0000
    58 C32      5.9032   4.2156  12.7642   C.ar      1 RES1   0.0000
    59 H20      6.0523   4.8852  13.3933   H         1 RES1   0.0000
    60 C33      4.0176   1.3069   9.2244   C.ar      1 RES1   0.0000
    61 H21      3.7932   0.6287   8.6302   H         1 RES1   0.0000
    62 C34      5.0681   1.1928   9.9742   C.ar      1 RES1   0.0000
    63 H22      5.5996   0.4371   9.8744   H         1 RES1   0.0000
    64 C59      6.1138   6.0693   9.7560   C.ar      1 RES1   0.0000
    65 H37      6.4463   5.2899  10.1390   H         1 RES1   0.0000
    66 C60      6.8348   6.6614   8.7579   C.ar      1 RES1   0.0000
    67 H38      7.6561   6.2997   8.5141   H         1 RES1   0.0000
    68 S1       8.8433   4.4705   1.5369   S.3       2 RES2   0.0000
    69 S2       9.7803   4.1245  -0.2402   S.3       2 RES2   0.0000
    70 O1       7.5446   3.5417   5.6103   O.co2     2 RES2   0.0000
    71 O2       7.5936   4.9541   3.9112   O.co2     2 RES2  -1.0000
    72 O3      10.7685   3.8345  -2.6624   O.co2     2 RES2   0.0000
    73 O4      10.3864   2.2305  -4.1573   O.co2     2 RES2  -1.0000
    74 C35      9.9805   2.4716   4.8838   C.ar      2 RES2   0.0000
    75 H23      9.7099   2.3468   5.7658   H         2 RES2   0.0000
    76 C36      8.8994   0.7729  -2.2980   C.ar      2 RES2   0.0000
    77 H24      9.0784   0.3725  -3.1197   H         2 RES2   0.0000
    78 C37      8.0528   3.9917   4.5704   C.2       2 RES2   0.0000
    79 C38      9.2509   3.3092   4.0296   C.ar      2 RES2   0.0000
    80 C39     11.1055   1.8387   4.3987   C.ar      2 RES2   0.0000
    81 H25     11.6216   1.3004   4.9534   H         2 RES2   0.0000
    82 N7      10.7967   2.8011   2.2330   N.ar      2 RES2   0.0000
    83 C40      9.7030   3.4190   2.6972   C.ar      2 RES2   0.0000
    84 C41      9.1112   2.5319  -0.7497   C.ar      2 RES2   0.0000
    85 N8       8.3233   1.9614   0.1416   N.ar      2 RES2   0.0000
    86 C42      7.8206   0.7729  -0.2228   C.ar      2 RES2   0.0000
    87 H26      7.2393   0.3531   0.3691   H         2 RES2   0.0000
    88 C43      8.0964   0.1356  -1.3950   C.ar      2 RES2   0.0000
    89 H27      7.7496  -0.7083  -1.5738   H         2 RES2   0.0000
    90 C44      9.4440   1.9958  -2.0032   C.ar      2 RES2   0.0000
    91 C45     10.2624   2.7451  -3.0454   C.2       2 RES2   0.0000
    92 C46     11.4499   2.0131   3.0942   C.ar      2 RES2   0.0000
    93 H28     12.1926   1.5523   2.7761   H         2 RES2   0.0000
    94 S3       4.1741   9.1856   2.9788   S.3       3 RES3   0.0000
    95 S4       2.7222   9.6121   1.6181   S.3       3 RES3   0.0000
    96 O5       1.3313  10.1428  -0.5757   O.2       3 RES3   0.0000
    97 O6       1.1123  12.1580  -1.5181   O.3       3 RES3   0.0000
    98 H29      0.7305  11.7317  -2.1053   H         3 RES3   0.0000
    99 O7       6.1859   7.7788   4.4938   O.2       3 RES3   0.0000
   100 O8       5.4016   5.7550   4.7956   O.3       3 RES3   0.0000
   101 H30      6.1338   5.5289   4.5054   H         3 RES3   0.0000
   102 C47      3.1876   6.9068   6.1813   C.ar      3 RES3   0.0000
   103 H31      3.5488   6.2114   6.6827   H         3 RES3   0.0000
   104 C48      1.6567  13.4153   0.8588   C.ar      3 RES3   0.0000
   105 H32      1.2555  13.9041   0.1764   H         3 RES3   0.0000
   106 C49      5.3079   7.0425   4.7677   C.2       3 RES3   0.0000
   107 C50      3.9239   7.4774   5.1043   C.ar      3 RES3   0.0000
   108 C51      1.9508   7.3934   6.4645   C.ar      3 RES3   0.0000
   109 H33      1.4480   7.0360   7.1609   H         3 RES3   0.0000
   110 C52      1.4548   8.4355   5.6916   C.ar      3 RES3   0.0000
   111 H34      0.6186   8.7799   5.9121   H         3 RES3   0.0000
   112 N9       2.0938   8.9737   4.6610   N.ar      3 RES3   0.0000
   113 C53      3.3341   8.5065   4.3824   C.ar      3 RES3   0.0000
   114 C54      2.4661  11.3786   1.7455   C.ar      3 RES3   0.0000
   115 N10      2.8907  11.9793   2.8736   N.ar      3 RES3   0.0000
   116 C55      2.7088  13.2883   2.9502   C.ar      3 RES3   0.0000
   117 H35      3.0323  13.7254   3.7046   H         3 RES3   0.0000
   118 C56      2.0663  14.0548   1.9846   C.ar      3 RES3   0.0000
   119 H36      1.9248  14.9655   2.1030   H         3 RES3   0.0000
   120 C57      1.8226  12.0697   0.7103   C.ar      3 RES3   0.0000
   121 C58      1.4029  11.3571  -0.5130   C.2       3 RES3   0.0000
   122 O9      11.4209  10.5088   3.6536   O.3       4 RES4   0.0000
   123 O10      9.6475  10.3990   5.7078   O.3       5 RES5   0.0000
   124 O11      6.9272  10.2849   5.2946   O.3       6 RES6   0.0000
   125 O12      6.9270   0.9861   6.4158   O.3       7 RES7   0.0000
   126 O13     10.4555   5.2490   6.7384   O.3       8 RES8   0.0000
   127 O14      9.3685   7.1609   4.7422   O.3       9 RES9   0.0000
   128 O15      5.3701   3.9464   7.4348   O.3      10 RES10   0.0000
@<TRIPOS>BOND
     1     1     2    1
     2     2    28   ar
     3     3     1    1
     4     4     1    1
     5     5     1    1
     6     6     1    1
     7     7     1    1
     8     8     7   ar
     9     9     8    1
    10    10     8   ar
    11    11    10    1
    12    12    10   ar
    13    13    12    1
    14    14    12   ar
    15    15     7   ar
    16    16     6   ar
    17    17    14   ar
    18    18    17    1
    19    19    17   ar
    20    20    19    1
    21    21    16   ar
    22    22    21   ar
    23    23    22    1
    24    24    22   ar
    25    25    24    1
    26    26     6   ar
    27    27    26    1
    28    28    29    1
    29    30    28   ar
    30    31    30    1
    31    32    30   ar
    32    33    32    1
    33    34    32   ar
    34    35     2   ar
    35    36    34   ar
    36    37    36    1
    37    38    36   ar
    38    39    38    1
    39    40    38   ar
    40    41     3   ar
    41    42    40   ar
    42    43    42    1
    43    44     4   ar
    44    45    44    1
    45    46    44   ar
    46    47    46    1
    47    48    46   ar
    48    49    48    1
    49    50    48   ar
    50    51     4   ar
    51    52     5   ar
    52    53    52   ar
    53    54    53   ar
    54    55    54    1
    55    56    54   ar
    56    57    56    1
    57    58     5   ar
    58    59    58    1
    59    60    50   ar
    60    61    60    1
    61    62    53   ar
    62    63    62    1
    63    64     3   ar
    64    65    64    1
    65    66    42   ar
    66    67    66    1
    67    14    15   ar
    68    15    16   ar
    69    19    21   ar
    70    24    26   ar
    71    34    35   ar
    72    35    41   ar
    73    40    41   ar
    74    50    51   ar
    75    51    52   ar
    76    56    58   ar
    77    60    62   ar
    78    64    66   ar
    79    68    69    1
    80    69    84    1
    81    70    78    2
    82    71    78    1
    83    72    91    2
    84    73    91    1
    85    74    75    1
    86    76    77    1
    87    78    79    1
    88    79    74   ar
    89    80    74   ar
    90    81    80    1
    91    82    83   ar
    92    83    68    1
    93    84    85   ar
    94    85    86   ar
    95    86    87    1
    96    88    76   ar
    97    89    88    1
    98    90    76   ar
    99    91    90    1
   100    92    80   ar
   101    93    92    1
   102    79    83   ar
   103    82    92   ar
   104    84    90   ar
   105    86    88   ar
   106    94    95    1
   107    95   114    1
   108    96   121    2
   109    97    98    1
   110    99   106    2
   111   100   101    1
   112   102   103    1
   113   104   105    1
   114   106   100    1
   115   107   102   ar
   116   108   102   ar
   117   109   108    1
   118   110   108   ar
   119   111   110    1
   120   112   110   ar
   121   113    94    1
   122   114   115   ar
   123   115   116   ar
   124   116   117    1
   125   118   104   ar
   126   119   118    1
   127   120   104   ar
   128   121    97    1
   129   106   107    1
   130   107   113   ar
   131   112   113   ar
   132   114   120   ar
   133   116   118   ar
   134   120   121    1
@<TRIPOS>SUBSTRUCTURE
     1 RES1        1 GROUP             0 ****  ****    0  
     2 RES2       68 GROUP             0 ****  ****    0  
     3 RES3       94 GROUP             0 ****  ****    0  
     4 RES4      122 GROUP             0 ****  ****    0  
     5 RES5      123 GROUP             0 ****  ****    0  
     6 RES6      124 GROUP             0 ****  ****    0  
     7 RES7      125 GROUP             0 ****  ****    0  
     8 RES8      126 GROUP             0 ****  ****    0  
     9 RES9      127 GROUP             0 ****  ****    0  
    10 RES10     128 GROUP             0 ****  ****    0  
@<TRIPOS>CRYSIN
   11.5750   21.5300   23.2120   90.0000   90.1300   90.0000    14     1
