@<TRIPOS>MOLECULE
NECLEO
   276   296     6     0     0
SMALL
NO_CHARGES
****
Generated from the CSD

@<TRIPOS>ATOM
     1 Fe1      7.5585   4.0208  12.7644   Fe        1 RES1   0.0000
     2 Al1      4.8368   3.1057  15.0814   Al        1 RES1   0.0000
     3 Al2     10.2101   5.5103  10.7246   Al        1 RES1   0.0000
     4 O1       6.6597   3.1943  15.4377   O.3       1 RES1   0.0000
     5 O2      10.3798   4.1665  11.9684   O.3       1 RES1   0.0000
     6 O3       4.8226   3.1141  13.2449   O.3       1 RES1   0.0000
     7 O4       8.3831   5.4624  10.3534   O.3       1 RES1   0.0000
     8 O5       4.5298   4.9203  15.0977   O.3       1 RES1   0.0000
     9 O6       5.0087   1.2557  15.0980   O.3       1 RES1   0.0000
    10 O7       4.5789   8.8035  19.9559   O.2       1 RES1   0.0000
    11 O8       4.3622  10.1825  18.3175   O.2       1 RES1   0.0000
    12 O9       2.6837  -4.2173  13.2827   O.2       1 RES1   0.0000
    13 O10      0.9811  -2.9619  12.8654   O.2       1 RES1   0.0000
    14 O11     10.4339   4.2970   9.3488   O.3       1 RES1   0.0000
    15 O12     10.1018   6.7435  12.0846   O.3       1 RES1   0.0000
    16 O13     15.6425   1.4135   7.5684   O.2       1 RES1   0.0000
    17 O14     14.2448   0.6081   6.1596   O.2       1 RES1   0.0000
    18 O15      8.9608  12.6063  13.7296   O.2       1 RES1   0.0000
    19 O16      8.5676  12.7500  11.6133   O.2       1 RES1   0.0000
    20 N1       7.6619   3.2978  14.5395   N.2       1 RES1   0.0000
    21 N2       9.4813   3.8987  12.9460   N.2       1 RES1   0.0000
    22 N3       5.6668   3.8335  12.4573   N.2       1 RES1   0.0000
    23 N4       7.4340   4.7719  10.9989   N.2       1 RES1   0.0000
    24 N5       4.5677   3.1105  17.1678   N.3       1 RES1   0.0000
    25 N6       2.7330   2.7681  15.0282   N.3       1 RES1   0.0000
    26 N7       4.4563   9.0298  18.7690   N.pl3     1 RES1   0.0000
    27 N8       2.1476  -3.1081  13.2951   N.pl3     1 RES1   0.0000
    28 N9      12.3409   5.7489  10.7242   N.3       1 RES1   0.0000
    29 N10     10.2989   7.1341   9.3480   N.3       1 RES1   0.0000
    30 N11     14.4945   1.3378   7.1185   N.pl3     1 RES1   0.0000
    31 N12      8.8758  12.0860  12.6125   N.pl3     1 RES1   0.0000
    32 N13      7.7306   2.1916  11.9562   N.ar      1 RES1   0.0000
    33 N14      7.3545   5.8724  13.5403   N.ar      1 RES1   0.0000
    34 C1       8.8487   2.9454  14.9475   C.2       1 RES1   0.0000
    35 C2       9.8876   3.2324  14.0011   C.2       1 RES1   0.0000
    36 C3       9.1446   2.3030  16.2663   C.ar      1 RES1   0.0000
    37 C4       9.7564   1.0619  16.3098   C.ar      1 RES1   0.0000
    38 H1       9.9503   0.6162  15.4937   H         1 RES1   0.0000
    39 C5      10.0963   0.4486  17.4921   C.ar      1 RES1   0.0000
    40 H2      10.4938  -0.4135  17.4998   H         1 RES1   0.0000
    41 C6       9.8378   1.1378  18.6930   C.ar      1 RES1   0.0000
    42 H3      10.0724   0.7378  19.5230   H         1 RES1   0.0000
    43 C7       9.2488   2.3784  18.6805   C.ar      1 RES1   0.0000
    44 H4       9.0860   2.8351  19.4967   H         1 RES1   0.0000
    45 C8       8.8906   2.9730  17.4626   C.ar      1 RES1   0.0000
    46 H5       8.4779   3.8270  17.4517   H         1 RES1   0.0000
    47 C9      11.3317   2.8595  14.1904   C.ar      1 RES1   0.0000
    48 C10     12.0237   3.3027  15.3168   C.ar      1 RES1   0.0000
    49 H6      11.5951   3.8649  15.9514   H         1 RES1   0.0000
    50 C11     13.3261   2.9216  15.5014   C.ar      1 RES1   0.0000
    51 H7      13.8074   3.2487  16.2539   H         1 RES1   0.0000
    52 C12     13.9390   2.0892  14.6326   C.ar      1 RES1   0.0000
    53 H8      14.8249   1.7919  14.8048   H         1 RES1   0.0000
    54 C13     13.2782   1.6649  13.4829   C.ar      1 RES1   0.0000
    55 H9      13.7283   1.1243  12.8436   H         1 RES1   0.0000
    56 C14     11.9399   2.0449  13.2812   C.ar      1 RES1   0.0000
    57 H10     11.4634   1.7378  12.5178   H         1 RES1   0.0000
    58 C15      3.0782   3.1349  17.4579   C.3       1 RES1   0.0000
    59 H11      2.7725   4.0730  17.3028   H         1 RES1   0.0000
    60 C16      2.6863   2.7803  18.8714   C.3       1 RES1   0.0000
    61 H12      3.0837   1.9054  19.1072   H         1 RES1   0.0000
    62 H13      3.0550   3.4595  19.4889   H         1 RES1   0.0000
    63 C17      1.1923   2.7068  19.0576   C.3       1 RES1   0.0000
    64 H14      0.9840   2.4351  19.9869   H         1 RES1   0.0000
    65 H15      0.7925   3.6000  18.9009   H         1 RES1   0.0000
    66 C18      0.6081   1.7176  18.1003   C.3       1 RES1   0.0000
    67 H16     -0.3687   1.6405  18.2523   H         1 RES1   0.0000
    68 H17      1.0151   0.8270  18.2492   H         1 RES1   0.0000
    69 C19      0.8712   2.1722  16.6697   C.3       1 RES1   0.0000
    70 H18      0.4573   3.0595  16.5239   H         1 RES1   0.0000
    71 H19      0.4573   1.5324  16.0383   H         1 RES1   0.0000
    72 C20      2.3715   2.2589  16.3951   C.3       1 RES1   0.0000
    73 H20      2.7438   1.3351  16.4758   H         1 RES1   0.0000
    74 C21      5.2536   4.2738  17.7915   C.3       1 RES1   0.0000
    75 H21      6.2201   4.2081  17.5883   H         1 RES1   0.0000
    76 H22      5.1523   4.2027  18.7736   H         1 RES1   0.0000
    77 C22      4.7740   5.6279  17.3648   C.ar      1 RES1   0.0000
    78 C23      4.7604   6.6646  18.2647   C.ar      1 RES1   0.0000
    79 H23      4.9847   6.5108  19.1755   H         1 RES1   0.0000
    80 C24      4.4149   7.9411  17.8334   C.ar      1 RES1   0.0000
    81 C25      3.9885   8.1684  16.5208   C.ar      1 RES1   0.0000
    82 H24      3.7254   9.0406  16.2508   H         1 RES1   0.0000
    83 C26      3.9492   7.1292  15.6163   C.ar      1 RES1   0.0000
    84 C27      4.4484   5.8508  16.0088   C.ar      1 RES1   0.0000
    85 C28      3.4213   7.3427  14.2183   C.3       1 RES1   0.0000
    86 H25      2.4732   7.0919  14.1842   H         1 RES1   0.0000
    87 H26      3.9289   6.7865  13.5884   H         1 RES1   0.0000
    88 H27      3.5195   8.2865  13.9716   H         1 RES1   0.0000
    89 C29      5.2134   1.9043  17.7775   C.3       1 RES1   0.0000
    90 H28      6.1244   1.8081  17.4269   H         1 RES1   0.0000
    91 H29      4.6902   1.1054  17.5541   H         1 RES1   0.0000
    92 H30      5.2481   2.0081  18.7519   H         1 RES1   0.0000
    93 C30      2.4136   1.7681  13.9654   C.3       1 RES1   0.0000
    94 H31      1.4293   1.6784  13.9142   H         1 RES1   0.0000
    95 H32      2.7222   2.1324  13.0981   H         1 RES1   0.0000
    96 C31      2.9803   0.4357  14.1221   C.ar      1 RES1   0.0000
    97 C32      2.2841  -0.6838  13.6892   C.ar      1 RES1   0.0000
    98 H33      1.4006  -0.5892  13.3557   H         1 RES1   0.0000
    99 C33      2.8683  -1.9405  13.7373   C.ar      1 RES1   0.0000
   100 C34      4.1611  -2.1346  14.2199   C.ar      1 RES1   0.0000
   101 H34      4.5538  -3.0000  14.2152   H         1 RES1   0.0000
   102 C35      4.8602  -1.0568  14.7039   C.ar      1 RES1   0.0000
   103 C36      4.3096   0.2524  14.6465   C.ar      1 RES1   0.0000
   104 C37      6.2309  -1.2143  15.3308   C.3       1 RES1   0.0000
   105 H35      6.1603  -1.1108  16.3020   H         1 RES1   0.0000
   106 H36      6.8354  -0.5324  14.9724   H         1 RES1   0.0000
   107 H37      6.5841  -2.1054  15.1229   H         1 RES1   0.0000
   108 C38      1.9819   3.9908  14.6496   C.3       1 RES1   0.0000
   109 H38      2.3535   4.3595  13.8211   H         1 RES1   0.0000
   110 H39      2.0590   4.6568  15.3665   H         1 RES1   0.0000
   111 H40      1.0391   3.7649  14.5147   H         1 RES1   0.0000
   112 C39      5.2385   4.1362  11.2626   C.2       1 RES1   0.0000
   113 C40      6.2513   4.7476  10.4558   C.2       1 RES1   0.0000
   114 C41      3.8834   3.7330  10.8313   C.ar      1 RES1   0.0000
   115 C42      2.7845   4.5535  10.9896   C.ar      1 RES1   0.0000
   116 H41      2.9090   5.4568  11.2564   H         1 RES1   0.0000
   117 C43      1.4916   4.0730  10.7615   C.ar      1 RES1   0.0000
   118 H42      0.7446   4.6433  10.8872   H         1 RES1   0.0000
   119 C44      1.3001   2.7784  10.3565   C.ar      1 RES1   0.0000
   120 H43      0.4190   2.4568  10.2122   H         1 RES1   0.0000
   121 C45      2.3798   1.9405  10.1579   C.ar      1 RES1   0.0000
   122 H44      2.2458   1.0514   9.8554   H         1 RES1   0.0000
   123 C46      3.6775   2.4170  10.4046   C.ar      1 RES1   0.0000
   124 H45      4.4197   1.8405  10.2821   H         1 RES1   0.0000
   125 C47      5.9783   5.4703   9.1851   C.ar      1 RES1   0.0000
   126 C48      6.5003   5.0379   7.9935   C.ar      1 RES1   0.0000
   127 H46      6.9791   4.2162   7.9641   H         1 RES1   0.0000
   128 C49      6.3422   5.7811   6.8175   C.ar      1 RES1   0.0000
   129 H47      6.6918   5.4649   5.9936   H         1 RES1   0.0000
   130 C50      5.6671   6.9757   6.8826   C.ar      1 RES1   0.0000
   131 H48      5.5761   7.4973   6.0929   H         1 RES1   0.0000
   132 C51      5.1116   7.4514   8.0680   C.ar      1 RES1   0.0000
   133 H49      4.6352   8.2730   8.0990   H         1 RES1   0.0000
   134 C52      5.2840   6.6676   9.2115   C.ar      1 RES1   0.0000
   135 H50      4.9129   6.9649  10.0338   H         1 RES1   0.0000
   136 C53     12.7084   6.6273   9.5854   C.3       1 RES1   0.0000
   137 H51     12.6653   6.0676   8.7584   H         1 RES1   0.0000
   138 C54     14.1243   7.1876   9.6707   C.3       1 RES1   0.0000
   139 H52     14.7746   6.4406   9.6863   H         1 RES1   0.0000
   140 H53     14.2263   7.6973  10.5132   H         1 RES1   0.0000
   141 C55     14.4346   8.1157   8.4652   C.3       1 RES1   0.0000
   142 H54     15.3420   8.5000   8.5583   H         1 RES1   0.0000
   143 H55     14.4011   7.5973   7.6212   H         1 RES1   0.0000
   144 C56     13.4243   9.2014   8.4326   C.3       1 RES1   0.0000
   145 H56     13.6230   9.8108   7.6786   H         1 RES1   0.0000
   146 H57     13.4793   9.7244   9.2705   H         1 RES1   0.0000
   147 C57     12.0189   8.6484   8.2728   C.3       1 RES1   0.0000
   148 H58     11.3725   9.3973   8.2371   H         1 RES1   0.0000
   149 H59     11.9542   8.1460   7.4241   H         1 RES1   0.0000
   150 C58     11.6717   7.7343   9.4318   C.3       1 RES1   0.0000
   151 H60     11.7028   8.2865  10.2634   H         1 RES1   0.0000
   152 C59     13.0134   4.4051  10.6265   C.3       1 RES1   0.0000
   153 H61     13.9917   4.5406  10.6932   H         1 RES1   0.0000
   154 H62     12.7347   3.8595  11.4038   H         1 RES1   0.0000
   155 C60     12.7300   3.6289   9.3837   C.ar      1 RES1   0.0000
   156 C61     13.7379   2.9262   8.7771   C.ar      1 RES1   0.0000
   157 H63     14.6310   2.9973   9.0905   H         1 RES1   0.0000
   158 C62     13.4339   2.1135   7.7003   C.ar      1 RES1   0.0000
   159 C63     12.1865   2.0243   7.1542   C.ar      1 RES1   0.0000
   160 H64     12.0165   1.4487   6.4172   H         1 RES1   0.0000
   161 C64     11.1761   2.8000   7.7065   C.ar      1 RES1   0.0000
   162 C65     11.4132   3.6095   8.8469   C.ar      1 RES1   0.0000
   163 C66      9.7396   2.7792   7.1433   C.3       1 RES1   0.0000
   164 H65      9.6941   2.1568   6.3877   H         1 RES1   0.0000
   165 H66      9.4930   3.6784   6.8392   H         1 RES1   0.0000
   166 H67      9.1171   2.4892   7.8430   H         1 RES1   0.0000
   167 C67     12.8135   6.2865  12.0446   C.3       1 RES1   0.0000
   168 H68     12.3780   5.7946  12.7723   H         1 RES1   0.0000
   169 H69     12.5863   7.2379  12.1098   H         1 RES1   0.0000
   170 H70     13.7858   6.1784  12.1129   H         1 RES1   0.0000
   171 C68      9.2727   8.1479   9.7064   C.3       1 RES1   0.0000
   172 H71      8.3845   7.7108   9.6661   H         1 RES1   0.0000
   173 H72      9.2847   8.8541   9.0113   H         1 RES1   0.0000
   174 C69      9.4020   8.8108  11.0423   C.ar      1 RES1   0.0000
   175 C70      9.1123  10.1292  11.2207   C.ar      1 RES1   0.0000
   176 H73      8.8346  10.6541  10.4791   H         1 RES1   0.0000
   177 C71      9.2153  10.7000  12.4542   C.ar      1 RES1   0.0000
   178 C72      9.6920  10.0216  13.5527   C.ar      1 RES1   0.0000
   179 H74      9.7803  10.4703  14.3874   H         1 RES1   0.0000
   180 C73     10.0461   8.6838  13.4379   C.ar      1 RES1   0.0000
   181 C74      9.8617   8.0189  12.1780   C.ar      1 RES1   0.0000
   182 C75     10.6755   7.9130  14.5519   C.3       1 RES1   0.0000
   183 H75     11.6502   7.9703  14.4790   H         1 RES1   0.0000
   184 H76     10.4004   6.9730  14.4976   H         1 RES1   0.0000
   185 H77     10.3884   8.2892  15.4114   H         1 RES1   0.0000
   186 C76      9.9644   6.6995   7.9687   C.3       1 RES1   0.0000
   187 H78      9.1195   6.2027   7.9780   H         1 RES1   0.0000
   188 H79     10.6781   6.1216   7.6258   H         1 RES1   0.0000
   189 H80      9.8761   7.4865   7.3915   H         1 RES1   0.0000
   190 C77      7.0923   1.1308  12.4868   C.ar      1 RES1   0.0000
   191 H81      6.5577   1.2595  13.2610   H         1 RES1   0.0000
   192 C78      7.1898  -0.1751  11.9298   C.ar      1 RES1   0.0000
   193 H82      6.7181  -0.9000  12.3270   H         1 RES1   0.0000
   194 C79      7.9607  -0.3816  10.8282   C.ar      1 RES1   0.0000
   195 H83      8.0397  -1.2459  10.4434   H         1 RES1   0.0000
   196 C80      8.6215   0.6973  10.2836   C.ar      1 RES1   0.0000
   197 H84      9.1770   0.5811   9.5218   H         1 RES1   0.0000
   198 C81      8.4645   1.9849  10.8639   C.ar      1 RES1   0.0000
   199 H85      8.8992   2.7243  10.4574   H         1 RES1   0.0000
   200 C82      7.7333   6.2011  14.8017   C.ar      1 RES1   0.0000
   201 H86      8.1834   5.5352  15.3106   H         1 RES1   0.0000
   202 C83      7.5226   7.4243  15.4037   C.ar      1 RES1   0.0000
   203 H87      7.7907   7.5811  16.3005   H         1 RES1   0.0000
   204 C84      6.8977   8.4298  14.6527   C.ar      1 RES1   0.0000
   205 H88      6.7301   9.2865  15.0236   H         1 RES1   0.0000
   206 C85      6.5362   8.1243  13.3541   C.ar      1 RES1   0.0000
   207 H89      6.1315   8.7919  12.8111   H         1 RES1   0.0000
   208 C86      6.7636   6.8546  12.8343   C.ar      1 RES1   0.0000
   209 H90      6.4883   6.6730  11.9438   H         1 RES1   0.0000
   210 O17     10.9247   5.9784   4.5336   O.3       2 RES2   0.0000
   211 C87     13.4410   5.1730   5.2070   C.3       2 RES2   0.0000
   212 H91     14.3341   4.9568   4.8718   H         2 RES2   0.0000
   213 H92     13.0867   4.4081   5.7081   H         2 RES2   0.0000
   214 H93     13.4937   5.9541   5.7966   H         2 RES2   0.0000
   215 C88     12.3948   5.5243   3.8773   C.3       2 RES2   0.0000
   216 H94     12.7683   6.2568   3.3281   H         2 RES2   0.0000
   217 H95     12.2846   4.7243   3.3032   H         2 RES2   0.0000
   218 C89     10.3717   6.2297   3.0674   C.3       2 RES2   0.0000
   219 H96     10.4794   5.4568   2.4561   H         2 RES2   0.0000
   220 H97     10.6901   7.0676   2.6500   H         2 RES2   0.0000
   221 C90      8.8921   6.3406   3.7516   C.3       2 RES2   0.0000
   222 H98      8.2241   6.5325   3.0596   H         2 RES2   0.0000
   223 H99      8.8921   7.0622   4.4126   H         2 RES2   0.0000
   224 H100     8.6718   5.4946   4.1923   H         2 RES2   0.0000
   225 O18      3.1077  23.9379   8.5366   O.3       3 RES3   0.0000
   226 C91      4.4556  24.1055   8.1409   C.3       3 RES3   0.0000
   227 H101     4.5226  24.7730   7.4133   H         3 RES3   0.0000
   228 H102     4.8291  23.2460   7.8167   H         3 RES3   0.0000
   229 C92      5.2050  24.5784   9.3589   C.3       3 RES3   0.0000
   230 H103     6.0214  24.0379   9.5047   H         3 RES3   0.0000
   231 H104     5.4636  25.5298   9.2689   H         3 RES3   0.0000
   232 C93      4.2784  24.4001  10.4201   C.3       3 RES3   0.0000
   233 H105     4.6352  23.7352  11.0594   H         3 RES3   0.0000
   234 H106     4.1659  25.2568  10.9042   H         3 RES3   0.0000
   235 C94      3.0574  23.9757   9.9531   C.3       3 RES3   0.0000
   236 H107     2.3463  24.5974  10.2495   H         3 RES3   0.0000
   237 H108     2.8539  23.0730  10.3084   H         3 RES3   0.0000
   238 O19      0.0000  27.0271   8.2682   O.3       4 RES4   0.0000
   239 C95      0.9625  26.4920   7.3745   C.3       4 RES4   0.0000
   240 H109     1.8364  26.9217   7.5529   H         4 RES4   0.0000
   241 H110     1.0630  25.5244   7.5529   H         4 RES4   0.0000
   242 C96      0.6728  26.6541   6.1658   C.3       4 RES4   0.0000
   243 H111     0.5890  25.7812   5.7066   H         4 RES4   0.0000
   244 H112     1.3695  27.1866   5.7066   H         4 RES4   0.0000
   245 C95A    -0.9625  27.5622   7.3745   C.3       4 RES4   0.0000
   246 H109A   -1.8364  27.1325   7.5529   H         4 RES4   0.0000
   247 H110A   -1.0630  28.5298   7.5529   H         4 RES4   0.0000
   248 C96A    -0.6728  27.4001   6.1658   C.3       4 RES4   0.0000
   249 H111A   -0.5890  28.2730   5.7066   H         4 RES4   0.0000
   250 H112A   -1.3695  26.8676   5.7066   H         4 RES4   0.0000
   251 O20      5.2218   2.6030   5.7252   O.3       5 RES5   0.0000
   252 C97      4.2353   1.8946   6.5940   C.3       5 RES5   0.0000
   253 H113     3.9600   2.4892   7.3341   H         5 RES5   0.0000
   254 H114     3.4309   1.6703   6.0634   H         5 RES5   0.0000
   255 C98      4.7908   0.7135   7.1231   C.3       5 RES5   0.0000
   256 H115     4.6878  -0.0541   6.5056   H         5 RES5   0.0000
   257 H116     4.4029   0.4838   8.0059   H         5 RES5   0.0000
   258 C99      6.1914   1.1487   7.2317   C.3       5 RES5   0.0000
   259 H117     6.7995   0.3703   7.2860   H         5 RES5   0.0000
   260 H118     6.3231   1.7162   8.0323   H         5 RES5   0.0000
   261 C100     6.4404   1.9487   5.9471   C.3       5 RES5   0.0000
   262 H119     7.1754   2.6000   6.0712   H         5 RES5   0.0000
   263 H120     6.6655   1.3487   5.1930   H         5 RES5   0.0000
   264 O21      3.9768   9.7919  11.2704   O.3       6 RES6   0.0000
   265 C101     5.1164  10.1892  10.6265   C.3       6 RES6   0.0000
   266 H121     4.9488  10.1487   9.6521   H         6 RES6   0.0000
   267 H122     5.8275   9.5298  10.8297   H         6 RES6   0.0000
   268 C102     5.6407  11.5595  10.9539   C.3       6 RES6   0.0000
   269 H123     6.5984  11.5081  11.1944   H         6 RES6   0.0000
   270 H124     5.5450  12.1541  10.1703   H         6 RES6   0.0000
   271 C103     4.9440  12.0325  11.9686   C.3       6 RES6   0.0000
   272 H125     4.5657  12.9217  11.7545   H         6 RES6   0.0000
   273 H126     5.5067  12.1081  12.7785   H         6 RES6   0.0000
   274 C104     3.8187  10.9838  12.1718   C.3       6 RES6   0.0000
   275 H127     3.8259  10.6811  13.1136   H         6 RES6   0.0000
   276 H128     2.9449  11.4108  11.9950   H         6 RES6   0.0000
@<TRIPOS>BOND
     1     1    20    1
     2     2     4    1
     3     3     5    1
     4     4    20    1
     5     5    21    1
     6     6     2    1
     7     7     3    1
     8     8     2    1
     9     9     2    1
    10    10    26    2
    11    11    26    2
    12    12    27    2
    13    13    27    2
    14    14     3    1
    15    15     3    1
    16    16    30    2
    17    17    30    2
    18    18    31    2
    19    19    31    2
    20    20    34    2
    21    21     1    1
    22    22     1    1
    23    23     1    1
    24    24     2    1
    25    25     2    1
    26    26    80    1
    27    27    99    1
    28    28     3    1
    29    29     3    1
    30    30   158    1
    31    31   177    1
    32    32     1    1
    33    33     1    1
    34    34    35    1
    35    35    21    2
    36    36    34    1
    37    37    36   ar
    38    38    37    1
    39    39    37   ar
    40    40    39    1
    41    41    39   ar
    42    42    41    1
    43    43    41   ar
    44    44    43    1
    45    45    36   ar
    46    46    45    1
    47    47    35    1
    48    48    47   ar
    49    49    48    1
    50    50    48   ar
    51    51    50    1
    52    52    50   ar
    53    53    52    1
    54    54    52   ar
    55    55    54    1
    56    56    47   ar
    57    57    56    1
    58    58    24    1
    59    59    58    1
    60    60    58    1
    61    61    60    1
    62    62    60    1
    63    63    60    1
    64    64    63    1
    65    65    63    1
    66    66    63    1
    67    67    66    1
    68    68    66    1
    69    69    66    1
    70    70    69    1
    71    71    69    1
    72    72    25    1
    73    73    72    1
    74    74    24    1
    75    75    74    1
    76    76    74    1
    77    77    74    1
    78    78    77   ar
    79    79    78    1
    80    80    78   ar
    81    81    80   ar
    82    82    81    1
    83    83    81   ar
    84    84     8    1
    85    85    83    1
    86    86    85    1
    87    87    85    1
    88    88    85    1
    89    89    24    1
    90    90    89    1
    91    91    89    1
    92    92    89    1
    93    93    25    1
    94    94    93    1
    95    95    93    1
    96    96    93    1
    97    97    96   ar
    98    98    97    1
    99    99    97   ar
   100   100    99   ar
   101   101   100    1
   102   102   100   ar
   103   103     9    1
   104   104   102    1
   105   105   104    1
   106   106   104    1
   107   107   104    1
   108   108    25    1
   109   109   108    1
   110   110   108    1
   111   111   108    1
   112   112    22    2
   113   113    23    2
   114   114   112    1
   115   115   114   ar
   116   116   115    1
   117   117   115   ar
   118   118   117    1
   119   119   117   ar
   120   120   119    1
   121   121   119   ar
   122   122   121    1
   123   123   114   ar
   124   124   123    1
   125   125   113    1
   126   126   125   ar
   127   127   126    1
   128   128   126   ar
   129   129   128    1
   130   130   128   ar
   131   131   130    1
   132   132   130   ar
   133   133   132    1
   134   134   125   ar
   135   135   134    1
   136   136    28    1
   137   137   136    1
   138   138   136    1
   139   139   138    1
   140   140   138    1
   141   141   138    1
   142   142   141    1
   143   143   141    1
   144   144   141    1
   145   145   144    1
   146   146   144    1
   147   147   144    1
   148   148   147    1
   149   149   147    1
   150   150    29    1
   151   151   150    1
   152   152    28    1
   153   153   152    1
   154   154   152    1
   155   155   152    1
   156   156   155   ar
   157   157   156    1
   158   158   156   ar
   159   159   158   ar
   160   160   159    1
   161   161   159   ar
   162   162    14    1
   163   163   161    1
   164   164   163    1
   165   165   163    1
   166   166   163    1
   167   167    28    1
   168   168   167    1
   169   169   167    1
   170   170   167    1
   171   171    29    1
   172   172   171    1
   173   173   171    1
   174   174   171    1
   175   175   174   ar
   176   176   175    1
   177   177   175   ar
   178   178   177   ar
   179   179   178    1
   180   180   178   ar
   181   181    15    1
   182   182   180    1
   183   183   182    1
   184   184   182    1
   185   185   182    1
   186   186    29    1
   187   187   186    1
   188   188   186    1
   189   189   186    1
   190   190    32   ar
   191   191   190    1
   192   192   190   ar
   193   193   192    1
   194   194   192   ar
   195   195   194    1
   196   196   194   ar
   197   197   196    1
   198   198    32   ar
   199   199   198    1
   200   200    33   ar
   201   201   200    1
   202   202   200   ar
   203   203   202    1
   204   204   202   ar
   205   205   204    1
   206   206   204   ar
   207   207   206    1
   208   208    33   ar
   209   209   208    1
   210     6    22    1
   211     7    23    1
   212    43    45   ar
   213    54    56   ar
   214    58    72    1
   215    69    72    1
   216    77    84   ar
   217    83    84   ar
   218    96   103   ar
   219   102   103   ar
   220   112   113    1
   221   121   123   ar
   222   132   134   ar
   223   136   150    1
   224   147   150    1
   225   155   162   ar
   226   161   162   ar
   227   174   181   ar
   228   180   181   ar
   229   196   198   ar
   230   206   208   ar
   231   210   215    1
   232   211   212    1
   233   213   211    1
   234   214   211    1
   235   215   211    1
   236   216   215    1
   237   217   215    1
   238   218   210    1
   239   219   218    1
   240   220   218    1
   241   221   218    1
   242   222   221    1
   243   223   221    1
   244   224   221    1
   245   225   226    1
   246   226   227    1
   247   228   226    1
   248   229   226    1
   249   230   229    1
   250   231   229    1
   251   232   229    1
   252   233   232    1
   253   234   232    1
   254   235   225    1
   255   236   235    1
   256   237   235    1
   257   232   235    1
   258   238   239    1
   259   239   240    1
   260   241   239    1
   261   242   239    1
   262   243   242    1
   263   244   242    1
   264   245   238    1
   265   246   245    1
   266   247   245    1
   267   248   242    1
   268   249   248    1
   269   250   248    1
   270   245   248    1
   271   251   252    1
   272   252   253    1
   273   254   252    1
   274   255   252    1
   275   256   255    1
   276   257   255    1
   277   258   255    1
   278   259   258    1
   279   260   258    1
   280   261   251    1
   281   262   261    1
   282   263   261    1
   283   258   261    1
   284   264   265    1
   285   265   266    1
   286   267   265    1
   287   268   265    1
   288   269   268    1
   289   270   268    1
   290   271   268    1
   291   272   271    1
   292   273   271    1
   293   274   264    1
   294   275   274    1
   295   276   274    1
   296   271   274    1
@<TRIPOS>SUBSTRUCTURE
     1 RES1        1 GROUP             0 ****  ****    0  
     2 RES2      210 GROUP             0 ****  ****    0  
     3 RES3      225 GROUP             0 ****  ****    0  
     4 RES4      238 GROUP             0 ****  ****    0  
     5 RES5      251 GROUP             0 ****  ****    0  
     6 RES6      264 GROUP             0 ****  ****    0  
@<TRIPOS>CRYSIN
   23.9420   27.0271   15.5154   90.0000   90.0000   90.0000    18     1
