@<TRIPOS>MOLECULE
NEFVID01
   104   108     2     0     0
SMALL
USER_CHARGES
****
Generated from the CSD

@<TRIPOS>ATOM
     1 Fe1      0.0000   0.0000   0.0000   Fe        1 RES1   2.0000
     2 N1       1.3991   1.0998  -1.2669   N.ar      1 RES1   0.0000
     3 N2       2.0456   0.5408  -2.3395   N.ar      1 RES1   0.0000
     4 N3       2.6035   1.4796  -3.0591   N.ar      1 RES1   0.0000
     5 N4       2.3218   2.6524  -2.4466   N.ar      1 RES1   0.0000
     6 C1       1.5849   2.3957  -1.3684   C.ar      1 RES1   0.0000
     7 C2       2.7758   3.9321  -3.0204   C.3       1 RES1   0.0000
     8 C3       1.9036   4.3676  -4.1693   C.3       1 RES1   0.0000
     9 C4       2.3686   5.7044  -4.7497   C.3       1 RES1   0.0000
    10 N5      -1.6366   0.6565  -1.3132   N.ar      1 RES1   0.0000
    11 N6      -1.5130   1.6681  -2.2160   N.ar      1 RES1   0.0000
    12 N7      -2.5899   1.7650  -2.9266   N.ar      1 RES1   0.0000
    13 N8      -3.4346   0.8019  -2.4940   N.ar      1 RES1   0.0000
    14 C5      -2.8457   0.1380  -1.5108   C.ar      1 RES1   0.0000
    15 C6      -4.7769   0.6144  -3.1043   C.3       1 RES1   0.0000
    16 C7      -4.7824  -0.4635  -4.1626   C.3       1 RES1   0.0000
    17 C8      -3.8107  -0.2146  -5.3015   C.3       1 RES1   0.0000
    18 N9       0.2895  -1.7843  -1.2161   N.ar      1 RES1   0.0000
    19 N10     -0.6269  -2.1969  -2.1442   N.ar      1 RES1   0.0000
    20 N11     -0.1538  -3.1988  -2.8207   N.ar      1 RES1   0.0000
    21 N12      1.0834  -3.4447  -2.3351   N.ar      1 RES1   0.0000
    22 C9       1.3306  -2.5838  -1.3585   C.ar      1 RES1   0.0000
    23 C10      1.9021  -4.5466  -2.8913   C.3       1 RES1   0.0000
    24 C11      2.3374  -4.2279  -4.3138   C.3       1 RES1   0.0000
    25 C12      3.2154  -3.0126  -4.4319   C.3       1 RES1   0.0000
    26 H1       1.2545   3.0330  -0.7791   H         1 RES1   0.0000
    27 H2       3.6900   3.8397  -3.3305   H         1 RES1   0.0000
    28 H3       2.7636   4.6142  -2.3307   H         1 RES1   0.0000
    29 H4       0.9867   4.4511  -3.8625   H         1 RES1   0.0000
    30 H5       1.9241   3.6916  -4.8645   H         1 RES1   0.0000
    31 H6       3.2573   5.6102  -5.0996   H         1 RES1   0.0000
    32 H7       2.3669   6.3704  -4.0589   H         1 RES1   0.0000
    33 H8       1.7737   5.9707  -5.4538   H         1 RES1   0.0000
    34 H9      -3.2151  -0.5720  -1.0373   H         1 RES1   0.0000
    35 H10     -5.0635   1.4507  -3.5016   H         1 RES1   0.0000
    36 H11     -5.4122   0.3812  -2.4091   H         1 RES1   0.0000
    37 H12     -5.6776  -0.5393  -4.5268   H         1 RES1   0.0000
    38 H13     -4.5633  -1.3106  -3.7444   H         1 RES1   0.0000
    39 H14     -3.9630   0.6584  -5.6679   H         1 RES1   0.0000
    40 H15     -3.9432  -0.8750  -5.9846   H         1 RES1   0.0000
    41 H16     -2.9101  -0.2699  -4.9726   H         1 RES1   0.0000
    42 H17      2.1115  -2.5470  -0.8553   H         1 RES1   0.0000
    43 H18      1.3855  -5.3682  -2.8869   H         1 RES1   0.0000
    44 H19      2.6856  -4.6803  -2.3362   H         1 RES1   0.0000
    45 H20      2.8135  -4.9914  -4.6725   H         1 RES1   0.0000
    46 H21      1.5455  -4.0950  -4.8590   H         1 RES1   0.0000
    47 H22      3.4584  -2.8818  -5.3512   H         1 RES1   0.0000
    48 H23      4.0085  -3.1381  -3.9055   H         1 RES1   0.0000
    49 H24      2.7400  -2.2433  -4.1141   H         1 RES1   0.0000
    50 N1A     -1.3991  -1.0998   1.2669   N.ar      1 RES1   0.0000
    51 N2A     -2.0456  -0.5408   2.3395   N.ar      1 RES1   0.0000
    52 N3A     -2.6035  -1.4796   3.0591   N.ar      1 RES1   0.0000
    53 N4A     -2.3218  -2.6524   2.4466   N.ar      1 RES1   0.0000
    54 C1A     -1.5849  -2.3957   1.3684   C.ar      1 RES1   0.0000
    55 H1A     -1.2545  -3.0330   0.7791   H         1 RES1   0.0000
    56 C2A     -2.7758  -3.9321   3.0204   C.3       1 RES1   0.0000
    57 C3A     -1.9036  -4.3676   4.1693   C.3       1 RES1   0.0000
    58 C4A     -2.3686  -5.7044   4.7497   C.3       1 RES1   0.0000
    59 H6A     -3.2573  -5.6102   5.0996   H         1 RES1   0.0000
    60 H7A     -2.3669  -6.3704   4.0589   H         1 RES1   0.0000
    61 H8A     -1.7737  -5.9707   5.4538   H         1 RES1   0.0000
    62 H4A     -0.9867  -4.4511   3.8625   H         1 RES1   0.0000
    63 H5A     -1.9241  -3.6916   4.8645   H         1 RES1   0.0000
    64 H2A     -3.6900  -3.8397   3.3305   H         1 RES1   0.0000
    65 H3A     -2.7636  -4.6142   2.3307   H         1 RES1   0.0000
    66 N5A      1.6366  -0.6565   1.3132   N.ar      1 RES1   0.0000
    67 N6A      1.5130  -1.6681   2.2160   N.ar      1 RES1   0.0000
    68 N7A      2.5899  -1.7650   2.9266   N.ar      1 RES1   0.0000
    69 N8A      3.4346  -0.8019   2.4940   N.ar      1 RES1   0.0000
    70 C5A      2.8457  -0.1380   1.5108   C.ar      1 RES1   0.0000
    71 H9A      3.2151   0.5720   1.0373   H         1 RES1   0.0000
    72 C6A      4.7769  -0.6144   3.1043   C.3       1 RES1   0.0000
    73 C7A      4.7824   0.4635   4.1626   C.3       1 RES1   0.0000
    74 C8A      3.8107   0.2146   5.3015   C.3       1 RES1   0.0000
    75 H14A     3.9630  -0.6584   5.6679   H         1 RES1   0.0000
    76 H15A     3.9432   0.8750   5.9846   H         1 RES1   0.0000
    77 H16A     2.9101   0.2699   4.9726   H         1 RES1   0.0000
    78 H12A     5.6776   0.5393   4.5268   H         1 RES1   0.0000
    79 H13A     4.5633   1.3106   3.7444   H         1 RES1   0.0000
    80 H10A     5.0635  -1.4507   3.5016   H         1 RES1   0.0000
    81 H11A     5.4122  -0.3812   2.4091   H         1 RES1   0.0000
    82 N9A     -0.2895   1.7843   1.2161   N.ar      1 RES1   0.0000
    83 N10A     0.6269   2.1969   2.1442   N.ar      1 RES1   0.0000
    84 N11A     0.1538   3.1988   2.8207   N.ar      1 RES1   0.0000
    85 N12A    -1.0834   3.4447   2.3351   N.ar      1 RES1   0.0000
    86 C9A     -1.3306   2.5838   1.3585   C.ar      1 RES1   0.0000
    87 H17A    -2.1115   2.5470   0.8553   H         1 RES1   0.0000
    88 C10A    -1.9021   4.5466   2.8913   C.3       1 RES1   0.0000
    89 C11A    -2.3374   4.2279   4.3138   C.3       1 RES1   0.0000
    90 C12A    -3.2154   3.0126   4.4319   C.3       1 RES1   0.0000
    91 H22A    -3.4584   2.8818   5.3512   H         1 RES1   0.0000
    92 H23A    -4.0085   3.1381   3.9055   H         1 RES1   0.0000
    93 H24A    -2.7400   2.2433   4.1141   H         1 RES1   0.0000
    94 H20A    -2.8135   4.9914   4.6725   H         1 RES1   0.0000
    95 H21A    -1.5455   4.0950   4.8590   H         1 RES1   0.0000
    96 H18A    -1.3855   5.3682   2.8869   H         1 RES1   0.0000
    97 H19A    -2.6856   4.6803   2.3362   H         1 RES1   0.0000
    98 P1      -5.2175  -3.1945  -0.4238   P.3       2 RES2  -1.0000
    99 F1      -4.5497  -4.4106   0.3576   F         2 RES2   0.0000
   100 F2      -5.9029  -2.0205  -1.2338   F         2 RES2   0.0000
   101 F3      -5.5632  -4.2054  -1.5924   F         2 RES2   0.0000
   102 F4      -6.6288  -3.4890   0.2251   F         2 RES2   0.0000
   103 F5      -3.8151  -2.9148  -1.1025   F         2 RES2   0.0000
   104 F6      -4.8470  -2.2138   0.7217   F         2 RES2   0.0000
@<TRIPOS>BOND
     1     1     2    1
     2     2     3   ar
     3     3     4   ar
     4     4     5   ar
     5     5     6   ar
     6     6     2   ar
     7     7     5    1
     8     8     7    1
     9     9     8    1
    10    10     1    1
    11    11    10   ar
    12    12    11   ar
    13    13    12   ar
    14    14    10   ar
    15    15    13    1
    16    16    15    1
    17    17    16    1
    18    18     1    1
    19    19    18   ar
    20    20    19   ar
    21    21    20   ar
    22    22    18   ar
    23    23    21    1
    24    24    23    1
    25    25    24    1
    26    26     6    1
    27    27     7    1
    28    28     7    1
    29    29     8    1
    30    30     8    1
    31    31     9    1
    32    32     9    1
    33    33     9    1
    34    34    14    1
    35    35    15    1
    36    36    15    1
    37    37    16    1
    38    38    16    1
    39    39    17    1
    40    40    17    1
    41    41    17    1
    42    42    22    1
    43    43    23    1
    44    44    23    1
    45    45    24    1
    46    46    24    1
    47    47    25    1
    48    48    25    1
    49    49    25    1
    50    50     1    1
    51    51    50   ar
    52    52    51   ar
    53    53    52   ar
    54    54    50   ar
    55    55    54    1
    56    56    53    1
    57    57    56    1
    58    58    57    1
    59    59    58    1
    60    60    58    1
    61    61    58    1
    62    62    57    1
    63    63    57    1
    64    64    56    1
    65    65    56    1
    66    66     1    1
    67    67    66   ar
    68    68    67   ar
    69    69    68   ar
    70    70    66   ar
    71    71    70    1
    72    72    69    1
    73    73    72    1
    74    74    73    1
    75    75    74    1
    76    76    74    1
    77    77    74    1
    78    78    73    1
    79    79    73    1
    80    80    72    1
    81    81    72    1
    82    82     1    1
    83    83    82   ar
    84    84    83   ar
    85    85    84   ar
    86    86    82   ar
    87    87    86    1
    88    88    85    1
    89    89    88    1
    90    90    89    1
    91    91    90    1
    92    92    90    1
    93    93    90    1
    94    94    89    1
    95    95    89    1
    96    96    88    1
    97    97    88    1
    98    13    14   ar
    99    21    22   ar
   100    53    54   ar
   101    69    70   ar
   102    85    86   ar
   103    98    99    1
   104   100    98    1
   105   101    98    1
   106   102    98    1
   107   103    98    1
   108   104    98    1
@<TRIPOS>SUBSTRUCTURE
     1 RES1        1 GROUP             0 ****  ****    0  
     2 RES2       98 GROUP             0 ****  ****    0  
@<TRIPOS>CRYSIN
   10.6439   10.8685   11.7014   75.6440   71.6710   60.7370     2     1
