@<TRIPOS>MOLECULE
NEKLEX
   105   114     1     0     0
SMALL
NO_CHARGES
****
Generated from the CSD

@<TRIPOS>ATOM
     1 Fe1      0.4245   4.9892   7.6072   Fe        1 RES1   0.0000
     2 P1       0.2917   7.1735   8.0169   P.3       1 RES1   0.0000
     3 N1       1.2118   4.9892   9.4238   N.2       1 RES1   0.0000
     4 N2       2.2290   4.9892   6.8356   N.ar      1 RES1   0.0000
     5 N3      -0.0612   4.9892   5.7456   N.ar      1 RES1   0.0000
     6 C1       3.4231   4.9892   7.5014   C.ar      1 RES1   0.0000
     7 H1       3.4152   4.9892   8.4512   H         1 RES1   0.0000
     8 C2       0.9607   4.9892   4.8421   C.ar      1 RES1   0.0000
     9 C3       2.2809   4.9892   5.4719   C.ar      1 RES1   0.0000
    10 C4       1.6863   6.0879  10.0830   C.2       1 RES1   0.0000
    11 C5      -1.2970   7.9203   8.6340   C.3       1 RES1   0.0000
    12 H2      -1.1695   8.9088   8.7117   H         1 RES1   0.0000
    13 C6       0.9899   8.3727   6.7712   C.3       1 RES1   0.0000
    14 H3       1.8748   7.9907   6.5079   H         1 RES1   0.0000
    15 C7      -1.3142   4.9892   5.2209   C.ar      1 RES1   0.0000
    16 H4      -2.0502   4.9892   5.8204   H         1 RES1   0.0000
    17 C8       1.4719   7.4182   9.4295   C.3       1 RES1   0.0000
    18 H5       2.3332   7.7772   9.0962   H         1 RES1   0.0000
    19 H6       1.0952   8.0606  10.0811   H         1 RES1   0.0000
    20 C9      -2.9851   7.9203  10.5423   C.3       1 RES1   0.0000
    21 H7      -3.1930   7.5178  11.4230   H         1 RES1   0.0000
    22 H8      -2.9123   8.9008  10.6625   H         1 RES1   0.0000
    23 C10      0.7626   4.9892   3.4566   C.ar      1 RES1   0.0000
    24 H9       1.5032   4.9892   2.8619   H         1 RES1   0.0000
    25 C11     -1.6418   7.3653  10.0318   C.3       1 RES1   0.0000
    26 H10     -1.6901   6.3782   9.9892   H         1 RES1   0.0000
    27 H11     -0.9227   7.6096  10.6682   H         1 RES1   0.0000
    28 C12     -2.4564   7.6585   7.6718   C.3       1 RES1   0.0000
    29 H12     -2.5274   6.6836   7.5127   H         1 RES1   0.0000
    30 H13     -2.2565   8.0905   6.8034   H         1 RES1   0.0000
    31 C13      2.4566   5.6973  11.1588   C.2       1 RES1   0.0000
    32 H14      2.8996   6.2665  11.7772   H         1 RES1   0.0000
    33 C14     -4.1128   7.6122   9.5659   C.3       1 RES1   0.0000
    34 H15     -4.2336   6.6317   9.4996   H         1 RES1   0.0000
    35 H16     -4.9571   8.0027   9.9040   H         1 RES1   0.0000
    36 C15     -3.8086   8.1789   8.1870   C.3       1 RES1   0.0000
    37 H17     -3.7866   9.1682   8.2344   H         1 RES1   0.0000
    38 H18     -4.5254   7.9169   7.5563   H         1 RES1   0.0000
    39 C16      2.1280  10.5696   6.2873   C.3       1 RES1   0.0000
    40 H19      2.3041  11.4772   6.6405   H         1 RES1   0.0000
    41 H20      2.9993  10.1201   6.1471   H         1 RES1   0.0000
    42 C17      0.2071   8.5040   5.4643   C.3       1 RES1   0.0000
    43 H21     -0.6531   8.9626   5.6386   H         1 RES1   0.0000
    44 H22      0.0085   7.6036   5.1054   H         1 RES1   0.0000
    45 C18     -0.5178   4.9892   2.9737   C.ar      1 RES1   0.0000
    46 H23     -0.6807   4.9892   2.0370   H         1 RES1   0.0000
    47 C19     -1.5756   4.9892   3.8781   C.ar      1 RES1   0.0000
    48 H24     -2.4722   4.9892   3.5646   H         1 RES1   0.0000
    49 C20      1.3026   9.7739   7.3120   C.3       1 RES1   0.0000
    50 H25      1.8108   9.6971   8.1586   H         1 RES1   0.0000
    51 H26      0.4573  10.2539   7.5023   H         1 RES1   0.0000
    52 C21      1.3991  10.6783   4.9624   C.3       1 RES1   0.0000
    53 H27      1.9814  11.1340   4.3042   H         1 RES1   0.0000
    54 H28      0.5835  11.2258   5.0808   H         1 RES1   0.0000
    55 C22      4.6226   4.9892   6.8593   C.ar      1 RES1   0.0000
    56 H29      5.4303   4.9892   7.3584   H         1 RES1   0.0000
    57 C23      1.0129   9.3021   4.4302   C.3       1 RES1   0.0000
    58 H30      1.8335   8.7990   4.1953   H         1 RES1   0.0000
    59 H31      0.4746   9.4097   3.6063   H         1 RES1   0.0000
    60 C24      3.4726   4.9892   4.7834   C.ar      1 RES1   0.0000
    61 H32      3.4729   4.9892   3.8335   H         1 RES1   0.0000
    62 C25      4.6610   4.9892   5.4710   C.ar      1 RES1   0.0000
    63 H33      5.4895   4.9892   5.0079   H         1 RES1   0.0000
    64 H34     -0.9799   4.9892   8.0402   H         1 RES1   0.0000
    65 P1C      0.2917   2.8049   8.0169   P.3       1 RES1   0.0000
    66 C4C      1.6863   3.8906  10.0830   C.2       1 RES1   0.0000
    67 C5C     -1.2970   2.0582   8.6340   C.3       1 RES1   0.0000
    68 H2C     -1.1695   1.0697   8.7117   H         1 RES1   0.0000
    69 C6C      0.9899   1.6057   6.7712   C.3       1 RES1   0.0000
    70 H3C      1.8748   1.9877   6.5079   H         1 RES1   0.0000
    71 C8C      1.4719   2.5603   9.4295   C.3       1 RES1   0.0000
    72 H5C      2.3332   2.2012   9.0962   H         1 RES1   0.0000
    73 H6C      1.0952   1.9179  10.0811   H         1 RES1   0.0000
    74 C9C     -2.9851   2.0582  10.5423   C.3       1 RES1   0.0000
    75 H7C     -3.1930   2.4607  11.4230   H         1 RES1   0.0000
    76 H8C     -2.9123   1.0777  10.6625   H         1 RES1   0.0000
    77 C11C    -1.6418   2.6132  10.0318   C.3       1 RES1   0.0000
    78 H10C    -1.6901   3.6002   9.9892   H         1 RES1   0.0000
    79 H11C    -0.9227   2.3689  10.6682   H         1 RES1   0.0000
    80 C12C    -2.4564   2.3200   7.6718   C.3       1 RES1   0.0000
    81 H12C    -2.5274   3.2949   7.5127   H         1 RES1   0.0000
    82 H13C    -2.2565   1.8879   6.8034   H         1 RES1   0.0000
    83 C13C     2.4566   4.2812  11.1588   C.2       1 RES1   0.0000
    84 H14C     2.8996   3.7120  11.7772   H         1 RES1   0.0000
    85 C14C    -4.1128   2.3663   9.5659   C.3       1 RES1   0.0000
    86 H15C    -4.2336   3.3468   9.4996   H         1 RES1   0.0000
    87 H16C    -4.9571   1.9757   9.9040   H         1 RES1   0.0000
    88 C15C    -3.8086   1.7995   8.1870   C.3       1 RES1   0.0000
    89 H17C    -3.7866   0.8103   8.2344   H         1 RES1   0.0000
    90 H18C    -4.5254   2.0615   7.5563   H         1 RES1   0.0000
    91 C16C     2.1280  -0.5911   6.2873   C.3       1 RES1   0.0000
    92 H19C     2.3041  -1.4988   6.6405   H         1 RES1   0.0000
    93 H20C     2.9993  -0.1417   6.1471   H         1 RES1   0.0000
    94 C17C     0.2071   1.4744   5.4643   C.3       1 RES1   0.0000
    95 H21C    -0.6531   1.0158   5.6386   H         1 RES1   0.0000
    96 H22C     0.0085   2.3749   5.1054   H         1 RES1   0.0000
    97 C20C     1.3026   0.2046   7.3120   C.3       1 RES1   0.0000
    98 H25C     1.8108   0.2814   8.1586   H         1 RES1   0.0000
    99 H26C     0.4573  -0.2754   7.5023   H         1 RES1   0.0000
   100 C21C     1.3991  -0.6999   4.9624   C.3       1 RES1   0.0000
   101 H27C     1.9814  -1.1555   4.3042   H         1 RES1   0.0000
   102 H28C     0.5835  -1.2473   5.0808   H         1 RES1   0.0000
   103 C23C     1.0129   0.6763   4.4302   C.3       1 RES1   0.0000
   104 H30C     1.8335   1.1795   4.1953   H         1 RES1   0.0000
   105 H31C     0.4746   0.5688   3.6063   H         1 RES1   0.0000
@<TRIPOS>BOND
     1     1     2    1
     2     2    11    1
     3     3     1    1
     4     4     1    1
     5     5     1    1
     6     6     4   ar
     7     7     6    1
     8     8     5   ar
     9     9     4   ar
    10    10     3    1
    11    11    12    1
    12    13     2    1
    13    14    13    1
    14    15     5   ar
    15    16    15    1
    16    17     2    1
    17    18    17    1
    18    19    17    1
    19    20    21    1
    20    22    20    1
    21    23     8   ar
    22    24    23    1
    23    25    11    1
    24    26    25    1
    25    27    25    1
    26    28    11    1
    27    29    28    1
    28    30    28    1
    29    31    10    2
    30    32    31    1
    31    33    20    1
    32    34    33    1
    33    35    33    1
    34    36    28    1
    35    37    36    1
    36    38    36    1
    37    39    40    1
    38    41    39    1
    39    42    13    1
    40    43    42    1
    41    44    42    1
    42    45    23   ar
    43    46    45    1
    44    47    15   ar
    45    48    47    1
    46    49    13    1
    47    50    49    1
    48    51    49    1
    49    52    39    1
    50    53    52    1
    51    54    52    1
    52    55     6   ar
    53    56    55    1
    54    57    42    1
    55    58    57    1
    56    59    57    1
    57    60     9   ar
    58    61    60    1
    59    62    55   ar
    60    63    62    1
    61    64     1    1
    62    65     1    1
    63    66     3    1
    64    67    65    1
    65    68    67    1
    66    69    65    1
    67    70    69    1
    68    71    65    1
    69    72    71    1
    70    73    71    1
    71    74    75    1
    72    76    74    1
    73    77    67    1
    74    78    77    1
    75    79    77    1
    76    80    67    1
    77    81    80    1
    78    82    80    1
    79    83    31    1
    80    84    83    1
    81    85    74    1
    82    86    85    1
    83    87    85    1
    84    88    80    1
    85    89    88    1
    86    90    88    1
    87    91    92    1
    88    93    91    1
    89    94    69    1
    90    95    94    1
    91    96    94    1
    92    97    69    1
    93    98    97    1
    94    99    97    1
    95   100    91    1
    96   101   100    1
    97   102   100    1
    98   103    94    1
    99   104   103    1
   100   105   103    1
   101     8     9    1
   102    10    17    1
   103    20    25    1
   104    33    36    1
   105    39    49    1
   106    45    47   ar
   107    52    57    1
   108    60    62   ar
   109    66    71    1
   110    66    83    2
   111    74    77    1
   112    85    88    1
   113    91    97    1
   114   100   103    1
@<TRIPOS>SUBSTRUCTURE
     1 RES1        1 GROUP             0 ****  ****    0  
@<TRIPOS>CRYSIN
    9.6192   19.9569    9.8011   90.0000  104.9300   90.0000    11     1
