@<TRIPOS>MOLECULE
NETHUR
   123   127     4     0     0
SMALL
NO_CHARGES
****
Generated from the CSD

@<TRIPOS>ATOM
     1 Fe1      6.2420  11.0785   0.0000   Fe        1 RES1   0.0000
     2 S1       5.2767  14.4574   3.2897   S.2       1 RES1   0.0000
     3 N1       5.4756  12.2214   1.6142   N.2       1 RES1   0.0000
     4 N2       8.2316  11.0829   0.9253   N.ar      1 RES1   0.0000
     5 N3       6.0560   9.1203   1.0707   N.ar      1 RES1   0.0000
     6 N4       7.2602  10.1158   2.8296   N.pl3     1 RES1   0.0000
     7 N5       5.7253  10.0085   4.5402   N.ar      1 RES1   0.0000
     8 N6       7.3725  11.7366   4.4584   N.ar      1 RES1   0.0000
     9 N7       5.8267  11.6477   6.2872   N.ar      1 RES1   0.0000
    10 N8       4.2703   9.9423   6.3136   N.pl3     1 RES1   0.0000
    11 N9       5.3348   6.6799   6.4495   N.1       1 RES1   0.0000
    12 N10      5.3008   9.4123   9.5711   N.1       1 RES1   0.0000
    13 N11      7.4441  13.2949   6.1142   N.pl3     1 RES1   0.0000
    14 N12     10.7589  12.8087   5.3064   N.1       1 RES1   0.0000
    15 N13      5.7164  16.0809   7.1052   N.1       1 RES1   0.0000
    16 C1       5.3980  13.1526   2.3121   C.1       1 RES1   0.0000
    17 C2       5.5509   8.0171   0.4818   C.ar      1 RES1   0.0000
    18 H1       5.1260   8.1095  -0.3623   H         1 RES1   0.0000
    19 C3       5.6222   6.7603   1.0480   C.ar      1 RES1   0.0000
    20 H2       5.2552   6.0068   0.6007   H         1 RES1   0.0000
    21 C4       6.2398   6.6156   2.2831   C.ar      1 RES1   0.0000
    22 H3       6.2948   5.7630   2.6983   H         1 RES1   0.0000
    23 C5       6.7728   7.7301   2.8995   C.ar      1 RES1   0.0000
    24 H4       7.2049   7.6619   3.7430   H         1 RES1   0.0000
    25 C6       6.6602   8.9510   2.2520   C.ar      1 RES1   0.0000
    26 C7       8.4049  10.6766   2.1900   C.ar      1 RES1   0.0000
    27 C8       9.6196  10.7320   2.8454   C.ar      1 RES1   0.0000
    28 H5       9.7005  10.4315   3.7430   H         1 RES1   0.0000
    29 C9      10.7150  11.2356   2.1661   C.ar      1 RES1   0.0000
    30 H6      11.5587  11.3067   2.5966   H         1 RES1   0.0000
    31 C10     10.5612  11.6369   0.8416   C.ar      1 RES1   0.0000
    32 H7      11.3014  11.9714   0.3482   H         1 RES1   0.0000
    33 C11      9.3153  11.5383   0.2590   C.ar      1 RES1   0.0000
    34 H8       9.2145  11.8008  -0.6486   H         1 RES1   0.0000
    35 C12      6.7668  10.6444   4.0001   C.ar      1 RES1   0.0000
    36 C13      6.8488  12.1837   5.6019   C.ar      1 RES1   0.0000
    37 C14      5.3297  10.5529   5.6976   C.ar      1 RES1   0.0000
    38 C15      3.7780   8.6714   5.8010   C.3       1 RES1   0.0000
    39 H9       3.7057   8.7254   4.8146   H         1 RES1   0.0000
    40 H10      2.8723   8.5039   6.1644   H         1 RES1   0.0000
    41 C16      4.6599   7.5467   6.1598   C.1       1 RES1   0.0000
    42 C17      3.8387  10.3845   7.6296   C.3       1 RES1   0.0000
    43 H11      2.8958  10.1147   7.7677   H         1 RES1   0.0000
    44 H12      3.8777  11.3732   7.6660   H         1 RES1   0.0000
    45 C18      4.6621   9.8313   8.7224   C.1       1 RES1   0.0000
    46 C19      8.4303  14.0032   5.3109   C.3       1 RES1   0.0000
    47 H13      8.5412  14.9205   5.6654   H         1 RES1   0.0000
    48 H14      8.1009  14.0741   4.3799   H         1 RES1   0.0000
    49 C20      9.7368  13.3210   5.3126   C.1       1 RES1   0.0000
    50 C21      7.0574  13.8552   7.3930   C.3       1 RES1   0.0000
    51 H15      7.8700  14.0453   7.9254   H         1 RES1   0.0000
    52 H16      6.5153  13.1923   7.8892   H         1 RES1   0.0000
    53 C22      6.2815  15.0958   7.2346   C.1       1 RES1   0.0000
    54 S1B      7.2073   7.6996  -3.2897   S.2       1 RES1   0.0000
    55 N1B      7.0084   9.9356  -1.6142   N.2       1 RES1   0.0000
    56 N2B      4.2524  11.0741  -0.9253   N.ar      1 RES1   0.0000
    57 N3B      6.4280  13.0367  -1.0707   N.ar      1 RES1   0.0000
    58 N4B      5.2238  12.0412  -2.8296   N.pl3     1 RES1   0.0000
    59 N5B      6.7587  12.1485  -4.5402   N.ar      1 RES1   0.0000
    60 N6B      5.1115  10.4204  -4.4584   N.ar      1 RES1   0.0000
    61 N7B      6.6573  10.5093  -6.2872   N.ar      1 RES1   0.0000
    62 N8B      8.2137  12.2147  -6.3136   N.pl3     1 RES1   0.0000
    63 N9B      7.1492  15.4771  -6.4495   N.1       1 RES1   0.0000
    64 N10B     7.1832  12.7447  -9.5711   N.1       1 RES1   0.0000
    65 N11B     5.0399   8.8621  -6.1142   N.pl3     1 RES1   0.0000
    66 N12B     1.7251   9.3483  -5.3064   N.1       1 RES1   0.0000
    67 N13B     6.7676   6.0761  -7.1052   N.1       1 RES1   0.0000
    68 C1B      7.0860   9.0044  -2.3121   C.1       1 RES1   0.0000
    69 C2B      6.9331  14.1399  -0.4818   C.ar      1 RES1   0.0000
    70 H1B      7.3580  14.0475   0.3623   H         1 RES1   0.0000
    71 C3B      6.8618  15.3967  -1.0480   C.ar      1 RES1   0.0000
    72 H2B      7.2288  16.1502  -0.6007   H         1 RES1   0.0000
    73 C4B      6.2442  15.5414  -2.2831   C.ar      1 RES1   0.0000
    74 H3B      6.1892  16.3940  -2.6983   H         1 RES1   0.0000
    75 C5B      5.7112  14.4269  -2.8995   C.ar      1 RES1   0.0000
    76 H4B      5.2791  14.4951  -3.7430   H         1 RES1   0.0000
    77 C6B      5.8238  13.2060  -2.2520   C.ar      1 RES1   0.0000
    78 C7B      4.0791  11.4804  -2.1900   C.ar      1 RES1   0.0000
    79 C8B      2.8644  11.4250  -2.8454   C.ar      1 RES1   0.0000
    80 H5B      2.7835  11.7255  -3.7430   H         1 RES1   0.0000
    81 C9B      1.7690  10.9214  -2.1661   C.ar      1 RES1   0.0000
    82 H6B      0.9253  10.8503  -2.5966   H         1 RES1   0.0000
    83 C10B     1.9228  10.5201  -0.8416   C.ar      1 RES1   0.0000
    84 H7B      1.1826  10.1856  -0.3482   H         1 RES1   0.0000
    85 C11B     3.1687  10.6187  -0.2590   C.ar      1 RES1   0.0000
    86 H8B      3.2695  10.3562   0.6486   H         1 RES1   0.0000
    87 C12B     5.7172  11.5126  -4.0001   C.ar      1 RES1   0.0000
    88 C13B     5.6352   9.9733  -5.6019   C.ar      1 RES1   0.0000
    89 C14B     7.1543  11.6041  -5.6976   C.ar      1 RES1   0.0000
    90 C15B     8.7060  13.4856  -5.8010   C.3       1 RES1   0.0000
    91 H9B      8.7783  13.4316  -4.8146   H         1 RES1   0.0000
    92 H10B     9.6117  13.6531  -6.1644   H         1 RES1   0.0000
    93 C16B     7.8241  14.6103  -6.1598   C.1       1 RES1   0.0000
    94 C17B     8.6453  11.7725  -7.6296   C.3       1 RES1   0.0000
    95 H11B     9.5882  12.0423  -7.7677   H         1 RES1   0.0000
    96 H12B     8.6063  10.7838  -7.6660   H         1 RES1   0.0000
    97 C18B     7.8219  12.3257  -8.7224   C.1       1 RES1   0.0000
    98 C19B     4.0537   8.1538  -5.3109   C.3       1 RES1   0.0000
    99 H13B     3.9428   7.2365  -5.6654   H         1 RES1   0.0000
   100 H14B     4.3831   8.0829  -4.3799   H         1 RES1   0.0000
   101 C20B     2.7472   8.8360  -5.3126   C.1       1 RES1   0.0000
   102 C21B     5.4266   8.3018  -7.3930   C.3       1 RES1   0.0000
   103 H15B     4.6140   8.1117  -7.9254   H         1 RES1   0.0000
   104 H16B     5.9687   8.9647  -7.8892   H         1 RES1   0.0000
   105 C22B     6.2025   7.0612  -7.2346   C.1       1 RES1   0.0000
   106 N14      6.3341   5.1938  10.1785   N.1       2 RES2   0.0000
   107 C23      6.9080   5.9726   9.5884   C.1       2 RES2   0.0000
   108 C24      7.6659   6.9591   8.8369   C.3       2 RES2   0.0000
   109 H17      7.5905   6.7690   7.8787   H         2 RES2   0.0000
   110 H18      8.6080   6.9218   9.1046   H         2 RES2   0.0000
   111 H19      7.3096   7.8524   9.0216   H         2 RES2   0.0000
   112 N15      8.3929   3.7809   7.2652   N.1       3 RES3   0.0000
   113 C25      7.5106   3.6973   6.5477   C.1       3 RES3   0.0000
   114 C26      6.3835   3.5994   5.6712   C.3       3 RES3   0.0000
   115 H20      5.6780   4.2076   5.9774   H         3 RES3   0.0000
   116 H21      6.0453   2.6788   5.6759   H         3 RES3   0.0000
   117 H22      6.6538   3.8442   4.7620   H         3 RES3   0.0000
   118 N16      4.0584  13.3777   9.1665   N.1       4 RES4   0.0000
   119 C27      4.2098  14.4029   9.6407   C.1       4 RES4   0.0000
   120 C28      4.4054  15.7131  10.2288   C.3       4 RES4   0.0000
   121 H23      3.9340  15.7603  11.0865   H         4 RES4   0.0000
   122 H24      4.0519  16.3984   9.6246   H         4 RES4   0.0000
   123 H25      5.3620  15.8666  10.3725   H         4 RES4   0.0000
@<TRIPOS>BOND
     1     1     3    1
     2     2    16    2
     3     3    16    2
     4     4     1    1
     5     5     1    1
     6     6    25    1
     7     7    35   ar
     8     8    35   ar
     9     9    36   ar
    10    10    37    1
    11    11    41    3
    12    12    45    3
    13    13    36    1
    14    14    49    3
    15    15    53    3
    16    17     5   ar
    17    18    17    1
    18    19    17   ar
    19    20    19    1
    20    21    19   ar
    21    22    21    1
    22    23    21   ar
    23    24    23    1
    24    25     5   ar
    25    26     4   ar
    26    27    26   ar
    27    28    27    1
    28    29    27   ar
    29    30    29    1
    30    31    29   ar
    31    32    31    1
    32    33     4   ar
    33    34    33    1
    34    35     6    1
    35    36     8   ar
    36    37     7   ar
    37    38    10    1
    38    39    38    1
    39    40    38    1
    40    41    38    1
    41    42    10    1
    42    43    42    1
    43    44    42    1
    44    45    42    1
    45    46    13    1
    46    47    46    1
    47    48    46    1
    48    49    46    1
    49    50    13    1
    50    51    50    1
    51    52    50    1
    52    53    50    1
    53    54    68    2
    54    55     1    1
    55    56     1    1
    56    57     1    1
    57    58    77    1
    58    59    87   ar
    59    60    87   ar
    60    61    88   ar
    61    62    89    1
    62    63    93    3
    63    64    97    3
    64    65    88    1
    65    66   101    3
    66    67   105    3
    67    68    55    2
    68    69    57   ar
    69    70    69    1
    70    71    69   ar
    71    72    71    1
    72    73    71   ar
    73    74    73    1
    74    75    73   ar
    75    76    75    1
    76    77    57   ar
    77    78    56   ar
    78    79    78   ar
    79    80    79    1
    80    81    79   ar
    81    82    81    1
    82    83    81   ar
    83    84    83    1
    84    85    56   ar
    85    86    85    1
    86    87    58    1
    87    88    60   ar
    88    89    59   ar
    89    90    62    1
    90    91    90    1
    91    92    90    1
    92    93    90    1
    93    94    62    1
    94    95    94    1
    95    96    94    1
    96    97    94    1
    97    98    65    1
    98    99    98    1
    99   100    98    1
   100   101    98    1
   101   102    65    1
   102   103   102    1
   103   104   102    1
   104   105   102    1
   105     6    26    1
   106     9    37   ar
   107    23    25   ar
   108    31    33   ar
   109    58    78    1
   110    61    89   ar
   111    75    77   ar
   112    83    85   ar
   113   106   107    3
   114   107   108    1
   115   108   109    1
   116   110   108    1
   117   111   108    1
   118   112   113    3
   119   113   114    1
   120   114   115    1
   121   116   114    1
   122   117   114    1
   123   118   119    3
   124   119   120    1
   125   120   121    1
   126   122   120    1
   127   123   120    1
@<TRIPOS>SUBSTRUCTURE
     1 RES1        1 GROUP             0 ****  ****    0  
     2 RES2      106 GROUP             0 ****  ****    0  
     3 RES3      112 GROUP             0 ****  ****    0  
     4 RES4      118 GROUP             0 ****  ****    0  
@<TRIPOS>CRYSIN
   12.4840   22.1570   13.1190   90.0000  117.0300   90.0000    14     1
