@<TRIPOS>MOLECULE
NETJAZ
   123   127     4     0     0
SMALL
NO_CHARGES
****
Generated from the CSD

@<TRIPOS>ATOM
     1 Se1      1.2291  14.6648   8.3747   Se        1 RES1   0.0000
     2 Fe1      0.2533  11.1470  11.7305   Fe        1 RES1   0.0000
     3 N1       1.0307  12.2876  10.1131   N.2       1 RES1   0.0000
     4 N2      -1.7386  11.1671  10.8159   N.ar      1 RES1   0.0000
     5 N3       0.4282   9.1990  10.6577   N.ar      1 RES1   0.0000
     6 N4      -0.7736  10.2035   8.9063   N.pl3     1 RES1   0.0000
     7 N5       0.7598  10.0907   7.1929   N.ar      1 RES1   0.0000
     8 N6      -0.8938  11.8145   7.2606   N.ar      1 RES1   0.0000
     9 N7       0.6579  11.7175   5.4359   N.ar      1 RES1   0.0000
    10 N8       2.2158  10.0111   5.4255   N.pl3     1 RES1   0.0000
    11 N9       1.1902   6.7352   5.2799   N.1       1 RES1   0.0000
    12 N10      1.2125   9.4486   2.1604   N.1       1 RES1   0.0000
    13 N11     -0.9683  13.3601   5.5906   N.pl3     1 RES1   0.0000
    14 N12     -4.2826  12.8779   6.4115   N.1       1 RES1   0.0000
    15 N13      0.8034  16.1411   4.6449   N.1       1 RES1   0.0000
    16 C1       1.1021  13.2210   9.4260   C.1       1 RES1   0.0000
    17 C2       0.9263   8.0876  11.2461   C.ar      1 RES1   0.0000
    18 H1       1.3591   8.1774  12.0871   H         1 RES1   0.0000
    19 C3       0.8389   6.8320  10.6858   C.ar      1 RES1   0.0000
    20 H2       1.2053   6.0773  11.1311   H         1 RES1   0.0000
    21 C4       0.2016   6.6900   9.4524   C.ar      1 RES1   0.0000
    22 H3       0.1252   5.8366   9.0442   H         1 RES1   0.0000
    23 C5      -0.3163   7.8125   8.8365   C.ar      1 RES1   0.0000
    24 H4      -0.7523   7.7494   7.9943   H         1 RES1   0.0000
    25 C6      -0.1831   9.0353   9.4803   C.ar      1 RES1   0.0000
    26 C7      -1.9156  10.7633   9.5510   C.ar      1 RES1   0.0000
    27 C8      -3.1357  10.8264   8.8934   C.ar      1 RES1   0.0000
    28 H5      -3.2193  10.5361   7.9932   H         1 RES1   0.0000
    29 C9      -4.2268  11.3240   9.5838   C.ar      1 RES1   0.0000
    30 H6      -5.0727  11.3967   9.1568   H         1 RES1   0.0000
    31 C10     -4.0706  11.7159  10.9094   C.ar      1 RES1   0.0000
    32 H7      -4.8096  12.0454  11.4079   H         1 RES1   0.0000
    33 C11     -2.8204  11.6141  11.4849   C.ar      1 RES1   0.0000
    34 H8      -2.7159  11.8716  12.3933   H         1 RES1   0.0000
    35 C12     -0.2828  10.7248   7.7311   C.ar      1 RES1   0.0000
    36 C13     -0.3597  12.2523   6.1149   C.ar      1 RES1   0.0000
    37 C14      1.1619  10.6282   6.0351   C.ar      1 RES1   0.0000
    38 C15      2.7087   8.7446   5.9472   C.3       1 RES1   0.0000
    39 H9       2.7643   8.7994   6.9339   H         1 RES1   0.0000
    40 H10      3.6229   8.5854   5.6001   H         1 RES1   0.0000
    41 C16      1.8482   7.6123   5.5755   C.1       1 RES1   0.0000
    42 C17      2.6524  10.4414   4.1085   C.3       1 RES1   0.0000
    43 H11      3.5985  10.1750   3.9802   H         1 RES1   0.0000
    44 H12      2.6085  11.4301   4.0623   H         1 RES1   0.0000
    45 C18      1.8412   9.8729   3.0120   C.1       1 RES1   0.0000
    46 C19     -1.9554  14.0746   6.3854   C.3       1 RES1   0.0000
    47 H13     -2.0694  14.9883   6.0189   H         1 RES1   0.0000
    48 H14     -1.6268  14.1589   7.3151   H         1 RES1   0.0000
    49 C20     -3.2558  13.3942   6.3944   C.1       1 RES1   0.0000
    50 C21     -0.5509  13.9275   4.3193   C.3       1 RES1   0.0000
    51 H15     -1.3519  14.1232   3.7702   H         1 RES1   0.0000
    52 H16     -0.0023  13.2649   3.8312   H         1 RES1   0.0000
    53 C22      0.2266  15.1653   4.5010   C.1       1 RES1   0.0000
    54 Se1B    -0.7225   7.6292  15.0863   Se        1 RES1   0.0000
    55 N1B     -0.5241  10.0064  13.3479   N.2       1 RES1   0.0000
    56 N2B      2.2452  11.1269  12.6451   N.ar      1 RES1   0.0000
    57 N3B      0.0784  13.0950  12.8032   N.ar      1 RES1   0.0000
    58 N4B      1.2802  12.0905  14.5547   N.pl3     1 RES1   0.0000
    59 N5B     -0.2532  12.2033  16.2681   N.ar      1 RES1   0.0000
    60 N6B      1.4003  10.4795  16.2004   N.ar      1 RES1   0.0000
    61 N7B     -0.1514  10.5765  18.0251   N.ar      1 RES1   0.0000
    62 N8B     -1.7092  12.2829  18.0355   N.pl3     1 RES1   0.0000
    63 N9B     -0.6837  15.5588  18.1811   N.1       1 RES1   0.0000
    64 N10B    -0.7059  12.8454  21.3006   N.1       1 RES1   0.0000
    65 N11B     1.4749   8.9339  17.8703   N.pl3     1 RES1   0.0000
    66 N12B     4.7892   9.4161  17.0494   N.1       1 RES1   0.0000
    67 N13B    -0.2968   6.1529  18.8161   N.1       1 RES1   0.0000
    68 C1B     -0.5955   9.0730  14.0349   C.1       1 RES1   0.0000
    69 C2B     -0.4197  14.2064  12.2148   C.ar      1 RES1   0.0000
    70 H1B     -0.8525  14.1166  11.3739   H         1 RES1   0.0000
    71 C3B     -0.3324  15.4620  12.7752   C.ar      1 RES1   0.0000
    72 H2B     -0.6987  16.2167  12.3299   H         1 RES1   0.0000
    73 C4B      0.3050  15.6040  14.0086   C.ar      1 RES1   0.0000
    74 H3B      0.3813  16.4574  14.4168   H         1 RES1   0.0000
    75 C5B      0.8229  14.4815  14.6245   C.ar      1 RES1   0.0000
    76 H4B      1.2589  14.5446  15.4667   H         1 RES1   0.0000
    77 C6B      0.6897  13.2587  13.9806   C.ar      1 RES1   0.0000
    78 C7B      2.4222  11.5307  13.9100   C.ar      1 RES1   0.0000
    79 C8B      3.6423  11.4676  14.5676   C.ar      1 RES1   0.0000
    80 H5B      3.7259  11.7579  15.4678   H         1 RES1   0.0000
    81 C9B      4.7334  10.9700  13.8772   C.ar      1 RES1   0.0000
    82 H6B      5.5793  10.8973  14.3042   H         1 RES1   0.0000
    83 C10B     4.5772  10.5781  12.5516   C.ar      1 RES1   0.0000
    84 H7B      5.3162  10.2486  12.0531   H         1 RES1   0.0000
    85 C11B     3.3269  10.6799  11.9761   C.ar      1 RES1   0.0000
    86 H8B      3.2225  10.4224  11.0677   H         1 RES1   0.0000
    87 C12B     0.7894  11.5692  15.7299   C.ar      1 RES1   0.0000
    88 C13B     0.8663  10.0417  17.3461   C.ar      1 RES1   0.0000
    89 C14B    -0.6553  11.6658  17.4259   C.ar      1 RES1   0.0000
    90 C15B    -2.2021  13.5494  17.5137   C.3       1 RES1   0.0000
    91 H9B     -2.2577  13.4946  16.5271   H         1 RES1   0.0000
    92 H10B    -3.1163  13.7086  17.8608   H         1 RES1   0.0000
    93 C16B    -1.3417  14.6817  17.8855   C.1       1 RES1   0.0000
    94 C17B    -2.1458  11.8526  19.3525   C.3       1 RES1   0.0000
    95 H11B    -3.0920  12.1190  19.4808   H         1 RES1   0.0000
    96 H12B    -2.1019  10.8639  19.3987   H         1 RES1   0.0000
    97 C18B    -1.3346  12.4211  20.4489   C.1       1 RES1   0.0000
    98 C19B     2.4620   8.2194  17.0756   C.3       1 RES1   0.0000
    99 H13B     2.5760   7.3057  17.4421   H         1 RES1   0.0000
   100 H14B     2.1334   8.1351  16.1458   H         1 RES1   0.0000
   101 C20B     3.7623   8.8998  17.0666   C.1       1 RES1   0.0000
   102 C21B     1.0575   8.3665  19.1417   C.3       1 RES1   0.0000
   103 H15B     1.8585   8.1708  19.6908   H         1 RES1   0.0000
   104 H16B     0.5089   9.0291  19.6298   H         1 RES1   0.0000
   105 C22B     0.2799   7.1287  18.9600   C.1       1 RES1   0.0000
   106 N14     -6.1816  17.0518  10.2220   N.1       2 RES2   0.0000
   107 C23     -5.6012  16.2833   9.6202   C.1       2 RES2   0.0000
   108 C24     -4.8384  15.3080   8.8600   C.3       2 RES2   0.0000
   109 H17     -4.9178  15.5055   7.9028   H         2 RES2   0.0000
   110 H18     -5.1872  14.4086   9.0383   H         2 RES2   0.0000
   111 H19     -3.8959  15.3516   9.1251   H         2 RES2   0.0000
   112 N15     -1.1356  14.9348   1.4475   N.1       3 RES3   0.0000
   113 C25     -1.9926  14.8627   0.7144   C.1       3 RES3   0.0000
   114 C26     -3.1040  14.7887  -0.1912   C.3       3 RES3   0.0000
   115 H20     -3.7813  15.4497   0.0669   H         3 RES3   0.0000
   116 H21     -3.4941  13.8914  -0.1572   H         3 RES3   0.0000
   117 H22     -2.7954  14.9771  -1.1027   H         3 RES3   0.0000
   118 N16      2.4291  13.4254   2.5278   N.1       4 RES4   0.0000
   119 C27      2.2753  14.4396   2.0388   C.1       4 RES4   0.0000
   120 C28      2.0844  15.7431   1.4264   C.3       4 RES4   0.0000
   121 H23      2.3489  16.4441   2.0587   H         4 RES4   0.0000
   122 H24      1.1407  15.8577   1.1883   H         4 RES4   0.0000
   123 H25      2.6342  15.8087   0.6182   H         4 RES4   0.0000
@<TRIPOS>BOND
     1     1    16    2
     2     2     3    1
     3     3    16    2
     4     4     2    1
     5     5     2    1
     6     6    25    1
     7     7    35   ar
     8     8    35   ar
     9     9    36   ar
    10    10    37    1
    11    11    41    3
    12    12    45    3
    13    13    36    1
    14    14    49    3
    15    15    53    3
    16    17     5   ar
    17    18    17    1
    18    19    17   ar
    19    20    19    1
    20    21    19   ar
    21    22    21    1
    22    23    21   ar
    23    24    23    1
    24    25     5   ar
    25    26     4   ar
    26    27    26   ar
    27    28    27    1
    28    29    27   ar
    29    30    29    1
    30    31    29   ar
    31    32    31    1
    32    33     4   ar
    33    34    33    1
    34    35     6    1
    35    36     8   ar
    36    37     7   ar
    37    38    10    1
    38    39    38    1
    39    40    38    1
    40    41    38    1
    41    42    10    1
    42    43    42    1
    43    44    42    1
    44    45    42    1
    45    46    13    1
    46    47    46    1
    47    48    46    1
    48    49    46    1
    49    50    13    1
    50    51    50    1
    51    52    50    1
    52    53    50    1
    53    54    68    2
    54    55     2    1
    55    56     2    1
    56    57     2    1
    57    58    77    1
    58    59    87   ar
    59    60    87   ar
    60    61    88   ar
    61    62    89    1
    62    63    93    3
    63    64    97    3
    64    65    88    1
    65    66   101    3
    66    67   105    3
    67    68    55    2
    68    69    57   ar
    69    70    69    1
    70    71    69   ar
    71    72    71    1
    72    73    71   ar
    73    74    73    1
    74    75    73   ar
    75    76    75    1
    76    77    57   ar
    77    78    56   ar
    78    79    78   ar
    79    80    79    1
    80    81    79   ar
    81    82    81    1
    82    83    81   ar
    83    84    83    1
    84    85    56   ar
    85    86    85    1
    86    87    58    1
    87    88    60   ar
    88    89    59   ar
    89    90    62    1
    90    91    90    1
    91    92    90    1
    92    93    90    1
    93    94    62    1
    94    95    94    1
    95    96    94    1
    96    97    94    1
    97    98    65    1
    98    99    98    1
    99   100    98    1
   100   101    98    1
   101   102    65    1
   102   103   102    1
   103   104   102    1
   104   105   102    1
   105     6    26    1
   106     9    37   ar
   107    23    25   ar
   108    31    33   ar
   109    58    78    1
   110    61    89   ar
   111    75    77   ar
   112    83    85   ar
   113   106   107    3
   114   107   108    1
   115   108   109    1
   116   110   108    1
   117   111   108    1
   118   112   113    3
   119   113   114    1
   120   114   115    1
   121   116   114    1
   122   117   114    1
   123   118   119    3
   124   119   120    1
   125   120   121    1
   126   122   120    1
   127   123   120    1
@<TRIPOS>SUBSTRUCTURE
     1 RES1        1 GROUP             0 ****  ****    0  
     2 RES2      106 GROUP             0 ****  ****    0  
     3 RES3      112 GROUP             0 ****  ****    0  
     4 RES4      118 GROUP             0 ****  ****    0  
@<TRIPOS>CRYSIN
   12.5070   22.2940   13.1760   90.0000  117.0900   90.0000    14     1
