@<TRIPOS>MOLECULE
NEVSAK
   155   165     3     0     0
SMALL
USER_CHARGES
****
Generated from the CSD

@<TRIPOS>ATOM
     1 Fe1     12.7150  14.4851   5.0211   Fe        1 RES1   0.0000
     2 N1      14.1215  14.1165   4.0978   N.2       1 RES1   0.0000
     3 N2      13.2558  15.9317   5.8022   N.2       1 RES1   0.0000
     4 N3      11.9179  16.2226   2.6499   N.pl3     1 RES1   0.0000
     5 N4      13.9162  12.9522   7.3782   N.pl3     1 RES1   0.0000
     6 N5      10.4380  13.0629   5.0649   N.pl3     1 RES1   0.0000
     7 O1      15.2093  14.4123   3.7743   O.2       1 RES1   0.0000
     8 O2      14.1061  16.7204   5.9613   O.2       1 RES1   0.0000
     9 O3      11.4878  15.4187   3.5474   O.3       1 RES1  -1.0000
    10 O4      13.1229  16.4066   2.5079   O.2       1 RES1   0.0000
    11 O5      11.0601  16.8006   1.9451   O.2       1 RES1   0.0000
    12 O6      12.8548  13.1355   6.6781   O.3       1 RES1  -1.0000
    13 O7      13.8546  12.2232   8.3703   O.2       1 RES1   0.0000
    14 O8      14.9626  13.5178   7.0293   O.2       1 RES1   0.0000
    15 O9      10.6262  14.1351   5.7250   O.3       1 RES1   0.0000
    16 O10     11.4009  12.6585   4.3421   O.3       1 RES1   0.0000
    17 O11      9.3552  12.4623   5.1447   O.2       1 RES1   0.0000
    18 P1       4.9400  12.0109   2.7544   P.3       2 RES2   0.0000
    19 P2       6.0948   9.6135   1.4159   P.3       2 RES2   0.0000
    20 N6       5.2250  10.9052   1.6713   N.1       2 RES2   1.0000
    21 C1       4.9821  11.3959   4.4563   C.ar      2 RES2   0.0000
    22 C2       5.6784  12.0273   5.4868   C.ar      2 RES2   0.0000
    23 H1       6.1951  12.8030   5.3098   H         2 RES2   0.0000
    24 C3       5.6099  11.5095   6.7740   C.ar      2 RES2   0.0000
    25 H2       6.0770  11.9349   7.4822   H         2 RES2   0.0000
    26 C4       4.8623  10.3776   7.0227   C.ar      2 RES2   0.0000
    27 H3       4.8178  10.0311   7.9060   H         2 RES2   0.0000
    28 C5       4.1711   9.7346   5.9981   C.ar      2 RES2   0.0000
    29 H4       3.6613   8.9531   6.1772   H         2 RES2   0.0000
    30 C6       4.2361  10.2447   4.7269   C.ar      2 RES2   0.0000
    31 H5       3.7708   9.8116   4.0226   H         2 RES2   0.0000
    32 C7       3.2712  12.6086   2.4749   C.ar      2 RES2   0.0000
    33 C8       2.5492  13.2496   3.5113   C.ar      2 RES2   0.0000
    34 H6       2.9359  13.3478   4.3728   H         2 RES2   0.0000
    35 C9       1.2712  13.7309   3.2527   C.ar      2 RES2   0.0000
    36 H7       0.7819  14.1544   3.9490   H         2 RES2   0.0000
    37 C10      0.7015  13.6019   1.9994   C.ar      2 RES2   0.0000
    38 H8      -0.1694  13.9426   1.8323   H         2 RES2   0.0000
    39 C11      1.4115  12.9686   0.9848   C.ar      2 RES2   0.0000
    40 H9       1.0180  12.8704   0.1253   H         2 RES2   0.0000
    41 C12      2.6980  12.4719   1.2153   C.ar      2 RES2   0.0000
    42 H10      3.1788  12.0427   0.5173   H         2 RES2   0.0000
    43 C13      6.0582  13.4152   2.6300   C.ar      2 RES2   0.0000
    44 C14      5.5963  14.6876   2.2769   C.ar      2 RES2   0.0000
    45 H11      4.6690  14.8320   2.1366   H         2 RES2   0.0000
    46 C15      6.4910  15.7463   2.1307   C.ar      2 RES2   0.0000
    47 H12      6.1711  16.6087   1.8939   H         2 RES2   0.0000
    48 C16      7.8392  15.5423   2.3296   C.ar      2 RES2   0.0000
    49 H13      8.4500  16.2622   2.2242   H         2 RES2   0.0000
    50 C17      8.3046  14.2776   2.6837   C.ar      2 RES2   0.0000
    51 H14      9.2336  14.1409   2.8310   H         2 RES2   0.0000
    52 C18      7.4286  13.2246   2.8230   C.ar      2 RES2   0.0000
    53 H15      7.7588  12.3622   3.0498   H         2 RES2   0.0000
    54 C19      7.2028   9.1398   2.7434   C.ar      2 RES2   0.0000
    55 C20      8.4517   9.7616   2.8449   C.ar      2 RES2   0.0000
    56 H16      8.7460  10.3468   2.1585   H         2 RES2   0.0000
    57 C21      9.2507   9.5267   3.9311   C.ar      2 RES2   0.0000
    58 H17     10.0907   9.9656   4.0027   H         2 RES2   0.0000
    59 C22      8.8469   8.6624   4.9159   C.ar      2 RES2   0.0000
    60 H18      9.4149   8.4988   5.6599   H         2 RES2   0.0000
    61 C23      7.6271   8.0252   4.8403   C.ar      2 RES2   0.0000
    62 H19      7.3567   7.4285   5.5286   H         2 RES2   0.0000
    63 C24      6.7939   8.2601   3.7560   C.ar      2 RES2   0.0000
    64 H20      5.9504   7.8289   3.7003   H         2 RES2   0.0000
    65 C25      4.9803   8.2274   1.0942   C.ar      2 RES2   0.0000
    66 C26      5.4423   6.9184   1.0484   C.ar      2 RES2   0.0000
    67 H21      6.3627   6.7374   1.2016   H         2 RES2   0.0000
    68 C27      4.5732   5.8731   0.7818   C.ar      2 RES2   0.0000
    69 H22      4.8965   4.9799   0.7540   H         2 RES2   0.0000
    70 C28      3.2370   6.1291   0.5551   C.ar      2 RES2   0.0000
    71 H23      2.6399   5.4130   0.3800   H         2 RES2   0.0000
    72 C29      2.7767   7.4112   0.5829   C.ar      2 RES2   0.0000
    73 H24      1.8563   7.5806   0.4178   H         2 RES2   0.0000
    74 C30      3.6339   8.4776   0.8495   C.ar      2 RES2   0.0000
    75 H25      3.3020   9.3689   0.8654   H         2 RES2   0.0000
    76 C31      7.1138   9.8828  -0.0460   C.ar      2 RES2   0.0000
    77 C32      6.8058  10.9435  -0.8952   C.ar      2 RES2   0.0000
    78 H26      6.0753  11.5172  -0.6963   H         2 RES2   0.0000
    79 C33      7.5655  11.1610  -2.0332   C.ar      2 RES2   0.0000
    80 H27      7.3499  11.8733  -2.6221   H         2 RES2   0.0000
    81 C34      8.6262  10.3448  -2.3057   C.ar      2 RES2   0.0000
    82 H28      9.1549  10.5104  -3.0776   H         2 RES2   0.0000
    83 C35      8.9513   9.2707  -1.4722   C.ar      2 RES2   0.0000
    84 H29      9.6852   8.7048  -1.6831   H         2 RES2   0.0000
    85 C36      8.1882   9.0416  -0.3302   C.ar      2 RES2   0.0000
    86 H30      8.3969   8.3178   0.2487   H         2 RES2   0.0000
    87 P3      13.1205   7.3070   3.0993   P.3       3 RES3   0.0000
    88 P4      14.3421   9.5922   1.6063   P.3       3 RES3   0.0000
    89 N7      13.3910   8.3958   1.9942   N.1       3 RES3   1.0000
    90 C37     13.1857   7.9733   4.7555   C.ar      3 RES3   0.0000
    91 C38     12.6878   9.2611   4.9656   C.ar      3 RES3   0.0000
    92 H31     12.3610   9.7654   4.2315   H         3 RES3   0.0000
    93 C39     12.6690   9.8097   6.2448   C.ar      3 RES3   0.0000
    94 H32     12.3131  10.6779   6.3861   H         3 RES3   0.0000
    95 C40     13.1771   9.0782   7.3112   C.ar      3 RES3   0.0000
    96 H33     13.1771   9.4555   8.1845   H         3 RES3   0.0000
    97 C41     13.6784   7.8154   7.1122   C.ar      3 RES3   0.0000
    98 H34     14.0206   7.3207   7.8463   H         3 RES3   0.0000
    99 C42     13.6870   7.2475   5.8191   C.ar      3 RES3   0.0000
   100 H35     14.0360   6.3755   5.6818   H         3 RES3   0.0000
   101 C43     11.4885   6.6233   2.7961   C.ar      3 RES3   0.0000
   102 C44     10.7631   6.0367   3.8098   C.ar      3 RES3   0.0000
   103 H36     11.1018   6.0444   4.6970   H         3 RES3   0.0000
   104 C45      9.5552   5.4419   3.5452   C.ar      3 RES3   0.0000
   105 H37      9.0591   5.0415   4.2494   H         3 RES3   0.0000
   106 C46      9.0676   5.4265   2.2739   C.ar      3 RES3   0.0000
   107 H38      8.2327   5.0107   2.0929   H         3 RES3   0.0000
   108 C47      9.7759   6.0059   1.2573   C.ar      3 RES3   0.0000
   109 H39      9.4303   5.9905   0.3720   H         3 RES3   0.0000
   110 C48     10.9855   6.6123   1.5120   C.ar      3 RES3   0.0000
   111 H40     11.4731   7.0223   0.8077   H         3 RES3   0.0000
   112 C49     14.2687   5.9251   3.0110   C.ar      3 RES3   0.0000
   113 C50     13.8700   4.6700   2.5803   C.ar      3 RES3   0.0000
   114 H41     12.9547   4.4968   2.3993   H         3 RES3   0.0000
   115 C51     14.8196   3.6652   2.4132   C.ar      3 RES3   0.0000
   116 H42     14.5492   2.8008   2.1287   H         3 RES3   0.0000
   117 C52     16.1575   3.9231   2.6599   C.ar      3 RES3   0.0000
   118 H43     16.8025   3.2436   2.5127   H         3 RES3   0.0000
   119 C53     16.5646   5.1724   3.1254   C.ar      3 RES3   0.0000
   120 H44     17.4800   5.3418   3.3164   H         3 RES3   0.0000
   121 C54     15.6220   6.1599   3.3025   C.ar      3 RES3   0.0000
   122 H45     15.8888   7.0108   3.6267   H         3 RES3   0.0000
   123 C55     15.2627   9.1725   0.1170   C.ar      3 RES3   0.0000
   124 C56     14.9085   8.0387  -0.5929   C.ar      3 RES3   0.0000
   125 H46     14.1797   7.5036  -0.3044   H         3 RES3   0.0000
   126 C57     15.6271   7.6864  -1.7328   C.ar      3 RES3   0.0000
   127 H47     15.3961   6.9049  -2.2222   H         3 RES3   0.0000
   128 C58     16.6776   8.4834  -2.1506   C.ar      3 RES3   0.0000
   129 H48     17.1617   8.2447  -2.9324   H         3 RES3   0.0000
   130 C59     17.0351   9.6114  -1.4523   C.ar      3 RES3   0.0000
   131 H49     17.7657  10.1427  -1.7447   H         3 RES3   0.0000
   132 C60     16.3251   9.9695  -0.3183   C.ar      3 RES3   0.0000
   133 H50     16.5595  10.7529   0.1611   H         3 RES3   0.0000
   134 C61     15.5843  10.0619   2.8349   C.ar      3 RES3   0.0000
   135 C62     16.8196   9.4401   2.8270   C.ar      3 RES3   0.0000
   136 H51     17.0214   8.8164   2.1406   H         3 RES3   0.0000
   137 C63     17.7674   9.7134   3.7998   C.ar      3 RES3   0.0000
   138 H52     18.6040   9.2630   3.8058   H         3 RES3   0.0000
   139 C64     17.4611  10.6663   4.7726   C.ar      3 RES3   0.0000
   140 H53     18.1078  10.8858   5.4331   H         3 RES3   0.0000
   141 C65     16.2344  11.2919   4.7905   C.ar      3 RES3   0.0000
   142 H54     16.0411  11.9310   5.4650   H         3 RES3   0.0000
   143 C66     15.2798  10.9955   3.8277   C.ar      3 RES3   0.0000
   144 H55     14.4312  11.4228   3.8436   H         3 RES3   0.0000
   145 C67     13.3020  11.0244   1.2838   C.ar      3 RES3   0.0000
   146 C68     13.8478  12.3083   1.1956   C.ar      3 RES3   0.0000
   147 H56     14.7836  12.4373   1.3031   H         3 RES3   0.0000
   148 C69     13.0249  13.3940   0.9529   C.ar      3 RES3   0.0000
   149 H57     13.3893  14.2680   0.9032   H         3 RES3   0.0000
   150 C70     11.6733  13.1957   0.7838   C.ar      3 RES3   0.0000
   151 H58     11.1087  13.9426   0.6187   H         3 RES3   0.0000
   152 C71     11.1224  11.9214   0.8495   C.ar      3 RES3   0.0000
   153 H59     10.1917  11.7963   0.7162   H         3 RES3   0.0000
   154 C72     11.9333  10.8434   1.1081   C.ar      3 RES3   0.0000
   155 H60     11.5603   9.9714   1.1698   H         3 RES3   0.0000
@<TRIPOS>BOND
     1     1     2    1
     2     2     7    2
     3     3     1    1
     4     4     9    1
     5     5    12    1
     6     6    15    1
     7     8     3    2
     8     9     1    1
     9    10     4    2
    10    11     4    2
    11    12     1    1
    12    13     5    2
    13    14     5    2
    14    15     1    1
    15    16     1    1
    16    17     6    2
    17     6    16    1
    18    18    20    2
    19    19    20    2
    20    21    18    1
    21    22    21   ar
    22    23    22    1
    23    24    22   ar
    24    25    24    1
    25    26    24   ar
    26    27    26    1
    27    28    26   ar
    28    29    28    1
    29    30    21   ar
    30    31    30    1
    31    32    18    1
    32    33    32   ar
    33    34    33    1
    34    35    33   ar
    35    36    35    1
    36    37    35   ar
    37    38    37    1
    38    39    37   ar
    39    40    39    1
    40    41    32   ar
    41    42    41    1
    42    43    18    1
    43    44    43   ar
    44    45    44    1
    45    46    44   ar
    46    47    46    1
    47    48    46   ar
    48    49    48    1
    49    50    48   ar
    50    51    50    1
    51    52    43   ar
    52    53    52    1
    53    54    19    1
    54    55    54   ar
    55    56    55    1
    56    57    55   ar
    57    58    57    1
    58    59    57   ar
    59    60    59    1
    60    61    59   ar
    61    62    61    1
    62    63    54   ar
    63    64    63    1
    64    65    19    1
    65    66    65   ar
    66    67    66    1
    67    68    66   ar
    68    69    68    1
    69    70    68   ar
    70    71    70    1
    71    72    70   ar
    72    73    72    1
    73    74    65   ar
    74    75    74    1
    75    76    19    1
    76    77    76   ar
    77    78    77    1
    78    79    77   ar
    79    80    79    1
    80    81    79   ar
    81    82    81    1
    82    83    81   ar
    83    84    83    1
    84    85    76   ar
    85    86    85    1
    86    28    30   ar
    87    39    41   ar
    88    50    52   ar
    89    61    63   ar
    90    72    74   ar
    91    83    85   ar
    92    87    89    2
    93    88    89    2
    94    90    87    1
    95    91    90   ar
    96    92    91    1
    97    93    91   ar
    98    94    93    1
    99    95    93   ar
   100    96    95    1
   101    97    95   ar
   102    98    97    1
   103    99    90   ar
   104   100    99    1
   105   101    87    1
   106   102   101   ar
   107   103   102    1
   108   104   102   ar
   109   105   104    1
   110   106   104   ar
   111   107   106    1
   112   108   106   ar
   113   109   108    1
   114   110   101   ar
   115   111   110    1
   116   112    87    1
   117   113   112   ar
   118   114   113    1
   119   115   113   ar
   120   116   115    1
   121   117   115   ar
   122   118   117    1
   123   119   117   ar
   124   120   119    1
   125   121   112   ar
   126   122   121    1
   127   123    88    1
   128   124   123   ar
   129   125   124    1
   130   126   124   ar
   131   127   126    1
   132   128   126   ar
   133   129   128    1
   134   130   128   ar
   135   131   130    1
   136   132   123   ar
   137   133   132    1
   138   134    88    1
   139   135   134   ar
   140   136   135    1
   141   137   135   ar
   142   138   137    1
   143   139   137   ar
   144   140   139    1
   145   141   139   ar
   146   142   141    1
   147   143   134   ar
   148   144   143    1
   149   145    88    1
   150   146   145   ar
   151   147   146    1
   152   148   146   ar
   153   149   148    1
   154   150   148   ar
   155   151   150    1
   156   152   150   ar
   157   153   152    1
   158   154   145   ar
   159   155   154    1
   160    97    99   ar
   161   108   110   ar
   162   119   121   ar
   163   130   132   ar
   164   141   143   ar
   165   152   154   ar
@<TRIPOS>SUBSTRUCTURE
     1 RES1        1 GROUP             0 ****  ****    0  
     2 RES2       18 GROUP             0 ****  ****    0  
     3 RES3       87 GROUP             0 ****  ****    0  
@<TRIPOS>CRYSIN
   17.1087   19.2498   19.8943   90.0000   90.0000   90.0000    19     1
