@<TRIPOS>MOLECULE
NEYFON
   141   155     2     0     0
SMALL
NO_CHARGES
****
Generated from the CSD

@<TRIPOS>ATOM
     1 Dy1     10.2031   4.0263  18.5763   Dy        1 RES1   0.0000
     2 Dy2     14.3454  -4.4052  12.2883   Dy        1 RES1   0.0000
     3 Fe1     12.3821  -0.1464  15.4466   Fe        1 RES1   0.0000
     4 O1      10.3335   1.5925  18.4088   O.3       1 RES1   0.0000
     5 F1      15.4338   4.3675  20.5431   F         1 RES1   0.0000
     6 O2      11.6180   5.8879  18.2410   O.3       1 RES1   0.0000
     7 O3       8.8214   5.7661  17.9276   O.2       1 RES1   0.0000
     8 O4      12.3191   3.3618  19.3971   O.3       1 RES1   0.0000
     9 O5      12.7862  -2.6068  12.2772   O.3       1 RES1   0.0000
    10 O6       8.4744   3.1834  19.8443   O.3       1 RES1   0.0000
    11 O7      15.5838  -2.4403  11.9497   O.3       1 RES1   0.0000
    12 O8      12.8342  -5.0934  10.6340   O.3       1 RES1   0.0000
    13 F2       7.6510   0.5354  20.8706   F         1 RES1   0.0000
    14 O9      15.6725  -4.7502  10.4323   O.2       1 RES1   0.0000
    15 O10     11.5299   3.6227  16.6917   O.3       1 RES1   0.0000
    16 O11      8.6148   3.2246  16.9492   O.2       1 RES1   0.0000
    17 F3      18.5787  -4.7433  14.7210   F         1 RES1   0.0000
    18 F4      18.9084  -4.9269   9.2283   F         1 RES1   0.0000
    19 F5      13.5486   7.1304  16.6038   F         1 RES1   0.0000
    20 F6      13.8817  -9.2189  13.5290   F         1 RES1   0.0000
    21 F7       6.9138   2.2824  21.7890   F         1 RES1   0.0000
    22 O12     14.5083  -3.4150  14.3936   O.3       1 RES1   0.0000
    23 F8      19.0750  -6.8627  14.4155   F         1 RES1   0.0000
    24 O13     14.4840  -6.7426  12.4369   O.3       1 RES1   0.0000
    25 F9      16.6353   0.0892  11.3947   F         1 RES1   0.0000
    26 F10      5.6504   1.2064  20.4932   F         1 RES1   0.0000
    27 F11     17.3639  -0.8134  13.2335   F         1 RES1   0.0000
    28 F12     14.4387  -9.3133  11.4865   F         1 RES1   0.0000
    29 O14     10.4583   4.9630  20.6829   O.2       1 RES1   0.0000
    30 F13     15.7597  -9.8916  13.0459   F         1 RES1   0.0000
    31 C1       9.2462  -2.4386  18.1153   C.ar      1 RES1   0.0000
    32 H1       8.6589  -2.8539  18.7063   H         1 RES1   0.0000
    33 F14     18.5917  -0.7619  11.4406   F         1 RES1   0.0000
    34 N1      13.0752  -1.5411  14.3077   N.1       1 RES1   0.0000
    35 F15     10.2469   5.8450  23.2665   F         1 RES1   0.0000
    36 N2      11.6683   1.2596  16.5260   N.1       1 RES1   0.0000
    37 F16     14.7497   2.3236  20.4493   F         1 RES1   0.0000
    38 N3      13.4836   1.3145  14.7689   N.ar      1 RES1   0.0000
    39 C2      17.6057  -5.2547   9.1844   C.3       1 RES1   0.0000
    40 C3      15.6203  -2.3373  16.8135   C.ar      1 RES1   0.0000
    41 H2      16.0855  -3.0701  16.4780   H         1 RES1   0.0000
    42 F17     14.9007   3.5300  18.6823   F         1 RES1   0.0000
    43 O15     16.4231  -4.9149  13.2375   O.2       1 RES1   0.0000
    44 O16     12.4507  -5.1946  13.4871   O.2       1 RES1   0.0000
    45 N4      11.1521   0.0566  13.9224   N.ar      1 RES1   0.0000
    46 F18     10.8656  -5.9137  15.3579   F         1 RES1   0.0000
    47 F19      6.8402   7.3706  17.3625   F         1 RES1   0.0000
    48 F20      5.5755   2.2464  15.8172   F         1 RES1   0.0000
    49 F21     19.2501  -5.4469  12.8282   F         1 RES1   0.0000
    50 F22      7.2216   1.0605  15.4338   F         1 RES1   0.0000
    51 F23     17.2021  -4.9956   8.0064   F         1 RES1   0.0000
    52 C4      16.7702  -2.2567  11.4526   C.2       1 RES1   0.0000
    53 C5       9.4961  -1.0588  18.2111   C.ar      1 RES1   0.0000
    54 H3       8.9811  -0.5286  18.7741   H         1 RES1   0.0000
    55 N5      11.1569  -1.2047  16.4800   N.ar      1 RES1   0.0000
    56 F24     17.4789  -6.4525   9.5019   F         1 RES1   0.0000
    57 C6      12.4914  -1.7573  13.1397   C.2       1 RES1   0.0000
    58 C7      14.5466  -1.8225  16.1546   C.ar      1 RES1   0.0000
    59 C8      13.8079   3.7445  14.9087   C.ar      1 RES1   0.0000
    60 H4      13.5147   4.5614  15.2441   H         1 RES1   0.0000
    61 C9      11.9677   2.5656  16.2844   C.2       1 RES1   0.0000
    62 F25     12.5536   8.9220  16.9353   F         1 RES1   0.0000
    63 C10      7.5433   2.6256  17.0551   C.2       1 RES1   0.0000
    64 C11     11.4125  -0.7808  12.9181   C.ar      1 RES1   0.0000
    65 F26     10.7129   7.4839  21.9827   F         1 RES1   0.0000
    66 C12     10.7493  -6.4628  14.3217   C.3       1 RES1   0.0000
    67 C13     13.1524   2.5330  15.2581   C.ar      1 RES1   0.0000
    68 C14     13.1039   4.0346  20.1658   C.2       1 RES1   0.0000
    69 C15     16.7315  -4.2250  10.2706   C.2       1 RES1   0.0000
    70 F27      7.1998   2.9963  14.7749   F         1 RES1   0.0000
    71 F28      7.9429   8.5359  16.0368   F         1 RES1   0.0000
    72 C16     14.1025  -2.3511  14.8668   C.2       1 RES1   0.0000
    73 C17      9.3473   1.0983  12.6366   C.ar      1 RES1   0.0000
    74 H5       8.6813   1.7401  12.5507   H         1 RES1   0.0000
    75 F29     13.3261   7.9095  18.4347   F         1 RES1   0.0000
    76 F30     12.2357   6.5435  23.1847   F         1 RES1   0.0000
    77 N6      13.8248  -0.7362  16.6038   N.ar      1 RES1   0.0000
    78 C18     11.4638   6.9039  17.5123   C.2       1 RES1   0.0000
    79 C19      9.8759  -3.1593  17.1449   C.ar      1 RES1   0.0000
    80 H6       9.6975  -4.0672  17.0511   H         1 RES1   0.0000
    81 C20      7.5182   2.3940  19.4809   C.2       1 RES1   0.0000
    82 C21      6.8831   1.6131  20.6689   C.3       1 RES1   0.0000
    83 C22     10.6659  -0.8134  11.7421   C.ar      1 RES1   0.0000
    84 H7      10.8265  -1.4364  11.0732   H         1 RES1   0.0000
    85 C23     15.9997  -1.7333  17.9935   C.ar      1 RES1   0.0000
    86 H8      16.7251  -2.0748  18.4647   H         1 RES1   0.0000
    87 C24     14.8695   3.6793  14.0801   C.ar      1 RES1   0.0000
    88 H9      15.3395   4.4464  13.8425   H         1 RES1   0.0000
    89 C25      9.6232   0.1819  11.6303   C.ar      1 RES1   0.0000
    90 H10      9.1143   0.2094  10.8516   H         1 RES1   0.0000
    91 F31      7.4309   6.5212  15.4698   F         1 RES1   0.0000
    92 C26      6.8688   2.2944  15.7972   C.3       1 RES1   0.0000
    93 C27     14.5663   3.5678  19.9721   C.3       1 RES1   0.0000
    94 C28     15.3208  -7.5182  12.8342   C.2       1 RES1   0.0000
    95 C29     11.7901  -5.7764  10.6579   C.2       1 RES1   0.0000
    96 C30     15.2558   2.3974  13.5750   C.ar      1 RES1   0.0000
    97 H11     15.9842   2.3236  13.0039   H         1 RES1   0.0000
    98 C31     10.7918  -2.5295  16.2864   C.ar      1 RES1   0.0000
    99 H12     11.1582  -3.0066  15.5796   H         1 RES1   0.0000
   100 C32     10.7789   0.9078  17.4863   C.2       1 RES1   0.0000
   101 C33     15.3308  -0.6367  18.4986   C.ar      1 RES1   0.0000
   102 H13     15.6124  -0.2179  19.2773   H         1 RES1   0.0000
   103 C34      6.9239   2.2000  18.2410   C.2       1 RES1   0.0000
   104 H14      6.0959   1.7796  18.1951   H         1 RES1   0.0000
   105 C35     11.5496  -5.9497  13.1078   C.2       1 RES1   0.0000
   106 C36     11.1018  -6.2741  11.8239   C.2       1 RES1   0.0000
   107 H15     10.3528  -6.8181  11.7221   H         1 RES1   0.0000
   108 C37     17.4747  -3.0735  10.6739   C.2       1 RES1   0.0000
   109 H16     18.3546  -2.9122  10.4203   H         1 RES1   0.0000
   110 C38     12.8321   5.0059  21.0842   C.2       1 RES1   0.0000
   111 H17     13.5189   5.4332  21.5454   H         1 RES1   0.0000
   112 F32     10.7319  -7.6830  14.3117   F         1 RES1   0.0000
   113 C39     10.2713   7.3981  16.9133   C.2       1 RES1   0.0000
   114 H18     10.2961   8.1360  16.3483   H         1 RES1   0.0000
   115 C40     18.5222  -5.7627  13.9483   C.3       1 RES1   0.0000
   116 C41     17.4142  -0.9215  11.9917   C.3       1 RES1   0.0000
   117 C42     11.1552   6.3015  22.3561   C.3       1 RES1   0.0000
   118 C43     16.6085  -7.2299  13.2196   C.2       1 RES1   0.0000
   119 H19     17.1992  -7.9352  13.3573   H         1 RES1   0.0000
   120 F33      9.4511  -6.3376  14.0022   F         1 RES1   0.0000
   121 C44     14.5475   1.2733  13.9344   C.ar      1 RES1   0.0000
   122 H20     14.8092   0.4513  13.5869   H         1 RES1   0.0000
   123 C45     10.1448   0.9902  13.7906   C.ar      1 RES1   0.0000
   124 H21      9.9852   1.5737  14.4954   H         1 RES1   0.0000
   125 C46      9.0991   6.7717  17.1808   C.2       1 RES1   0.0000
   126 C47     17.0441  -5.9978  13.4013   C.2       1 RES1   0.0000
   127 C48     14.2455  -0.1956  17.8038   C.ar      1 RES1   0.0000
   128 H22     13.7576   0.5114  18.1592   H         1 RES1   0.0000
   129 C49     12.7340   7.7070  17.3266   C.3       1 RES1   0.0000
   130 C50     14.8526  -8.9786  12.6545   C.3       1 RES1   0.0000
   131 C51     10.4633  -0.5268  17.5003   C.ar      1 RES1   0.0000
   132 C52      7.7970   7.3329  16.3982   C.3       1 RES1   0.0000
   133 C53     11.4690   5.3457  21.3178   C.2       1 RES1   0.0000
   134 F34     10.7369  -7.2419   9.3242   F         1 RES1   0.0000
   135 F35     10.2479  -5.5138   9.1265   F         1 RES1   0.0000
   136 F36     12.0321  -6.2174   8.3638   F         1 RES1   0.0000
   137 C55     11.2950  -6.1093   9.3262   C.3       1 RES1   0.0000
   138 Cl1     13.9406  -3.9024   6.2773   Cl        2 RES2   0.0000
   139 Cl2     14.8972  -2.0988   8.1861   Cl        2 RES2   0.0000
   140 Cl3     12.1915  -2.6239   8.0004   Cl        2 RES2   0.0000
   141 C54     13.7613  -3.5008   7.9305   C.3       2 RES2   0.0000
@<TRIPOS>BOND
     1     1     4    1
     2     2     9    1
     3     3    34    1
     4     4   100    1
     5     5    93    1
     6     6     1    1
     7     7     1    1
     8     8     1    1
     9     9    57    1
    10    10     1    1
    11    11     2    1
    12    12     2    1
    13    13    82    1
    14    14     2    1
    15    15     1    1
    16    16     1    1
    17    17   115    1
    18    18    39    1
    19    19   129    1
    20    20   130    1
    21    21    82    1
    22    22     2    1
    23    23   115    1
    24    24     2    1
    25    25   116    1
    26    26    82    1
    27    27   116    1
    28    28   130    1
    29    29     1    1
    30    30   130    1
    31    31    32    1
    32    33   116    1
    33    34    57    2
    34    35   117    1
    35    36     3    1
    36    37    93    1
    37    38     3    1
    38    39    51    1
    39    40    41    1
    40    42    93    1
    41    43     2    1
    42    44     2    1
    43    45     3    1
    44    46    66    1
    45    47   132    1
    46    48    92    1
    47    49   115    1
    48    50    92    1
    49    52    11    1
    50    53    31   ar
    51    54    53    1
    52    55     3    1
    53    56    39    1
    54    57    64    1
    55    58    40   ar
    56    59    60    1
    57    61    15    1
    58    62   129    1
    59    63    16    2
    60    64    45   ar
    61    65   117    1
    62    66   105    1
    63    67    38   ar
    64    68     8    1
    65    69    14    2
    66    70    92    1
    67    71   132    1
    68    72    22    1
    69    73    74    1
    70    75   129    1
    71    76   117    1
    72    77     3    1
    73    78     6    1
    74    79    31   ar
    75    80    79    1
    76    81    10    1
    77    82    81    1
    78    83    64   ar
    79    84    83    1
    80    85    40   ar
    81    86    85    1
    82    87    59   ar
    83    88    87    1
    84    89    73   ar
    85    90    89    1
    86    91   132    1
    87    92    63    1
    88    93    68    1
    89    94    24    1
    90    95    12    1
    91    96    87   ar
    92    97    96    1
    93    98    55   ar
    94    99    98    1
    95   100    36    2
    96   101    85   ar
    97   102   101    1
    98   103    63    1
    99   104   103    1
   100   105    44    2
   101   106    95    2
   102   107   106    1
   103   108    52    2
   104   109   108    1
   105   110    68    2
   106   111   110    1
   107   112    66    1
   108   113    78    2
   109   114   113    1
   110   115   126    1
   111   116    52    1
   112   117   133    1
   113   118    94    2
   114   119   118    1
   115   120    66    1
   116   121    38   ar
   117   122   121    1
   118   123    45   ar
   119   124   123    1
   120   125     7    2
   121   126    43    2
   122   127    77   ar
   123   128   127    1
   124   129    78    1
   125   130    94    1
   126   131    53   ar
   127   132   125    1
   128   133    29    2
   129   134   137    1
   130   135   137    1
   131   136   137    1
   132   137    95    1
   133    34    72    2
   134    36    61    2
   135    39    69    1
   136    55   131   ar
   137    58    72    1
   138    58    77   ar
   139    59    67   ar
   140    61    67    1
   141    69   108    1
   142    73   123   ar
   143    79    98   ar
   144    81   103    2
   145    83    89   ar
   146    96   121   ar
   147   100   131    1
   148   101   127   ar
   149   105   106    1
   150   110   133    1
   151   113   125    1
   152   118   126    1
   153   138   141    1
   154   139   141    1
   155   140   141    1
@<TRIPOS>SUBSTRUCTURE
     1 RES1        1 GROUP             0 ****  ****    0  
     2 RES2      138 GROUP             0 ****  ****    0  
@<TRIPOS>CRYSIN
   21.2500   17.1610   21.4030   90.0000  111.1140   90.0000    14     2
