@<TRIPOS>MOLECULE
NIDPIA
   108   119     3     0     0
SMALL
NO_CHARGES
****
Generated from the CSD

@<TRIPOS>ATOM
     1 Fe1      5.5733   7.6775   0.5674   Fe        1 RES1   0.0000
     2 N1       7.4816   7.6374   1.1483   N.2       1 RES1   0.0000
     3 N2       6.1159   7.2083  -1.2875   N.2       1 RES1   0.0000
     4 N3       3.6696   7.7716  -0.0186   N.2       1 RES1   0.0000
     5 N4       5.0262   8.0372   2.4510   N.2       1 RES1   0.0000
     6 N5       5.7706   9.6347   0.1313   N.2       1 RES1   0.0000
     7 N6       5.5123  11.6121  -0.7975   N.pl3     1 RES1   0.0000
     8 N7       5.1690   4.6911   1.1971   N.1       1 RES1   0.0000
     9 C1       7.9770   7.8124   2.4242   C.2       1 RES1   0.0000
    10 C2       8.5886   7.5056   0.3422   C.2       1 RES1   0.0000
    11 C3       7.3934   6.9476  -1.7224   C.2       1 RES1   0.0000
    12 C4       5.2888   6.9442  -2.3579   C.2       1 RES1   0.0000
    13 C5       3.1818   7.6093  -1.2946   C.2       1 RES1   0.0000
    14 C6       2.5883   8.1332   0.7534   C.2       1 RES1   0.0000
    15 C7       3.7367   8.1453   2.9207   C.2       1 RES1   0.0000
    16 C8       5.8258   7.9476   3.5770   C.2       1 RES1   0.0000
    17 C9       9.4167   7.8486   2.3992   C.2       1 RES1   0.0000
    18 H1       9.9924   7.9725   3.1444   H         1 RES1   0.0000
    19 C10      9.7950   7.6728   1.1094   C.2       1 RES1   0.0000
    20 H2      10.6840   7.6623   0.7770   H         1 RES1   0.0000
    21 C11      7.3617   6.4840  -3.0861   C.2       1 RES1   0.0000
    22 H3       8.1107   6.2335  -3.6148   H         1 RES1   0.0000
    23 C12      6.0677   6.4712  -3.4748   C.2       1 RES1   0.0000
    24 H4       5.7357   6.2013  -4.3236   H         1 RES1   0.0000
    25 C13      1.7833   7.9561  -1.3362   C.2       1 RES1   0.0000
    26 H5       1.2239   7.9491  -2.1039   H         1 RES1   0.0000
    27 C14      1.4190   8.2919  -0.0811   C.2       1 RES1   0.0000
    28 H6       0.5582   8.5782   0.1999   H         1 RES1   0.0000
    29 C15      3.7312   8.0972   4.3593   C.2       1 RES1   0.0000
    30 H7       2.9659   8.1481   4.9212   H         1 RES1   0.0000
    31 C16      5.0162   7.9668   4.7637   C.2       1 RES1   0.0000
    32 H8       5.3252   7.9003   5.6596   H         1 RES1   0.0000
    33 C17      8.5673   7.1474  -1.0001   C.2       1 RES1   0.0000
    34 C18      3.9129   7.1661  -2.3929   C.2       1 RES1   0.0000
    35 C19      2.5867   8.2725   2.1409   C.2       1 RES1   0.0000
    36 C20      7.2200   7.8850   3.5882   C.2       1 RES1   0.0000
    37 C21      9.8768   6.9310  -1.6883   C.ar      1 RES1   0.0000
    38 C22     10.4655   5.6728  -1.7215   C.ar      1 RES1   0.0000
    39 H9      10.0117   4.9294  -1.3428   H         1 RES1   0.0000
    40 C23     11.7117   5.4966  -2.3049   C.ar      1 RES1   0.0000
    41 H10     12.1155   4.6368  -2.3038   H         1 RES1   0.0000
    42 C24     12.3691   6.5638  -2.8868   C.ar      1 RES1   0.0000
    43 H11     13.2192   6.4402  -3.2899   H         1 RES1   0.0000
    44 C25     11.7765   7.8127  -2.8750   C.ar      1 RES1   0.0000
    45 H12     12.2164   8.5489  -3.2830   H         1 RES1   0.0000
    46 C26     10.5405   7.9961  -2.2704   C.ar      1 RES1   0.0000
    47 H13     10.1476   8.8611  -2.2561   H         1 RES1   0.0000
    48 C27      3.1865   6.9371  -3.6827   C.ar      1 RES1   0.0000
    49 C28      2.2701   5.8936  -3.8038   C.ar      1 RES1   0.0000
    50 H14      2.1125   5.3137  -3.0672   H         1 RES1   0.0000
    51 C29      1.5834   5.6990  -5.0009   C.ar      1 RES1   0.0000
    52 H15      0.9667   4.9811  -5.0802   H         1 RES1   0.0000
    53 C30      1.7957   6.5463  -6.0735   C.ar      1 RES1   0.0000
    54 H16      1.3197   6.4178  -6.8864   H         1 RES1   0.0000
    55 C31      2.7071   7.5841  -5.9572   C.ar      1 RES1   0.0000
    56 H17      2.8557   8.1656  -6.6933   H         1 RES1   0.0000
    57 C32      3.4026   7.7781  -4.7719   C.ar      1 RES1   0.0000
    58 H18      4.0298   8.4885  -4.7030   H         1 RES1   0.0000
    59 C33      1.2828   8.5091   2.8339   C.ar      1 RES1   0.0000
    60 C34      0.2427   7.5779   2.7296   C.ar      1 RES1   0.0000
    61 H19      0.3628   6.7953   2.2061   H         1 RES1   0.0000
    62 C35     -0.9602   7.7875   3.3844   C.ar      1 RES1   0.0000
    63 H20     -1.6599   7.1483   3.3080   H         1 RES1   0.0000
    64 C36     -1.1492   8.9309   4.1544   C.ar      1 RES1   0.0000
    65 H21     -1.9750   9.0727   4.6008   H         1 RES1   0.0000
    66 C37     -0.1370   9.8566   4.2664   C.ar      1 RES1   0.0000
    67 H22     -0.2652  10.6372   4.7916   H         1 RES1   0.0000
    68 C38      1.0815   9.6528   3.6093   C.ar      1 RES1   0.0000
    69 H23      1.7748  10.2968   3.6920   H         1 RES1   0.0000
    70 C39      7.9186   7.8776   4.9066   C.ar      1 RES1   0.0000
    71 C40      8.3550   6.6749   5.4598   C.ar      1 RES1   0.0000
    72 H24      8.2665   5.8697   4.9620   H         1 RES1   0.0000
    73 C41      8.9169   6.6399   6.7267   C.ar      1 RES1   0.0000
    74 H25      9.1937   5.8111   7.1000   H         1 RES1   0.0000
    75 C42      9.0756   7.8138   7.4535   C.ar      1 RES1   0.0000
    76 H26      9.4422   7.7862   8.3292   H         1 RES1   0.0000
    77 C43      8.7003   9.0233   6.8957   C.ar      1 RES1   0.0000
    78 H27      8.8423   9.8325   7.3726   H         1 RES1   0.0000
    79 C44      8.1131   9.0526   5.6318   C.ar      1 RES1   0.0000
    80 H28      7.8419   9.8832   5.2597   H         1 RES1   0.0000
    81 C45      5.3566   5.8124   0.9586   C.1       1 RES1   0.0000
    82 C46      6.6644  10.5215   0.6911   C.2       1 RES1   0.0000
    83 H29      7.2950  10.3094   1.3700   H         1 RES1   0.0000
    84 C47      6.5068  11.7400   0.1245   C.2       1 RES1   0.0000
    85 H30      6.9950  12.5293   0.3294   H         1 RES1   0.0000
    86 C48      5.0995  10.3359  -0.7688   C.2       1 RES1   0.0000
    87 H31      4.4145   9.9817  -1.3223   H         1 RES1   0.0000
    88 C49      4.9933  12.6704  -1.6651   C.3       1 RES1   0.0000
    89 H32      4.2091  12.3382  -2.1516   H         1 RES1   0.0000
    90 H33      5.6857  12.9390  -2.3038   H         1 RES1   0.0000
    91 H34      4.7347  13.4423  -1.1201   H         1 RES1   0.0000
    92 N8       1.6686   4.2385   6.7235   N.pl3     2 RES2   0.0000
    93 N9       1.5127   2.0980   7.2086   N.2       2 RES2   0.0000
    94 C50      1.9451   5.4971   6.0335   C.3       2 RES2   0.0000
    95 H35      1.4588   5.5176   5.1824   H         2 RES2   0.0000
    96 H36      2.9070   5.5712   5.8618   H         2 RES2   0.0000
    97 H37      1.6558   6.2471   6.5933   H         2 RES2   0.0000
    98 C51      1.1246   4.0906   7.9759   C.2       2 RES2   0.0000
    99 H38      0.8580   4.8085   8.5382   H         2 RES2   0.0000
   100 C52      1.0243   2.8188   8.2855   C.2       2 RES2   0.0000
   101 H39      0.6819   2.4608   9.0948   H         2 RES2   0.0000
   102 C53      1.9005   2.9667   6.2264   C.2       2 RES2   0.0000
   103 H40      2.2557   2.7427   5.3756   H         2 RES2   0.0000
   104 C54      2.2592   3.5709   1.1426   C.3       3 RES3   0.0000
   105 H41      3.1851   3.8536   1.3927   H         3 RES3   0.0000
   106 Cl1      2.2923   1.8656   0.7152   Cl        3 RES3   0.0000
   107 Cl2      1.7213   4.5582  -0.2095   Cl        3 RES3   0.0000
   108 Cl3      1.1982   3.8126   2.5410   Cl        3 RES3   0.0000
@<TRIPOS>BOND
     1     1     2    1
     2     2     9    1
     3     3     1    1
     4     4     1    1
     5     5     1    1
     6     6     1    1
     7     7    84    1
     8     8    81    3
     9     9    17    1
    10    10     2    1
    11    11     3    2
    12    12     3    1
    13    13     4    1
    14    14     4    1
    15    15     5    1
    16    16     5    2
    17    17    18    1
    18    19    10    1
    19    20    19    1
    20    21    11    1
    21    22    21    1
    22    23    12    1
    23    24    23    1
    24    25    13    2
    25    26    25    1
    26    27    14    2
    27    28    27    1
    28    29    15    1
    29    30    29    1
    30    31    16    1
    31    32    31    1
    32    33    10    2
    33    34    12    2
    34    35    14    1
    35    36     9    2
    36    37    33    1
    37    38    37   ar
    38    39    38    1
    39    40    38   ar
    40    41    40    1
    41    42    40   ar
    42    43    42    1
    43    44    42   ar
    44    45    44    1
    45    46    37   ar
    46    47    46    1
    47    48    34    1
    48    49    48   ar
    49    50    49    1
    50    51    49   ar
    51    52    51    1
    52    53    51   ar
    53    54    53    1
    54    55    53   ar
    55    56    55    1
    56    57    48   ar
    57    58    57    1
    58    59    35    1
    59    60    59   ar
    60    61    60    1
    61    62    60   ar
    62    63    62    1
    63    64    62   ar
    64    65    64    1
    65    66    64   ar
    66    67    66    1
    67    68    59   ar
    68    69    68    1
    69    70    36    1
    70    71    70   ar
    71    72    71    1
    72    73    71   ar
    73    74    73    1
    74    75    73   ar
    75    76    75    1
    76    77    75   ar
    77    78    77    1
    78    79    70   ar
    79    80    79    1
    80    81     1    1
    81    82     6    1
    82    83    82    1
    83    84    82    2
    84    85    84    1
    85    86     6    2
    86    87    86    1
    87    88     7    1
    88    89    88    1
    89    90    88    1
    90    91    88    1
    91     7    86    1
    92    11    33    1
    93    13    34    1
    94    15    35    2
    95    16    36    1
    96    17    19    2
    97    21    23    2
    98    25    27    1
    99    29    31    2
   100    44    46   ar
   101    55    57   ar
   102    66    68   ar
   103    77    79   ar
   104    92    94    1
   105    93   100    1
   106    94    95    1
   107    96    94    1
   108    97    94    1
   109    98    92    1
   110    99    98    1
   111   100    98    2
   112   101   100    1
   113   102    92    1
   114   103   102    1
   115    93   102    2
   116   104   105    1
   117   106   104    1
   118   107   104    1
   119   108   104    1
@<TRIPOS>SUBSTRUCTURE
     1 RES1        1 GROUP             0 ****  ****    0  
     2 RES2       92 GROUP             0 ****  ****    0  
     3 RES3      104 GROUP             0 ****  ****    0  
@<TRIPOS>CRYSIN
   20.7612    9.7535   26.5363   90.0000  121.1090   90.0000    14     1
