@<TRIPOS>MOLECULE
NIKCOA
   100    98     8     0     0
SMALL
USER_CHARGES
****
Generated from the CSD

@<TRIPOS>ATOM
     1 Fe1      1.7295  12.4154  11.1572   Fe        1 RES1   0.0000
     2 N1       1.6433  15.0050  12.8420   N.1       1 RES1   0.0000
     3 N2       3.5231  11.0157  13.2631   N.1       1 RES1   0.0000
     4 N3       4.2585  13.5462   9.7661   N.1       1 RES1   0.0000
     5 N4       2.0313   9.8038   9.5464   N.1       1 RES1   0.0000
     6 N5       0.0124  13.8615   9.0462   N.1       1 RES1   0.0000
     7 N6      -0.9058  11.4018  12.4255   N.1       1 RES1   0.0000
     8 C1       1.6513  14.0339  12.2323   C.1       1 RES1  -1.0000
     9 C2       2.8304  11.5405  12.5107   C.1       1 RES1   0.0000
    10 C3       3.3221  13.1177  10.2835   C.1       1 RES1  -1.0000
    11 C4       1.8823  10.7899  10.1164   C.1       1 RES1   0.0000
    12 C5       0.6584  13.2987   9.8079   C.1       1 RES1  -1.0000
    13 C6       0.0855  11.7684  11.9768   C.1       1 RES1   0.0000
    14 O1       3.0593   7.2498   2.5249   O.3       2 RES2   0.0000
    15 H37      3.1021   7.9412   2.0370   H         2 RES2   0.0000
    16 H38      3.7172   6.7644   2.3270   H         2 RES2   0.0000
    17 O2       0.8004   6.4499   1.0612   O.3       3 RES3   0.0000
    18 H39      0.2159   6.3639   1.6542   H         3 RES3   0.0000
    19 H40      1.5352   6.0179   1.3804   H         3 RES3   0.0000
    20 O3       5.6249   9.4644  14.5630   O.3       4 RES4   0.0000
    21 H41      5.6681   8.7191  14.2031   H         4 RES4   0.0000
    22 H42      5.0227   9.9174  14.1915   H         4 RES4   0.0000
    23 O4       8.4479   9.6327  14.2189   O.3       5 RES5   0.0000
    24 H43      7.6782   9.9389  14.4583   H         5 RES5   0.0000
    25 H44      8.7430  10.2120  13.6672   H         5 RES5   0.0000
    26 N7       7.7695  10.4495   9.5958   N.ar      6 RES6   1.0000
    27 C7       8.0884   9.2239  10.0276   C.ar      6 RES6   0.0000
    28 H1       8.9250   8.8647   9.8392   H         6 RES6   0.0000
    29 C8       7.1686   8.4923  10.7551   C.ar      6 RES6   0.0000
    30 H2       7.3780   7.6433  11.0734   H         6 RES6   0.0000
    31 C9       5.9549   9.0435  10.9925   C.ar      6 RES6   0.0000
    32 H3       5.3100   8.5618  11.4609   H         6 RES6   0.0000
    33 C10      5.6804  10.2666  10.5605   C.ar      6 RES6   0.0000
    34 H4       4.8516  10.6489  10.7393   H         6 RES6   0.0000
    35 C11      6.5891  10.9452   9.8758   C.ar      6 RES6   0.0000
    36 H5       6.3828  11.8042   9.5840   H         6 RES6   0.0000
    37 C12      8.7478  11.2216   8.8026   C.3       6 RES6   0.0000
    38 H6       9.5621  10.7019   8.7093   H         6 RES6   0.0000
    39 H7       8.9678  12.0392   9.2777   H         6 RES6   0.0000
    40 C13      8.2234  11.5741   7.4245   C.ar      6 RES6   0.0000
    41 C14      7.9092  10.5877   6.5220   C.ar      6 RES6   0.0000
    42 H8       7.9567   9.6972   6.7860   H         6 RES6   0.0000
    43 C15      7.5296  10.8839   5.2537   C.ar      6 RES6   0.0000
    44 H9       7.3125  10.2020   4.6586   H         6 RES6   0.0000
    45 C16      7.4675  12.1848   4.8549   C.ar      6 RES6   0.0000
    46 H10      7.2289  12.3901   3.9788   H         6 RES6   0.0000
    47 C17      7.7509  13.1812   5.7274   C.ar      6 RES6   0.0000
    48 H11      7.6931  14.0667   5.4520   H         6 RES6   0.0000
    49 C18      8.1205  12.8899   7.0141   C.ar      6 RES6   0.0000
    50 H12      8.3027  13.5784   7.6120   H         6 RES6   0.0000
    51 N8       3.8666   9.6204   5.7135   N.ar      7 RES7   1.0000
    52 C19      3.9611  10.3725   6.8023   C.ar      7 RES7   0.0000
    53 H13      3.9520   9.9736   7.6421   H         7 RES7   0.0000
    54 C20      4.0724  11.7280   6.6981   C.ar      7 RES7   0.0000
    55 H14      4.1428  12.2560   7.4612   H         7 RES7   0.0000
    56 C21      4.0762  12.2974   5.4567   C.ar      7 RES7   0.0000
    57 H15      4.1709  13.2193   5.3708   H         7 RES7   0.0000
    58 C22      3.9420  11.5212   4.3398   C.ar      7 RES7   0.0000
    59 H16      3.9165  11.9018   3.4916   H         7 RES7   0.0000
    60 C23      3.8467  10.1696   4.5034   C.ar      7 RES7   0.0000
    61 H17      3.7659   9.6228   3.7538   H         7 RES7   0.0000
    62 C24      3.8413   8.1335   5.8476   C.3       7 RES7   0.0000
    63 H18      3.4503   7.7409   5.0507   H         7 RES7   0.0000
    64 H19      3.2944   7.8832   6.6074   H         7 RES7   0.0000
    65 C25      5.2393   7.6063   6.0360   C.ar      7 RES7   0.0000
    66 C26      6.0513   7.3576   4.9521   C.ar      7 RES7   0.0000
    67 H20      5.7336   7.5142   4.0925   H         7 RES7   0.0000
    68 C27      7.3392   6.8753   5.1367   C.ar      7 RES7   0.0000
    69 H21      7.8833   6.7164   4.3987   H         7 RES7   0.0000
    70 C28      7.8180   6.6303   6.4009   C.ar      7 RES7   0.0000
    71 H22      8.6838   6.3142   6.5239   H         7 RES7   0.0000
    72 C29      7.0091   6.8554   7.4781   C.ar      7 RES7   0.0000
    73 H23      7.3216   6.6783   8.3358   H         7 RES7   0.0000
    74 C30      5.7333   7.3460   7.2999   C.ar      7 RES7   0.0000
    75 H24      5.1961   7.5042   8.0435   H         7 RES7   0.0000
    76 N9      -0.0484   1.6323   9.8178   N.ar      8 RES8   1.0000
    77 C31      0.5080   2.8153  10.0436   C.ar      8 RES8   0.0000
    78 H25     -0.0163   3.5833  10.0341   H         8 RES8   0.0000
    79 C32      1.8461   2.9064  10.2916   C.ar      8 RES8   0.0000
    80 H26      2.2426   3.7356  10.4401   H         8 RES8   0.0000
    81 C33      2.5902   1.7776  10.3190   C.ar      8 RES8   0.0000
    82 H27      3.5050   1.8289  10.4818   H         8 RES8   0.0000
    83 C34      2.0089   0.5760  10.1095   C.ar      8 RES8   0.0000
    84 H28      2.5164  -0.2036  10.1315   H         8 RES8   0.0000
    85 C35      0.6705   0.5197   9.8640   C.ar      8 RES8   0.0000
    86 H29      0.2593  -0.3029   9.7278   H         8 RES8   0.0000
    87 C36     -1.5012   1.5608   9.4947   C.3       8 RES8   0.0000
    88 H30     -1.9634   2.3056   9.9088   H         8 RES8   0.0000
    89 H31     -1.8731   0.7382   9.8485   H         8 RES8   0.0000
    90 C37     -1.7031   1.6071   8.0047   C.ar      8 RES8   0.0000
    91 C38     -1.6747   0.4585   7.2572   C.ar      8 RES8   0.0000
    92 H32     -1.5500  -0.3641   7.6746   H         8 RES8   0.0000
    93 C39     -1.8319   0.5164   5.8810   C.ar      8 RES8   0.0000
    94 H33     -1.7886  -0.2615   5.3732   H         8 RES8   0.0000
    95 C40     -2.0507   1.7213   5.2732   C.ar      8 RES8   0.0000
    96 H34     -2.1771   1.7627   4.3523   H         8 RES8   0.0000
    97 C41     -2.0834   2.8716   6.0204   C.ar      8 RES8   0.0000
    98 H35     -2.2246   3.6909   5.6052   H         8 RES8   0.0000
    99 C42     -1.9090   2.8137   7.3737   C.ar      8 RES8   0.0000
   100 H36     -1.9296   3.5965   7.8741   H         8 RES8   0.0000
@<TRIPOS>BOND
     1     1     8    1
     2     2     8    3
     3     3     9    3
     4     4    10    3
     5     5    11    3
     6     6    12    3
     7     7    13    3
     8     9     1    1
     9    10     1    1
    10    11     1    1
    11    12     1    1
    12    13     1    1
    13    14    15    1
    14    16    14    1
    15    17    18    1
    16    19    17    1
    17    20    21    1
    18    22    20    1
    19    23    24    1
    20    25    23    1
    21    26    27   ar
    22    27    28    1
    23    29    27   ar
    24    30    29    1
    25    31    29   ar
    26    32    31    1
    27    33    31   ar
    28    34    33    1
    29    35    26   ar
    30    36    35    1
    31    37    26    1
    32    38    37    1
    33    39    37    1
    34    40    37    1
    35    41    40   ar
    36    42    41    1
    37    43    41   ar
    38    44    43    1
    39    45    43   ar
    40    46    45    1
    41    47    45   ar
    42    48    47    1
    43    49    40   ar
    44    50    49    1
    45    33    35   ar
    46    47    49   ar
    47    51    52   ar
    48    52    53    1
    49    54    52   ar
    50    55    54    1
    51    56    54   ar
    52    57    56    1
    53    58    56   ar
    54    59    58    1
    55    60    51   ar
    56    61    60    1
    57    62    51    1
    58    63    62    1
    59    64    62    1
    60    65    62    1
    61    66    65   ar
    62    67    66    1
    63    68    66   ar
    64    69    68    1
    65    70    68   ar
    66    71    70    1
    67    72    70   ar
    68    73    72    1
    69    74    65   ar
    70    75    74    1
    71    58    60   ar
    72    72    74   ar
    73    76    77   ar
    74    77    78    1
    75    79    77   ar
    76    80    79    1
    77    81    79   ar
    78    82    81    1
    79    83    81   ar
    80    84    83    1
    81    85    76   ar
    82    86    85    1
    83    87    76    1
    84    88    87    1
    85    89    87    1
    86    90    87    1
    87    91    90   ar
    88    92    91    1
    89    93    91   ar
    90    94    93    1
    91    95    93   ar
    92    96    95    1
    93    97    95   ar
    94    98    97    1
    95    99    90   ar
    96   100    99    1
    97    83    85   ar
    98    97    99   ar
@<TRIPOS>SUBSTRUCTURE
     1 RES1        1 GROUP             0 ****  ****    0  
     2 RES2       14 GROUP             0 ****  ****    0  
     3 RES3       17 GROUP             0 ****  ****    0  
     4 RES4       20 GROUP             0 ****  ****    0  
     5 RES5       23 GROUP             0 ****  ****    0  
     6 RES6       26 GROUP             0 ****  ****    0  
     7 RES7       51 GROUP             0 ****  ****    0  
     8 RES8       76 GROUP             0 ****  ****    0  
@<TRIPOS>CRYSIN
   10.8370   16.5510   23.4020   90.0000   97.5310   90.0000    14     1
