@<TRIPOS>MOLECULE
NIPGOM
   123   135     3     0     0
SMALL
USER_CHARGES
****
Generated from the CSD

@<TRIPOS>ATOM
     1 Fe1     10.7453   6.2023  13.9455   Fe        1 RES1   1.0000
     2 O1      11.0627   6.4601  11.8505   O.3       1 RES1   0.0000
     3 N1       8.7360   6.2043  13.6809   N.2       1 RES1   0.0000
     4 N2      10.7473   4.1922  13.6962   N.2       1 RES1   0.0000
     5 C1       5.2843  11.6633  13.9455   C.ar      1 RES1   0.0000
     6 H1       4.6126  12.3350  13.9455   H         1 RES1   0.0000
     7 C2       5.7232  11.1227  12.7573   C.ar      1 RES1   0.0000
     8 H2       5.3691  11.4393  11.9334   H         1 RES1   0.0000
     9 C3       6.6858  10.1109  12.7592   C.ar      1 RES1   0.0000
    10 H3       6.9499   9.7089  11.9391   H         1 RES1   0.0000
    11 C4       7.2566   9.6910  13.9455   C.ar      1 RES1   0.0000
    12 C5       8.3138   8.6338  13.9455   C.2       1 RES1   0.0000
    13 C6       7.9094   7.3146  13.7263   C.2       1 RES1   0.0000
    14 C7       6.5452   6.8926  13.5612   C.2       1 RES1   0.0000
    15 H4       5.7825   7.4576  13.5358   H         1 RES1   0.0000
    16 C8       6.5418   5.5520  13.4490   C.2       1 RES1   0.0000
    17 H5       5.7782   4.9976  13.3463   H         1 RES1   0.0000
    18 C9       7.9078   5.1148  13.5132   C.2       1 RES1   0.0000
    19 C10      8.3162   3.7827  13.4308   C.2       1 RES1   0.0000
    20 C11      7.2756   2.7116  13.3088   C.ar      1 RES1   0.0000
    21 C12      6.5604   2.5371  12.1307   C.ar      1 RES1   0.0000
    22 H6       6.6945   3.1287  11.3996   H         1 RES1   0.0000
    23 C13      5.6520   1.4965  12.0266   C.ar      1 RES1   0.0000
    24 H7       5.1831   1.3644  11.2121   H         1 RES1   0.0000
    25 C14      5.4198   0.6542  13.0883   C.ar      1 RES1   0.0000
    26 H8       4.7924  -0.0544  13.0077   H         1 RES1   0.0000
    27 C15      6.1011   0.8423  14.2653   C.ar      1 RES1   0.0000
    28 H9       5.9371   0.2721  15.0074   H         1 RES1   0.0000
    29 C16      7.0299   1.8659  14.3732   C.ar      1 RES1   0.0000
    30 H10      7.5029   1.9875  15.1874   H         1 RES1   0.0000
    31 C17      9.6618   3.3658  13.5074   C.2       1 RES1   0.0000
    32 C18     10.0991   2.0015  13.3968   C.2       1 RES1   0.0000
    33 H11      9.5490   1.2405  13.2563   H         1 RES1   0.0000
    34 C19     11.4464   2.0083  13.5312   C.2       1 RES1   0.0000
    35 H12     12.0158   1.2488  13.5032   H         1 RES1   0.0000
    36 C20     11.8599   3.3616  13.7222   C.2       1 RES1   0.0000
    37 C21     13.1752   3.7724  13.9455   C.2       1 RES1   0.0000
    38 C22     14.2356   2.7120  13.9455   C.ar      1 RES1   0.0000
    39 C23     14.6715   2.1608  12.7506   C.ar      1 RES1   0.0000
    40 H13     14.3020   2.4584  11.9274   H         1 RES1   0.0000
    41 C24     15.6494   1.1728  12.7573   C.ar      1 RES1   0.0000
    42 H14     15.9394   0.7894  11.9383   H         1 RES1   0.0000
    43 C25     16.2002   0.7474  13.9455   C.ar      1 RES1   0.0000
    44 H15     16.8713   0.0763  13.9455   H         1 RES1   0.0000
    45 C26     10.2618   5.8113  10.8496   C.3       1 RES1   0.0000
    46 H16      9.4434   6.3378  10.6640   H         1 RES1   0.0000
    47 H17      9.9959   4.9064  11.1485   H         1 RES1   0.0000
    48 C27     11.1125   5.7300   9.6373   C.3       1 RES1   0.0000
    49 H18     10.5637   5.8063   8.8174   H         1 RES1   0.0000
    50 H19     11.6071   4.8730   9.6135   H         1 RES1   0.0000
    51 C28     12.0650   6.8943   9.7526   C.3       1 RES1   0.0000
    52 H20     11.6753   7.7149   9.3610   H         1 RES1   0.0000
    53 H21     12.9250   6.6971   9.3025   H         1 RES1   0.0000
    54 C29     12.2531   7.0383  11.2457   C.3       1 RES1   0.0000
    55 H22     13.0644   6.5551  11.5423   H         1 RES1   0.0000
    56 H23     12.3419   7.9922  11.4940   H         1 RES1   0.0000
    57 N1G     10.7433   8.2116  14.2101   N.2       1 RES1   0.0000
    58 N2G     12.7554   6.2003  14.1948   N.2       1 RES1   0.0000
    59 C2G      5.8249  11.2244  15.1337   C.ar      1 RES1   0.0000
    60 H2G      5.5083  11.5785  15.9576   H         1 RES1   0.0000
    61 C3G      6.8367  10.2618  15.1318   C.ar      1 RES1   0.0000
    62 H3G      7.2387   9.9977  15.9519   H         1 RES1   0.0000
    63 C6G      9.6330   9.0382  14.1647   C.2       1 RES1   0.0000
    64 C7G     10.0550  10.4024  14.3298   C.2       1 RES1   0.0000
    65 H4G      9.4900  11.1651  14.3552   H         1 RES1   0.0000
    66 C8G     11.3956  10.4058  14.4420   C.2       1 RES1   0.0000
    67 H5G     11.9500  11.1694  14.5447   H         1 RES1   0.0000
    68 C9G     11.8328   9.0398  14.3778   C.2       1 RES1   0.0000
    69 C10G    13.1649   8.6314  14.4602   C.2       1 RES1   0.0000
    70 C11G    14.2360   9.6720  14.5822   C.ar      1 RES1   0.0000
    71 C12G    14.4105  10.3872  15.7603   C.ar      1 RES1   0.0000
    72 H6G     13.8189  10.2531  16.4914   H         1 RES1   0.0000
    73 C13G    15.4511  11.2956  15.8644   C.ar      1 RES1   0.0000
    74 H7G     15.5832  11.7645  16.6789   H         1 RES1   0.0000
    75 C14G    16.2934  11.5278  14.8027   C.ar      1 RES1   0.0000
    76 H8G     17.0020  12.1552  14.8833   H         1 RES1   0.0000
    77 C15G    16.1053  10.8465  13.6257   C.ar      1 RES1   0.0000
    78 H9G     16.6755  11.0105  12.8836   H         1 RES1   0.0000
    79 C16G    15.0817   9.9177  13.5178   C.ar      1 RES1   0.0000
    80 H10G    14.9601   9.4447  12.7036   H         1 RES1   0.0000
    81 C17G    13.5818   7.2858  14.3836   C.2       1 RES1   0.0000
    82 C18G    14.9461   6.8485  14.4942   C.2       1 RES1   0.0000
    83 H11G    15.7071   7.3986  14.6347   H         1 RES1   0.0000
    84 C19G    14.9393   5.5012  14.3598   C.2       1 RES1   0.0000
    85 H12G    15.6988   4.9318  14.3878   H         1 RES1   0.0000
    86 C20G    13.5860   5.0877  14.1688   C.2       1 RES1   0.0000
    87 C23G    14.7868   2.2761  15.1404   C.ar      1 RES1   0.0000
    88 H13G    14.4892   2.6456  15.9636   H         1 RES1   0.0000
    89 C24G    15.7748   1.2982  15.1337   C.ar      1 RES1   0.0000
    90 H14G    16.1582   1.0082  15.9527   H         1 RES1   0.0000
    91 O1G     10.4875   5.8849  16.0405   O.3       1 RES1   0.0000
    92 C26G    11.1363   6.6858  17.0414   C.3       1 RES1   0.0000
    93 H16G    10.6098   7.5042  17.2270   H         1 RES1   0.0000
    94 H17G    12.0412   6.9517  16.7425   H         1 RES1   0.0000
    95 C27G    11.2176   5.8351  18.2537   C.3       1 RES1   0.0000
    96 H18G    11.1413   6.3839  19.0736   H         1 RES1   0.0000
    97 H19G    12.0746   5.3405  18.2775   H         1 RES1   0.0000
    98 C28G    10.0533   4.8826  18.1384   C.3       1 RES1   0.0000
    99 H20G     9.2327   5.2723  18.5300   H         1 RES1   0.0000
   100 H21G    10.2505   4.0226  18.5885   H         1 RES1   0.0000
   101 C29G     9.9093   4.6945  16.6453   C.3       1 RES1   0.0000
   102 H22G    10.3925   3.8832  16.3487   H         1 RES1   0.0000
   103 H23G     8.9554   4.6057  16.3970   H         1 RES1   0.0000
   104 P1       6.2113   6.2113   9.2970   P.3       2 RES2   0.0000
   105 F1       5.8601   4.9973   8.3351   F         2 RES2  -1.0000
   106 F2       7.1536   5.2910  10.1534   F         2 RES2   0.0000
   107 F3       6.5638   7.4373  10.2442   F         2 RES2   0.0000
   108 F1F      4.9973   5.8601  10.2589   F         2 RES2   0.0000
   109 F2F      5.2910   7.1536   8.4406   F         2 RES2   0.0000
   110 F3F      7.4373   6.5638   8.3498   F         2 RES2   0.0000
   111 O2      15.7528   7.0214  10.6674   O.3       3 RES3   0.0000
   112 C30     15.7291   5.6944  10.2025   C.3       3 RES3   0.0000
   113 H24     15.6870   5.6824   9.2141   H         3 RES3   0.0000
   114 H25     14.9307   5.2266  10.5550   H         3 RES3   0.0000
   115 C31     16.9561   5.0165  10.6637   C.3       3 RES3   0.0000
   116 H26     17.3643   4.4908   9.9311   H         3 RES3   0.0000
   117 H27     16.7585   4.4086  11.4211   H         3 RES3   0.0000
   118 C32     17.8560   6.1096  11.0895   C.3       3 RES3   0.0000
   119 H28     18.3032   5.8826  11.9434   H         3 RES3   0.0000
   120 H29     18.5464   6.2824  10.4030   H         3 RES3   0.0000
   121 C33     16.9883   7.2739  11.2568   C.3       3 RES3   0.0000
   122 H30     16.8677   7.4681  12.2193   H         3 RES3   0.0000
   123 H31     17.4059   8.0657  10.8311   H         3 RES3   0.0000
@<TRIPOS>BOND
     1     1     2    1
     2     2    45    1
     3     3     1    1
     4     4     1    1
     5     5     6    1
     6     7     5   ar
     7     8     7    1
     8     9     7   ar
     9    10     9    1
    10    11     9   ar
    11    12    11    1
    12    13     3    2
    13    14    13    1
    14    15    14    1
    15    16    14    2
    16    17    16    1
    17    18     3    1
    18    19    18    2
    19    20    19    1
    20    21    20   ar
    21    22    21    1
    22    23    21   ar
    23    24    23    1
    24    25    23   ar
    25    26    25    1
    26    27    25   ar
    27    28    27    1
    28    29    20   ar
    29    30    29    1
    30    31     4    1
    31    32    31    2
    32    33    32    1
    33    34    32    1
    34    35    34    1
    35    36     4    1
    36    37    36    1
    37    38    37    1
    38    39    38   ar
    39    40    39    1
    40    41    39   ar
    41    42    41    1
    42    43    41   ar
    43    44    43    1
    44    45    46    1
    45    47    45    1
    46    48    45    1
    47    49    48    1
    48    50    48    1
    49    51    48    1
    50    52    51    1
    51    53    51    1
    52    54     2    1
    53    55    54    1
    54    56    54    1
    55    57     1    1
    56    58     1    1
    57    59     5   ar
    58    60    59    1
    59    61    11   ar
    60    62    61    1
    61    63    12    2
    62    64    63    1
    63    65    64    1
    64    66    64    2
    65    67    66    1
    66    68    57    1
    67    69    68    2
    68    70    69    1
    69    71    70   ar
    70    72    71    1
    71    73    71   ar
    72    74    73    1
    73    75    73   ar
    74    76    75    1
    75    77    75   ar
    76    78    77    1
    77    79    70   ar
    78    80    79    1
    79    81    58    2
    80    82    81    1
    81    83    82    1
    82    84    82    2
    83    85    84    1
    84    86    37    2
    85    87    38   ar
    86    88    87    1
    87    89    43   ar
    88    90    89    1
    89    91     1    1
    90    92    91    1
    91    93    92    1
    92    94    92    1
    93    95    92    1
    94    96    95    1
    95    97    95    1
    96    98    95    1
    97    99    98    1
    98   100    98    1
    99   101    91    1
   100   102   101    1
   101   103   101    1
   102    12    13    1
   103    16    18    1
   104    19    31    1
   105    27    29   ar
   106    34    36    2
   107    51    54    1
   108    57    63    1
   109    58    86    1
   110    59    61   ar
   111    66    68    1
   112    69    81    1
   113    77    79   ar
   114    84    86    1
   115    87    89   ar
   116    98   101    1
   117   104   105    1
   118   106   104    1
   119   107   104    1
   120   108   104    1
   121   109   104    1
   122   110   104    1
   123   111   112    1
   124   112   113    1
   125   114   112    1
   126   115   112    1
   127   116   115    1
   128   117   115    1
   129   118   115    1
   130   119   118    1
   131   120   118    1
   132   121   111    1
   133   122   121    1
   134   123   121    1
   135   118   121    1
@<TRIPOS>SUBSTRUCTURE
     1 RES1        1 GROUP             0 ****  ****    0  
     2 RES2      104 GROUP             0 ****  ****    0  
     3 RES3      111 GROUP             0 ****  ****    0  
@<TRIPOS>CRYSIN
   16.9476   16.9476   18.5940   90.0000   90.0000   90.0000    92     1
