@<TRIPOS>MOLECULE
NIPGIG
   123   135     3     0     0
SMALL
USER_CHARGES
****
Generated from the CSD

@<TRIPOS>ATOM
     1 Sb1     10.8677   6.2303  14.0190   Sb        1 RES1   0.0000
     2 F1       9.4501   6.6716  15.1218   F         1 RES1  -1.0000
     3 F2       9.7390   5.1174  13.0676   F         1 RES1   0.0000
     4 F3      11.2932   4.8370  15.1611   F         1 RES1   0.0000
     5 F1G     10.4264   7.6479  12.9162   F         1 RES1   0.0000
     6 F2G     11.9806   7.3590  14.9704   F         1 RES1   0.0000
     7 F3G     12.2610   5.8048  12.8769   F         1 RES1   0.0000
     8 Fe1      6.2136   6.2136   9.3460   Fe        2 RES2   1.0000
     9 O1       5.8937   6.4613  11.4451   O.3       2 RES2   0.0000
    10 N1       4.2061   6.1963   9.1105   N.2       2 RES2   0.0000
    11 N2       6.2083   8.2293   9.0955   N.2       2 RES2   0.0000
    12 C1       0.7574   0.7574   9.3460   C.ar      2 RES2   0.0000
    13 H1       0.0858   0.0858   9.3460   H         2 RES2   0.0000
    14 C2       1.1917   1.3046   8.1721   C.ar      2 RES2   0.0000
    15 H2       0.8180   1.0098   7.3496   H         2 RES2   0.0000
    16 C3       2.1732   2.2894   8.1684   C.ar      2 RES2   0.0000
    17 H3       2.4581   2.6587   7.3406   H         2 RES2   0.0000
    18 C4       2.7442   2.7442   9.3460   C.ar      2 RES2   0.0000
    19 C5       3.7940   3.7940   9.3460   C.2       2 RES2   0.0000
    20 C6       3.3683   5.1055   9.1366   C.2       2 RES2   0.0000
    21 C7       2.0261   5.5209   8.9609   C.2       2 RES2   0.0000
    22 H4       1.2665   4.9503   8.9304   H         2 RES2   0.0000
    23 C8       2.0090   6.8529   8.8469   C.2       2 RES2   0.0000
    24 H5       1.2421   7.3973   8.7159   H         2 RES2   0.0000
    25 C9       3.3786   7.3111   8.9572   C.2       2 RES2   0.0000
    26 C10      3.7889   8.6447   8.8656   C.2       2 RES2   0.0000
    27 C11      2.7254   9.6929   8.7310   C.ar      2 RES2   0.0000
    28 C12      1.9098   9.9220   9.8731   C.ar      2 RES2   0.0000
    29 H6       2.0267   9.4665  10.6983   H         2 RES2   0.0000
    30 C13      0.9062  10.9017   9.6563   C.ar      2 RES2   0.0000
    31 H7       0.3389  11.1026  10.3921   H         2 RES2   0.0000
    32 C14      0.6839  11.5548   8.5497   C.ar      2 RES2   0.0000
    33 H8      -0.0359  12.1710   8.4820   H         2 RES2   0.0000
    34 C15      1.5422  11.3206   7.4600   C.ar      2 RES2   0.0000
    35 H9       1.4237  11.7913   6.6443   H         2 RES2   0.0000
    36 C16      2.5544  10.4007   7.5946   C.ar      2 RES2   0.0000
    37 H10      3.1493  10.2582   6.8678   H         2 RES2   0.0000
    38 C17      5.1379   9.0414   8.9553   C.2       2 RES2   0.0000
    39 C18      5.5483  10.4178   8.9086   C.2       2 RES2   0.0000
    40 H11      4.9880  11.1808   8.8249   H         2 RES2   0.0000
    41 C19      6.9127  10.4041   9.0077   C.2       2 RES2   0.0000
    42 H12      7.4828  11.1642   8.9932   H         2 RES2   0.0000
    43 C20      7.3299   9.0466   9.1366   C.2       2 RES2   0.0000
    44 C21      8.6396   8.6396   9.3460   C.2       2 RES2   0.0000
    45 C22      9.7185   9.7185   9.3460   C.ar      2 RES2   0.0000
    46 C23     10.3101  10.0673  10.5385   C.ar      2 RES2   0.0000
    47 H13     10.0607   9.6390  11.3491   H         2 RES2   0.0000
    48 C24     11.2932  11.0744  10.5273   C.ar      2 RES2   0.0000
    49 H14     11.7016  11.3455  11.3423   H         2 RES2   0.0000
    50 C25     11.6677  11.6677   9.3460   C.ar      2 RES2   0.0000
    51 H15     12.3397  12.3397   9.3460   H         2 RES2   0.0000
    52 C26      4.7430   7.0752  12.0638   C.3       2 RES2   0.0000
    53 H16      3.9101   6.6341  11.7621   H         2 RES2   0.0000
    54 H17      4.6954   8.0362  11.8289   H         2 RES2   0.0000
    55 C27      4.9191   6.9059  13.5498   C.3       2 RES2   0.0000
    56 H18      5.2692   7.7363  13.9608   H         2 RES2   0.0000
    57 H19      4.0609   6.6710  13.9828   H         2 RES2   0.0000
    58 C28      5.9056   5.7894  13.6844   C.3       2 RES2   0.0000
    59 H20      6.4834   5.9295  14.4766   H         2 RES2   0.0000
    60 H21      5.4387   4.9226  13.7814   H         2 RES2   0.0000
    61 C29      6.7127   5.8082  12.4470   C.3       2 RES2   0.0000
    62 H22      7.5539   6.3098  12.5883   H         2 RES2   0.0000
    63 H23      6.9365   4.8858  12.1652   H         2 RES2   0.0000
    64 N1F      6.1963   4.2061   9.5815   N.2       2 RES2   0.0000
    65 N2F      8.2293   6.2083   9.5965   N.2       2 RES2   0.0000
    66 C2F      1.3046   1.1917  10.5199   C.ar      2 RES2   0.0000
    67 H2F      1.0098   0.8180  11.3424   H         2 RES2   0.0000
    68 C3F      2.2894   2.1732  10.5236   C.ar      2 RES2   0.0000
    69 H3F      2.6587   2.4581  11.3514   H         2 RES2   0.0000
    70 C6F      5.1055   3.3683   9.5554   C.2       2 RES2   0.0000
    71 C7F      5.5209   2.0261   9.7311   C.2       2 RES2   0.0000
    72 H4F      4.9503   1.2665   9.7616   H         2 RES2   0.0000
    73 C8F      6.8529   2.0090   9.8451   C.2       2 RES2   0.0000
    74 H5F      7.3973   1.2421   9.9761   H         2 RES2   0.0000
    75 C9F      7.3111   3.3786   9.7348   C.2       2 RES2   0.0000
    76 C10F     8.6447   3.7889   9.8264   C.2       2 RES2   0.0000
    77 C11F     9.6929   2.7254   9.9610   C.ar      2 RES2   0.0000
    78 C12F     9.9220   1.9098   8.8189   C.ar      2 RES2   0.0000
    79 H6F      9.4665   2.0267   7.9937   H         2 RES2   0.0000
    80 C13F    10.9017   0.9062   9.0357   C.ar      2 RES2   0.0000
    81 H7F     11.1026   0.3389   8.2999   H         2 RES2   0.0000
    82 C14F    11.5548   0.6839  10.1423   C.ar      2 RES2   0.0000
    83 H8F     12.1710  -0.0359  10.2100   H         2 RES2   0.0000
    84 C15F    11.3206   1.5422  11.2320   C.ar      2 RES2   0.0000
    85 H9F     11.7913   1.4237  12.0477   H         2 RES2   0.0000
    86 C16F    10.4007   2.5544  11.0974   C.ar      2 RES2   0.0000
    87 H10F    10.2582   3.1493  11.8242   H         2 RES2   0.0000
    88 C17F     9.0414   5.1379   9.7367   C.2       2 RES2   0.0000
    89 C18F    10.4178   5.5483   9.7834   C.2       2 RES2   0.0000
    90 H11F    11.1808   4.9880   9.8671   H         2 RES2   0.0000
    91 C19F    10.4041   6.9127   9.6843   C.2       2 RES2   0.0000
    92 H12F    11.1642   7.4828   9.6988   H         2 RES2   0.0000
    93 C20F     9.0466   7.3299   9.5554   C.2       2 RES2   0.0000
    94 C23F    10.0673  10.3101   8.1535   C.ar      2 RES2   0.0000
    95 H13F     9.6390  10.0607   7.3429   H         2 RES2   0.0000
    96 C24F    11.0744  11.2932   8.1647   C.ar      2 RES2   0.0000
    97 H14F    11.3455  11.7016   7.3497   H         2 RES2   0.0000
    98 O1F      6.4613   5.8937   7.2469   O.3       2 RES2   0.0000
    99 C26F     7.0752   4.7430   6.6282   C.3       2 RES2   0.0000
   100 H16F     6.6341   3.9101   6.9299   H         2 RES2   0.0000
   101 H17F     8.0362   4.6954   6.8631   H         2 RES2   0.0000
   102 C27F     6.9059   4.9191   5.1422   C.3       2 RES2   0.0000
   103 H18F     7.7363   5.2692   4.7312   H         2 RES2   0.0000
   104 H19F     6.6710   4.0609   4.7092   H         2 RES2   0.0000
   105 C28F     5.7894   5.9056   5.0076   C.3       2 RES2   0.0000
   106 H20F     5.9295   6.4834   4.2154   H         2 RES2   0.0000
   107 H21F     4.9226   5.4387   4.9106   H         2 RES2   0.0000
   108 C29F     5.8082   6.7127   6.2450   C.3       2 RES2   0.0000
   109 H22F     6.3098   7.5539   6.1037   H         2 RES2   0.0000
   110 H23F     4.8858   6.9365   6.5268   H         2 RES2   0.0000
   111 O2       1.2328   7.0324  12.7087   O.3       3 RES3   0.0000
   112 C30     -0.0274   7.2632  12.2152   C.3       3 RES3   0.0000
   113 H24      0.0449   7.5616  11.2745   H         3 RES3   0.0000
   114 H25     -0.4474   7.9940  12.7337   H         3 RES3   0.0000
   115 C31     -0.8617   6.1211  12.2732   C.3       3 RES3   0.0000
   116 H26     -1.2379   5.9162  11.3801   H         3 RES3   0.0000
   117 H27     -1.6052   6.2608  12.9101   H         3 RES3   0.0000
   118 C32      0.0342   5.0217  12.7349   C.3       3 RES3   0.0000
   119 H28     -0.3895   4.5021  13.4625   H         3 RES3   0.0000
   120 H29      0.2579   4.4099  11.9896   H         3 RES3   0.0000
   121 C33      1.2516   5.7295  13.2246   C.3       3 RES3   0.0000
   122 H30      1.2538   5.7555  14.2149   H         3 RES3   0.0000
   123 H31      2.0658   5.2549  12.9227   H         3 RES3   0.0000
@<TRIPOS>BOND
     1     1     2    1
     2     3     1    1
     3     4     1    1
     4     5     1    1
     5     6     1    1
     6     7     1    1
     7     8     9    1
     8     9    52    1
     9    10     8    1
    10    11     8    1
    11    12    13    1
    12    14    12   ar
    13    15    14    1
    14    16    14   ar
    15    17    16    1
    16    18    16   ar
    17    19    18    1
    18    20    10    1
    19    21    20    1
    20    22    21    1
    21    23    21    2
    22    24    23    1
    23    25    10    1
    24    26    25    2
    25    27    26    1
    26    28    27   ar
    27    29    28    1
    28    30    28   ar
    29    31    30    1
    30    32    30   ar
    31    33    32    1
    32    34    32   ar
    33    35    34    1
    34    36    27   ar
    35    37    36    1
    36    38    11    2
    37    39    38    1
    38    40    39    1
    39    41    39    2
    40    42    41    1
    41    43    11    1
    42    44    43    2
    43    45    44    1
    44    46    45   ar
    45    47    46    1
    46    48    46   ar
    47    49    48    1
    48    50    48   ar
    49    51    50    1
    50    52    53    1
    51    54    52    1
    52    55    52    1
    53    56    55    1
    54    57    55    1
    55    58    55    1
    56    59    58    1
    57    60    58    1
    58    61     9    1
    59    62    61    1
    60    63    61    1
    61    64     8    1
    62    65     8    1
    63    66    12   ar
    64    67    66    1
    65    68    18   ar
    66    69    68    1
    67    70    19    1
    68    71    70    1
    69    72    71    1
    70    73    71    2
    71    74    73    1
    72    75    64    1
    73    76    75    2
    74    77    76    1
    75    78    77   ar
    76    79    78    1
    77    80    78   ar
    78    81    80    1
    79    82    80   ar
    80    83    82    1
    81    84    82   ar
    82    85    84    1
    83    86    77   ar
    84    87    86    1
    85    88    65    1
    86    89    88    2
    87    90    89    1
    88    91    89    1
    89    92    91    1
    90    93    44    1
    91    94    45   ar
    92    95    94    1
    93    96    50   ar
    94    97    96    1
    95    98     8    1
    96    99    98    1
    97   100    99    1
    98   101    99    1
    99   102    99    1
   100   103   102    1
   101   104   102    1
   102   105   102    1
   103   106   105    1
   104   107   105    1
   105   108    98    1
   106   109   108    1
   107   110   108    1
   108    19    20    2
   109    23    25    1
   110    26    38    1
   111    34    36   ar
   112    41    43    1
   113    58    61    1
   114    64    70    2
   115    65    93    1
   116    66    68   ar
   117    73    75    1
   118    76    88    1
   119    84    86   ar
   120    91    93    2
   121    94    96   ar
   122   105   108    1
   123   111   112    1
   124   112   113    1
   125   114   112    1
   126   115   112    1
   127   116   115    1
   128   117   115    1
   129   118   115    1
   130   119   118    1
   131   120   118    1
   132   121   111    1
   133   122   121    1
   134   123   121    1
   135   118   121    1
@<TRIPOS>SUBSTRUCTURE
     1 RES1        1 GROUP             0 ****  ****    0  
     2 RES2        8 GROUP             0 ****  ****    0  
     3 RES3      111 GROUP             0 ****  ****    0  
@<TRIPOS>CRYSIN
   17.0980   17.0980   18.6920   90.0000   90.0000   90.0000    92     1
