@<TRIPOS>MOLECULE
NIPJEB01
   101   110     1     0     0
SMALL
NO_CHARGES
****
Generated from the CSD

@<TRIPOS>ATOM
     1 Fe1     13.7235   4.4344  12.6431   Fe        1 RES1   0.0000
     2 H1      13.9752   3.0506  12.1060   H         1 RES1   0.0000
     3 H2      13.4625   5.8030  13.1806   H         1 RES1   0.0000
     4 P1      12.0861   4.4961  11.2334   P.3       1 RES1   0.0000
     5 P2      12.0366   3.6669  13.7471   P.3       1 RES1   0.0000
     6 P3      15.3963   4.2180  14.0029   P.3       1 RES1   0.0000
     7 P4      15.3848   5.3186  11.5761   P.3       1 RES1   0.0000
     8 C1      10.8449   3.6529  12.3330   C.3       1 RES1   0.0000
     9 H3      10.0323   4.1940  12.4972   H         1 RES1   0.0000
    10 H4      10.6044   2.7418  12.0295   H         1 RES1   0.0000
    11 C2      11.9380   3.4979   9.7092   C.ar      1 RES1   0.0000
    12 C3      10.7405   3.4754   8.9934   C.ar      1 RES1   0.0000
    13 H5      10.0583   4.1027   9.2020   H         1 RES1   0.0000
    14 C4      10.5320   2.5497   7.9814   C.ar      1 RES1   0.0000
    15 H6       9.7078   2.5368   7.5092   H         1 RES1   0.0000
    16 C5      11.5250   1.6494   7.6637   C.ar      1 RES1   0.0000
    17 H7      11.3888   1.0155   6.9694   H         1 RES1   0.0000
    18 C6      12.7160   1.6704   8.3554   C.ar      1 RES1   0.0000
    19 H8      13.3971   1.0449   8.1375   H         1 RES1   0.0000
    20 C7      12.9321   2.5985   9.3703   C.ar      1 RES1   0.0000
    21 H9      13.7630   2.6141   9.8305   H         1 RES1   0.0000
    22 C8      11.3583   6.1040  10.7480   C.ar      1 RES1   0.0000
    23 C9      10.7457   6.9000  11.7193   C.ar      1 RES1   0.0000
    24 H10     10.5844   6.5425  12.5846   H         1 RES1   0.0000
    25 C10     10.3691   8.2063  11.4371   C.ar      1 RES1   0.0000
    26 H11      9.9334   8.7278  12.1009   H         1 RES1   0.0000
    27 C11     10.6274   8.7509  10.1904   C.ar      1 RES1   0.0000
    28 H12     10.3823   9.6490  10.0015   H         1 RES1   0.0000
    29 C12     11.2425   7.9822   9.2239   C.ar      1 RES1   0.0000
    30 H13     11.4264   8.3562   8.3704   H         1 RES1   0.0000
    31 C13     11.5962   6.6595   9.4911   C.ar      1 RES1   0.0000
    32 H14     12.0020   6.1334   8.8121   H         1 RES1   0.0000
    33 C14     11.0915   4.5624  15.0397   C.ar      1 RES1   0.0000
    34 C15     11.6227   5.6677  15.7005   C.ar      1 RES1   0.0000
    35 H15     12.4920   5.9812  15.4802   H         1 RES1   0.0000
    36 C16     10.8759   6.3141  16.6875   C.ar      1 RES1   0.0000
    37 H16     11.2365   7.0721  17.1321   H         1 RES1   0.0000
    38 C17      9.6150   5.8572  17.0208   C.ar      1 RES1   0.0000
    39 H17      9.1208   6.2881  17.7083   H         1 RES1   0.0000
    40 C18      9.0683   4.7680  16.3513   C.ar      1 RES1   0.0000
    41 H18      8.1961   4.4617  16.5701   H         1 RES1   0.0000
    42 C19      9.8027   4.1314  15.3632   C.ar      1 RES1   0.0000
    43 H19      9.4249   3.3929  14.9001   H         1 RES1   0.0000
    44 C20     12.0967   1.9951  14.4919   C.ar      1 RES1   0.0000
    45 C21     11.9459   0.8289  13.7404   C.ar      1 RES1   0.0000
    46 H20     11.6591   0.8856  12.8365   H         1 RES1   0.0000
    47 C22     12.2111  -0.4161  14.3027   C.ar      1 RES1   0.0000
    48 H21     12.0973  -1.2045  13.7849   H         1 RES1   0.0000
    49 C23     12.6405  -0.5071  15.6149   C.ar      1 RES1   0.0000
    50 H22     12.8342  -1.3569  15.9928   H         1 RES1   0.0000
    51 C24     12.7881   0.6380  16.3781   C.ar      1 RES1   0.0000
    52 H23     13.0719   0.5740  17.2824   H         1 RES1   0.0000
    53 C25     12.5199   1.8835  15.8180   C.ar      1 RES1   0.0000
    54 H24     12.6262   2.6673  16.3442   H         1 RES1   0.0000
    55 C26     16.6239   5.1280  12.9511   C.3       1 RES1   0.0000
    56 H25     17.4082   4.5789  12.6992   H         1 RES1   0.0000
    57 H26     16.9124   5.9908  13.3418   H         1 RES1   0.0000
    58 C27     15.4302   5.0650  15.6344   C.ar      1 RES1   0.0000
    59 C28     15.3145   6.4578  15.6791   C.ar      1 RES1   0.0000
    60 H27     15.2990   6.9544  14.8693   H         1 RES1   0.0000
    61 C29     15.2218   7.1228  16.8959   C.ar      1 RES1   0.0000
    62 H28     15.1485   8.0699  16.9118   H         1 RES1   0.0000
    63 C30     15.2355   6.4135  18.0860   C.ar      1 RES1   0.0000
    64 H29     15.1626   6.8701  18.9159   H         1 RES1   0.0000
    65 C31     15.3555   5.0393  18.0571   C.ar      1 RES1   0.0000
    66 H30     15.3851   4.5501  18.8709   H         1 RES1   0.0000
    67 C32     15.4334   4.3659  16.8396   C.ar      1 RES1   0.0000
    68 H31     15.4893   3.4176  16.8313   H         1 RES1   0.0000
    69 C33     16.2108   2.6220  14.3934   C.ar      1 RES1   0.0000
    70 C34     17.4260   2.5632  15.0902   C.ar      1 RES1   0.0000
    71 H32     17.8643   3.3670  15.3436   H         1 RES1   0.0000
    72 C35     17.9932   1.3367  15.4121   C.ar      1 RES1   0.0000
    73 H33     18.8071   1.3047  15.9009   H         1 RES1   0.0000
    74 C36     17.3744   0.1591  15.0216   C.ar      1 RES1   0.0000
    75 H34     17.7619  -0.6784  15.2474   H         1 RES1   0.0000
    76 C37     16.1917   0.2029  14.3025   C.ar      1 RES1   0.0000
    77 H35     15.7778  -0.6035  14.0180   H         1 RES1   0.0000
    78 C38     15.6084   1.4345  13.9960   C.ar      1 RES1   0.0000
    79 H36     14.7917   1.4605  13.5114   H         1 RES1   0.0000
    80 C39     16.1494   4.5278  10.1073   C.ar      1 RES1   0.0000
    81 C40     15.9131   5.0065   8.8158   C.ar      1 RES1   0.0000
    82 H37     15.4032   5.7991   8.6962   H         1 RES1   0.0000
    83 C41     16.4134   4.3397   7.7037   C.ar      1 RES1   0.0000
    84 H38     16.2403   4.6757   6.8321   H         1 RES1   0.0000
    85 C42     17.1645   3.1853   7.8630   C.ar      1 RES1   0.0000
    86 H39     17.5208   2.7382   7.1043   H         1 RES1   0.0000
    87 C43     17.3918   2.6883   9.1357   C.ar      1 RES1   0.0000
    88 H40     17.9006   1.8940   9.2490   H         1 RES1   0.0000
    89 C44     16.8789   3.3459  10.2487   C.ar      1 RES1   0.0000
    90 H41     17.0267   2.9865  11.1156   H         1 RES1   0.0000
    91 C45     15.4855   7.0944  11.1300   C.ar      1 RES1   0.0000
    92 C46     16.6672   7.6557  10.6309   C.ar      1 RES1   0.0000
    93 H42     17.4199   7.1000  10.4663   H         1 RES1   0.0000
    94 C47     16.7477   9.0176  10.3747   C.ar      1 RES1   0.0000
    95 H43     17.5561   9.3928  10.0455   H         1 RES1   0.0000
    96 C48     15.6426   9.8321  10.6007   C.ar      1 RES1   0.0000
    97 H44     15.6976  10.7648  10.4285   H         1 RES1   0.0000
    98 C49     14.4620   9.2851  11.0761   C.ar      1 RES1   0.0000
    99 H45     13.7039   9.8399  11.2173   H         1 RES1   0.0000
   100 C50     14.3875   7.9203  11.3476   C.ar      1 RES1   0.0000
   101 H46     13.5797   7.5507  11.6842   H         1 RES1   0.0000
@<TRIPOS>BOND
     1     1     2    1
     2     3     1    1
     3     4     1    1
     4     5     1    1
     5     6     1    1
     6     7     1    1
     7     8     4    1
     8     9     8    1
     9    10     8    1
    10    11     4    1
    11    12    11   ar
    12    13    12    1
    13    14    12   ar
    14    15    14    1
    15    16    14   ar
    16    17    16    1
    17    18    16   ar
    18    19    18    1
    19    20    11   ar
    20    21    20    1
    21    22     4    1
    22    23    22   ar
    23    24    23    1
    24    25    23   ar
    25    26    25    1
    26    27    25   ar
    27    28    27    1
    28    29    27   ar
    29    30    29    1
    30    31    22   ar
    31    32    31    1
    32    33     5    1
    33    34    33   ar
    34    35    34    1
    35    36    34   ar
    36    37    36    1
    37    38    36   ar
    38    39    38    1
    39    40    38   ar
    40    41    40    1
    41    42    33   ar
    42    43    42    1
    43    44     5    1
    44    45    44   ar
    45    46    45    1
    46    47    45   ar
    47    48    47    1
    48    49    47   ar
    49    50    49    1
    50    51    49   ar
    51    52    51    1
    52    53    44   ar
    53    54    53    1
    54    55     6    1
    55    56    55    1
    56    57    55    1
    57    58     6    1
    58    59    58   ar
    59    60    59    1
    60    61    59   ar
    61    62    61    1
    62    63    61   ar
    63    64    63    1
    64    65    63   ar
    65    66    65    1
    66    67    58   ar
    67    68    67    1
    68    69     6    1
    69    70    69   ar
    70    71    70    1
    71    72    70   ar
    72    73    72    1
    73    74    72   ar
    74    75    74    1
    75    76    74   ar
    76    77    76    1
    77    78    69   ar
    78    79    78    1
    79    80     7    1
    80    81    80   ar
    81    82    81    1
    82    83    81   ar
    83    84    83    1
    84    85    83   ar
    85    86    85    1
    86    87    85   ar
    87    88    87    1
    88    89    80   ar
    89    90    89    1
    90    91     7    1
    91    92    91   ar
    92    93    92    1
    93    94    92   ar
    94    95    94    1
    95    96    94   ar
    96    97    96    1
    97    98    96   ar
    98    99    98    1
    99   100    91   ar
   100   101   100    1
   101     5     8    1
   102     7    55    1
   103    18    20   ar
   104    29    31   ar
   105    40    42   ar
   106    51    53   ar
   107    65    67   ar
   108    76    78   ar
   109    87    89   ar
   110    98   100   ar
@<TRIPOS>SUBSTRUCTURE
     1 RES1        1 GROUP             0 ****  ****    0  
@<TRIPOS>CRYSIN
   18.5300    9.9367   22.3410   90.0000   90.5620   90.0000    14     1
