@<TRIPOS>MOLECULE
NISBIA
   114   121     3     0     0
SMALL
USER_CHARGES
****
Generated from the CSD

@<TRIPOS>ATOM
     1 Fe1      1.7733   5.3572   8.0537   Fe        1 RES1   1.0000
     2 Cl1      0.4508   7.1212   7.2690   Cl        1 RES1   0.0000
     3 P1       3.1712   3.7177   8.6610   P.3       1 RES1   0.0000
     4 P2       3.0522   5.5410   6.2281   P.3       1 RES1   0.0000
     5 P3       0.2691   3.9104   7.1865   P.3       1 RES1   0.0000
     6 P4       0.4651   5.3720   9.8619   P.3       1 RES1   0.0000
     7 O1       3.3547   7.2190   9.2471   O.2       1 RES1   0.0000
     8 C1       2.8701   6.6350   8.9847   C.1       1 RES1   0.0000
     9 C2       2.6916   2.0812   9.2971   C.3       1 RES1   0.0000
    10 C3       3.5369   1.7788  10.6467   C.3       1 RES1   0.0000
    11 C4       4.8281   2.5793  10.5342   C.3       1 RES1   0.0000
    12 C5       4.4889   4.0112  10.0219   C.3       1 RES1   0.0000
    13 C6       4.2272   3.2730   7.1853   C.3       1 RES1   0.0000
    14 C7       4.5744   4.5152   6.5105   C.3       1 RES1   0.0000
    15 C8       3.5719   7.2279   5.6482   C.3       1 RES1   0.0000
    16 C9       3.4479   7.3525   4.1487   C.3       1 RES1   0.0000
    17 C10      3.0851   6.0776   3.5489   C.3       1 RES1   0.0000
    18 C11      2.5198   5.0400   4.4986   C.3       1 RES1   0.0000
    19 C12      0.6040   2.2976   6.3855   C.3       1 RES1   0.0000
    20 C13     -0.4464   2.0753   5.3108   C.3       1 RES1   0.0000
    21 C14     -1.0410   3.2612   4.9485   C.3       1 RES1   0.0000
    22 C15     -0.8237   4.4559   5.7982   C.3       1 RES1   0.0000
    23 C16     -0.8839   3.4391   8.5098   C.3       1 RES1   0.0000
    24 C17     -1.1461   4.6664   9.3221   C.3       1 RES1   0.0000
    25 C18      0.0864   6.9700  10.6342   C.3       1 RES1   0.0000
    26 C19      0.4506   6.7477  12.0712   C.3       1 RES1   0.0000
    27 C20      0.2261   5.2772  12.4461   C.3       1 RES1   0.0000
    28 C21      0.8682   4.4708  11.4589   C.3       1 RES1   0.0000
    29 H1       1.7452   2.0753   9.4995   H         1 RES1   0.0000
    30 H2       2.8877   1.4053   8.6335   H         1 RES1   0.0000
    31 H3       3.7323   0.8301  10.7067   H         1 RES1   0.0000
    32 H4       3.0311   2.0575  11.4239   H         1 RES1   0.0000
    33 H5       5.2469   2.6356  11.4052   H         1 RES1   0.0000
    34 H6       5.4257   2.1435   9.9094   H         1 RES1   0.0000
    35 H7       5.2742   4.4411   9.6532   H         1 RES1   0.0000
    36 H8       4.1258   4.5567  10.7379   H         1 RES1   0.0000
    37 H9       5.0349   2.8194   7.4889   H         1 RES1   0.0000
    38 H10      3.7370   2.6919   6.5917   H         1 RES1   0.0000
    39 H11      4.9869   4.3047   5.6495   H         1 RES1   0.0000
    40 H12      5.2096   5.0133   7.0478   H         1 RES1   0.0000
    41 H13      3.0108   7.8980   6.0719   H         1 RES1   0.0000
    42 H14      4.4983   7.3791   5.9007   H         1 RES1   0.0000
    43 H15      4.2871   7.6400   3.7813   H         1 RES1   0.0000
    44 H16      2.7529   7.9958   3.9450   H         1 RES1   0.0000
    45 H17      2.4157   6.2377   2.8654   H         1 RES1   0.0000
    46 H18      3.8778   5.6952   3.1415   H         1 RES1   0.0000
    47 H19      2.8700   4.1595   4.2874   H         1 RES1   0.0000
    48 H20      1.5504   5.0222   4.4436   H         1 RES1   0.0000
    49 H21      1.4903   2.3125   5.9806   H         1 RES1   0.0000
    50 H22      0.5634   1.5891   7.0403   H         1 RES1   0.0000
    51 H23     -0.0231   1.6780   4.5286   H         1 RES1   0.0000
    52 H24     -1.1211   1.4675   5.6495   H         1 RES1   0.0000
    53 H25     -0.7224   3.4776   4.0575   H         1 RES1   0.0000
    54 H26     -1.9988   3.0922   4.9135   H         1 RES1   0.0000
    55 H27     -1.6740   4.7761   6.1518   H         1 RES1   0.0000
    56 H28     -0.3994   5.1615   5.2933   H         1 RES1   0.0000
    57 H29     -1.7161   3.1100   8.1300   H         1 RES1   0.0000
    58 H30     -0.4910   2.7512   9.0684   H         1 RES1   0.0000
    59 H31     -1.6802   4.4352  10.1031   H         1 RES1   0.0000
    60 H32     -1.6285   5.3187   8.7885   H         1 RES1   0.0000
    61 H33      0.6303   7.6786  10.2480   H         1 RES1   0.0000
    62 H34     -0.8480   7.1924  10.5430   H         1 RES1   0.0000
    63 H35      1.3864   6.9670  12.2024   H         1 RES1   0.0000
    64 H36     -0.0984   7.3169  12.6298   H         1 RES1   0.0000
    65 H37     -0.7321   5.0993  12.4686   H         1 RES1   0.0000
    66 H38      0.5994   5.1111  13.3258   H         1 RES1   0.0000
    67 H39      0.5070   3.5695  11.4477   H         1 RES1   0.0000
    68 H40      1.8266   4.4322  11.6001   H         1 RES1   0.0000
    69 O2       9.3143   3.3798  12.5086   O.3       2 RES2   0.0000
    70 C22      1.1189  -2.6534   7.2352   C.ar      3 RES3   0.0000
    71 C23      1.0195  -1.5713   6.2605   C.ar      3 RES3   0.0000
    72 C24      0.7654  -1.6454   4.9235   C.ar      3 RES3   0.0000
    73 C25      0.6050  -2.9054   4.4986   C.ar      3 RES3   0.0000
    74 C26      0.6007  -4.0350   5.2734   C.ar      3 RES3   0.0000
    75 C27      0.8807  -3.8897   6.6104   C.ar      3 RES3   0.0000
    76 C28      0.6177  -1.2541   9.5095   C.ar      3 RES3   0.0000
    77 C29      1.0124  -0.6819  10.7716   C.ar      3 RES3   0.0000
    78 C30      0.2415   0.2401  11.3964   C.ar      3 RES3   0.0000
    79 C31     -1.0568   0.6315  10.8091   C.ar      3 RES3   0.0000
    80 C32     -1.4079   0.1216   9.5720   C.ar      3 RES3   0.0000
    81 C33     -0.6280  -0.7679   8.9597   C.ar      3 RES3   0.0000
    82 C34      3.1442  -2.0634   8.8972   C.ar      3 RES3   0.0000
    83 C35      3.9424  -2.3836  10.0718   C.ar      3 RES3   0.0000
    84 C36      5.2840  -2.0101  10.2843   C.ar      3 RES3   0.0000
    85 C37      5.8841  -1.2452   9.3471   C.ar      3 RES3   0.0000
    86 C38      5.1992  -0.8568   8.2224   C.ar      3 RES3   0.0000
    87 C39      3.8704  -1.2689   8.0100   C.ar      3 RES3   0.0000
    88 C40      1.2614  -3.7800   9.5595   C.ar      3 RES3   0.0000
    89 C41      0.2918  -3.9786  10.5592   C.ar      3 RES3   0.0000
    90 C42      0.0781  -5.0696  11.4214   C.ar      3 RES3   0.0000
    91 C43      0.9092  -6.1725  11.1715   C.ar      3 RES3   0.0000
    92 C44      1.8578  -6.1280  10.1968   C.ar      3 RES3   0.0000
    93 C45      1.9963  -4.9362   9.4470   C.ar      3 RES3   0.0000
    94 B1       1.5284  -2.4577   8.7723   B         3 RES3  -1.0000
    95 H41      1.1726  -0.6789   6.6079   H         3 RES3   0.0000
    96 H42      0.6909  -0.8687   4.3486   H         3 RES3   0.0000
    97 H43      0.4715  -3.0121   3.5414   H         3 RES3   0.0000
    98 H44      0.4195  -4.9066   4.8810   H         3 RES3   0.0000
    99 H45      0.9035  -4.6902   7.1653   H         3 RES3   0.0000
   100 H46      1.8502  -0.9546  11.1703   H         3 RES3   0.0000
   101 H47      0.5322   0.6374  12.2312   H         3 RES3   0.0000
   102 H48     -1.6514   1.2363  11.2802   H         3 RES3   0.0000
   103 H49     -2.2349   0.4091   9.1559   H         3 RES3   0.0000
   104 H50     -0.9090  -1.1029   8.0987   H         3 RES3   0.0000
   105 H51      3.5156  -2.9024  10.7766   H         3 RES3   0.0000
   106 H52      5.7678  -2.2976  11.0740   H         3 RES3   0.0000
   107 H53      6.7952  -0.9457   9.4745   H         3 RES3   0.0000
   108 H54      5.6328  -0.2965   7.5564   H         3 RES3   0.0000
   109 H55      3.4394  -0.9872   7.1890   H         3 RES3   0.0000
   110 H56     -0.3223  -3.2404  10.6779   H         3 RES3   0.0000
   111 H57     -0.5920  -5.0696  12.1187   H         3 RES3   0.0000
   112 H58      0.8026  -6.9759  11.7063   H         3 RES3   0.0000
   113 H59      2.4164  -6.8989  10.0256   H         3 RES3   0.0000
   114 H60      2.6891  -4.9362   8.7798   H         3 RES3   0.0000
@<TRIPOS>BOND
     1     1     2    1
     2     3     1    1
     3     4     1    1
     4     5     1    1
     5     6     1    1
     6     7     8    3
     7     8     1    1
     8     9     3    1
     9    10     9    1
    10    11    10    1
    11    12     3    1
    12    13     3    1
    13    14     4    1
    14    15     4    1
    15    16    15    1
    16    17    16    1
    17    18     4    1
    18    19     5    1
    19    20    19    1
    20    21    20    1
    21    22     5    1
    22    23     5    1
    23    24     6    1
    24    25     6    1
    25    26    25    1
    26    27    26    1
    27    28     6    1
    28    29     9    1
    29    30     9    1
    30    31    10    1
    31    32    10    1
    32    33    11    1
    33    34    11    1
    34    35    12    1
    35    36    12    1
    36    37    13    1
    37    38    13    1
    38    39    14    1
    39    40    14    1
    40    41    15    1
    41    42    15    1
    42    43    16    1
    43    44    16    1
    44    45    17    1
    45    46    17    1
    46    47    18    1
    47    48    18    1
    48    49    19    1
    49    50    19    1
    50    51    20    1
    51    52    20    1
    52    53    21    1
    53    54    21    1
    54    55    22    1
    55    56    22    1
    56    57    23    1
    57    58    23    1
    58    59    24    1
    59    60    24    1
    60    61    25    1
    61    62    25    1
    62    63    26    1
    63    64    26    1
    64    65    27    1
    65    66    27    1
    66    67    28    1
    67    68    28    1
    68    11    12    1
    69    13    14    1
    70    17    18    1
    71    21    22    1
    72    23    24    1
    73    27    28    1
    74    70    71   ar
    75    71    72   ar
    76    72    73   ar
    77    73    74   ar
    78    74    75   ar
    79    75    70   ar
    80    76    77   ar
    81    77    78   ar
    82    78    79   ar
    83    79    80   ar
    84    80    81   ar
    85    81    76   ar
    86    82    83   ar
    87    83    84   ar
    88    84    85   ar
    89    85    86   ar
    90    86    87   ar
    91    87    82   ar
    92    88    89   ar
    93    89    90   ar
    94    90    91   ar
    95    91    92   ar
    96    92    93   ar
    97    93    88   ar
    98    94    70    1
    99    95    71    1
   100    96    72    1
   101    97    73    1
   102    98    74    1
   103    99    75    1
   104   100    77    1
   105   101    78    1
   106   102    79    1
   107   103    80    1
   108   104    81    1
   109   105    83    1
   110   106    84    1
   111   107    85    1
   112   108    86    1
   113   109    87    1
   114   110    89    1
   115   111    90    1
   116   112    91    1
   117   113    92    1
   118   114    93    1
   119    76    94    1
   120    82    94    1
   121    88    94    1
@<TRIPOS>SUBSTRUCTURE
     1 RES1        1 GROUP             0 ****  ****    0  
     2 RES2       69 GROUP             0 ****  ****    0  
     3 RES3       70 GROUP             0 ****  ****    0  
@<TRIPOS>CRYSIN
   12.9380   29.6470   13.1310   90.0000  107.8900   90.0000    14     2
