@<TRIPOS>MOLECULE
NIXWEZ02
   129   136     7     0     0
SMALL
USER_CHARGES
****
Generated from the CSD

@<TRIPOS>ATOM
     1 Fe1     14.1004   6.6451  12.3196   Fe        1 RES1   2.0000
     2 N1      15.1367   5.3404  10.9700   N.2       1 RES1   0.0000
     3 N2      15.3758   3.2504  10.2138   N.pl3     1 RES1   0.0000
     4 H1      15.2579   2.3824  10.1301   H         1 RES1   0.0000
     5 N3      13.3945   4.7586  12.8224   N.ar      1 RES1   0.0000
     6 N4      12.6808   6.9884  13.9041   N.2       1 RES1   0.0000
     7 N5      12.0124   8.0301  14.4460   N.pl3     1 RES1   0.0000
     8 H2      12.2422   8.8699  14.3211   H         1 RES1   0.0000
     9 N6      12.6827   7.1931  10.8196   N.2       1 RES1   0.0000
    10 N7      12.0666   8.6818   9.2392   N.pl3     1 RES1   0.0000
    11 H3      12.0822   9.3897   8.7162   H         1 RES1   0.0000
    12 N8      14.8027   8.4998  11.6170   N.ar      1 RES1   0.0000
    13 N9      15.8243   7.0826  13.5188   N.2       1 RES1   0.0000
    14 N10     16.5286   6.5674  14.5120   N.pl3     1 RES1   0.0000
    15 H4      16.3249   5.8035  14.8977   H         1 RES1   0.0000
    16 C1      16.0582   5.3502   9.9295   C.ar      1 RES1   0.0000
    17 C2      16.8051   6.3903   9.3814   C.ar      1 RES1   0.0000
    18 H5      16.7209   7.2823   9.6964   H         1 RES1   0.0000
    19 C3      17.6793   6.0539   8.3491   C.ar      1 RES1   0.0000
    20 H6      18.1958   6.7409   7.9452   H         1 RES1   0.0000
    21 C4      17.8202   4.7521   7.8896   C.ar      1 RES1   0.0000
    22 H7      18.4333   4.5734   7.1850   H         1 RES1   0.0000
    23 C5      17.1047   3.7217   8.4233   C.ar      1 RES1   0.0000
    24 H8      17.1981   2.8298   8.1082   H         1 RES1   0.0000
    25 C6      16.2279   4.0451   9.4494   C.ar      1 RES1   0.0000
    26 C7      14.7678   4.0532  11.1019   C.2       1 RES1   0.0000
    27 C8      13.8297   3.6957  12.1548   C.ar      1 RES1   0.0000
    28 C9      13.3852   2.4069  12.4453   C.ar      1 RES1   0.0000
    29 H9      13.6986   1.6578  11.9534   H         1 RES1   0.0000
    30 C10     12.4681   2.2525  13.4797   C.ar      1 RES1   0.0000
    31 H10     12.1573   1.3852  13.7137   H         1 RES1   0.0000
    32 C11     12.0078   3.3658  14.1720   C.ar      1 RES1   0.0000
    33 H11     11.3869   3.2678  14.8859   H         1 RES1   0.0000
    34 C12     12.4568   4.6074  13.8114   C.ar      1 RES1   0.0000
    35 C13     12.0361   5.8881  14.3348   C.2       1 RES1   0.0000
    36 C14     10.9312   6.2521  15.1528   C.2       1 RES1   0.0000
    37 H12     10.3130   5.6705  15.5757   H         1 RES1   0.0000
    38 C15     10.9534   7.6466  15.2002   C.2       1 RES1   0.0000
    39 C16     10.0165   8.5583  15.8018   C.ar      1 RES1   0.0000
    40 C17      9.0534   8.0789  16.7126   C.ar      1 RES1   0.0000
    41 H13      9.0510   7.1597  16.9534   H         1 RES1   0.0000
    42 C18      8.1262   8.9126  17.2462   C.ar      1 RES1   0.0000
    43 H14      7.5035   8.5604  17.8720   H         1 RES1   0.0000
    44 C19      8.0509  10.2745  16.9145   C.ar      1 RES1   0.0000
    45 C20      9.0090  10.7556  16.0223   C.ar      1 RES1   0.0000
    46 H15      9.0084  11.6761  15.7866   H         1 RES1   0.0000
    47 C21      9.9700   9.9040  15.4701   C.ar      1 RES1   0.0000
    48 H16     10.6031  10.2529  14.8554   H         1 RES1   0.0000
    49 C22      7.0127  11.1749  17.5141   C.3       1 RES1   0.0000
    50 H17      7.0966  11.1675  18.4906   H         1 RES1   0.0000
    51 H18      6.1192  10.8564  17.2622   H         1 RES1   0.0000
    52 H19      7.1383  12.0877  17.1820   H         1 RES1   0.0000
    53 C23     11.5098   6.7706  10.2612   C.ar      1 RES1   0.0000
    54 C24     10.7286   5.6817  10.5414   C.ar      1 RES1   0.0000
    55 H20     10.9820   5.0519  11.2057   H         1 RES1   0.0000
    56 C25      9.5300   5.5289   9.8038   C.ar      1 RES1   0.0000
    57 H21      8.9542   4.7930   9.9749   H         1 RES1   0.0000
    58 C26      9.2023   6.4553   8.8333   C.ar      1 RES1   0.0000
    59 H22      8.3939   6.3261   8.3516   H         1 RES1   0.0000
    60 C27      9.9736   7.5604   8.5119   C.ar      1 RES1   0.0000
    61 H23      9.7306   8.1734   7.8282   H         1 RES1   0.0000
    62 C28     11.1164   7.7018   9.2619   C.ar      1 RES1   0.0000
    63 C29     12.9900   8.3422  10.1953   C.2       1 RES1   0.0000
    64 C30     14.1828   9.0784  10.5662   C.ar      1 RES1   0.0000
    65 C31     14.7111  10.2241   9.9563   C.ar      1 RES1   0.0000
    66 H24     14.2718  10.6426   9.2245   H         1 RES1   0.0000
    67 C32     15.9102  10.7247  10.4631   C.ar      1 RES1   0.0000
    68 H25     16.3258  11.4680  10.0446   H         1 RES1   0.0000
    69 C33     16.4801  10.1559  11.5511   C.ar      1 RES1   0.0000
    70 H26     17.2588  10.5438  11.9340   H         1 RES1   0.0000
    71 C34     15.9333   9.0117  12.1074   C.ar      1 RES1   0.0000
    72 C35     16.4713   8.2609  13.2159   C.2       1 RES1   0.0000
    73 C36     17.5623   8.4153  14.0504   C.2       1 RES1   0.0000
    74 H27     18.1715   9.1440  14.0502   H         1 RES1   0.0000
    75 C37     17.5996   7.3199  14.8829   C.2       1 RES1   0.0000
    76 C38     18.5340   6.9217  15.9255   C.ar      1 RES1   0.0000
    77 C39     19.4501   7.8270  16.4179   C.ar      1 RES1   0.0000
    78 H28     19.4680   8.7070  16.0602   H         1 RES1   0.0000
    79 C40     20.3444   7.4889  17.4214   C.ar      1 RES1   0.0000
    80 H29     20.9614   8.1358  17.7413   H         1 RES1   0.0000
    81 C41     20.3453   6.1823  17.9736   C.ar      1 RES1   0.0000
    82 C42     19.4432   5.3177  17.4791   C.ar      1 RES1   0.0000
    83 H30     19.4204   4.4386  17.8372   H         1 RES1   0.0000
    84 C43     18.5554   5.6411  16.4756   C.ar      1 RES1   0.0000
    85 H31     17.9506   4.9824  16.1544   H         1 RES1   0.0000
    86 C44     21.2908   5.8345  19.1233   C.3       1 RES1   0.0000
    87 H32     22.1559   6.2711  18.9790   H         1 RES1   0.0000
    88 H33     21.4166   4.8636  19.1615   H         1 RES1   0.0000
    89 H34     20.9053   6.1467  19.9697   H         1 RES1   0.0000
    90 B1      15.2334   3.0716  16.2510   B         2 RES2  -1.0000
    91 F1      15.5876   4.1914  15.6370   F         2 RES2   0.0000
    92 F2      16.1766   2.7011  17.1618   F         2 RES2   0.0000
    93 F3      14.0224   3.2341  16.8135   F         2 RES2   0.0000
    94 F4      15.2342   2.1095  15.2991   F         2 RES2   0.0000
    95 B2      15.2654  12.8553   7.0839   B         3 RES3  -1.0000
    96 F5      15.0519  11.5113   6.9356   F         3 RES3   0.0000
    97 F6      15.9171  13.1901   8.1698   F         3 RES3   0.0000
    98 F7      13.9616  13.4355   7.2179   F         3 RES3   0.0000
    99 F8      15.7768  13.3868   5.9548   F         3 RES3   0.0000
   100 O1      14.0712  -1.1848  11.5366   O.3       4 RES4   0.0000
   101 C45     15.0343  -1.7260  12.4906   C.3       4 RES4   0.0000
   102 H35     14.7852  -2.6655  12.7227   H         4 RES4   0.0000
   103 C46     16.3912  -1.7146  11.8107   C.3       4 RES4   0.0000
   104 H36     16.3613  -2.2839  11.0129   H         4 RES4   0.0000
   105 H37     17.0703  -2.0565  12.4295   H         4 RES4   0.0000
   106 H38     16.6191  -0.7984  11.5494   H         4 RES4   0.0000
   107 C47     14.9578  -0.8581  13.7331   C.3       4 RES4   0.0000
   108 H39     15.2608   0.0491  13.5193   H         4 RES4   0.0000
   109 H40     15.5293  -1.2365  14.4337   H         4 RES4   0.0000
   110 H41     14.0306  -0.8250  14.0518   H         4 RES4   0.0000
   111 C48     12.8278  -1.8462  11.5408   C.3       4 RES4   0.0000
   112 H42     12.5359  -1.9644  12.4901   H         4 RES4   0.0000
   113 C49     11.8343  -0.9702  10.8505   C.3       4 RES4   0.0000
   114 H43     11.4391  -0.3495  11.4979   H         4 RES4   0.0000
   115 H44     11.1278  -1.5240  10.4563   H         4 RES4   0.0000
   116 H45     12.2829  -0.4617  10.1427   H         4 RES4   0.0000
   117 C50     12.9758  -3.1789  10.9288   C.3       4 RES4   0.0000
   118 H46     13.0909  -3.0828   9.9607   H         4 RES4   0.0000
   119 H47     12.1728  -3.7122  11.1106   H         4 RES4   0.0000
   120 H48     13.7585  -3.6274  11.3094   H         4 RES4   0.0000
   121 O2      14.7996   0.6533   9.7337   O.3       5 RES5   0.0000
   122 H49     14.5763   0.0132  10.2291   H         5 RES5   0.0000
   123 C51     15.0425   0.1820   8.4500   C.3       5 RES5   0.0000
   124 H50     14.7940   0.8676   7.7960   H         5 RES5   0.0000
   125 H51     14.5137  -0.6277   8.2925   H         5 RES5   0.0000
   126 H52     15.9964  -0.0287   8.3547   H         5 RES5   0.0000
   127 O3      12.1011  10.8758   7.5846   O.3       6 RES6   0.0000
   128 C52     12.1316  10.1152   6.2082   C.3       6 RES6   0.0000
   129 O4      10.7491  13.0942   7.4940   O.3       7 RES7   0.0000
@<TRIPOS>BOND
     1     1     2    1
     2     2    16    1
     3     3     4    1
     4     5     1    1
     5     6     1    1
     6     7     6    1
     7     8     7    1
     8     9     1    1
     9    10    11    1
    10    12     1    1
    11    13     1    1
    12    14    13    1
    13    15    14    1
    14    16    17   ar
    15    17    18    1
    16    19    17   ar
    17    20    19    1
    18    21    19   ar
    19    22    21    1
    20    23    21   ar
    21    24    23    1
    22    25     3    1
    23    26     2    2
    24    27     5   ar
    25    28    27   ar
    26    29    28    1
    27    30    28   ar
    28    31    30    1
    29    32    30   ar
    30    33    32    1
    31    34     5   ar
    32    35     6    2
    33    36    35    1
    34    37    36    1
    35    38     7    1
    36    39    38    1
    37    40    39   ar
    38    41    40    1
    39    42    40   ar
    40    43    42    1
    41    44    42   ar
    42    45    44   ar
    43    46    45    1
    44    47    39   ar
    45    48    47    1
    46    49    44    1
    47    50    49    1
    48    51    49    1
    49    52    49    1
    50    53     9    1
    51    54    53   ar
    52    55    54    1
    53    56    54   ar
    54    57    56    1
    55    58    56   ar
    56    59    58    1
    57    60    58   ar
    58    61    60    1
    59    62    10    1
    60    63     9    2
    61    64    12   ar
    62    65    64   ar
    63    66    65    1
    64    67    65   ar
    65    68    67    1
    66    69    67   ar
    67    70    69    1
    68    71    12   ar
    69    72    13    2
    70    73    72    1
    71    74    73    1
    72    75    14    1
    73    76    75    1
    74    77    76   ar
    75    78    77    1
    76    79    77   ar
    77    80    79    1
    78    81    79   ar
    79    82    81   ar
    80    83    82    1
    81    84    76   ar
    82    85    84    1
    83    86    81    1
    84    87    86    1
    85    88    86    1
    86    89    86    1
    87     3    26    1
    88    10    63    1
    89    16    25   ar
    90    23    25   ar
    91    26    27    1
    92    32    34   ar
    93    34    35    1
    94    36    38    2
    95    45    47   ar
    96    53    62   ar
    97    60    62   ar
    98    63    64    1
    99    69    71   ar
   100    71    72    1
   101    73    75    2
   102    82    84   ar
   103    90    91    1
   104    92    90    1
   105    93    90    1
   106    94    90    1
   107    95    96    1
   108    97    95    1
   109    98    95    1
   110    99    95    1
   111   100   101    1
   112   101   102    1
   113   103   101    1
   114   104   103    1
   115   105   103    1
   116   106   103    1
   117   107   101    1
   118   108   107    1
   119   109   107    1
   120   110   107    1
   121   111   100    1
   122   112   111    1
   123   113   111    1
   124   114   113    1
   125   115   113    1
   126   116   113    1
   127   117   111    1
   128   118   117    1
   129   119   117    1
   130   120   117    1
   131   121   122    1
   132   123   121    1
   133   124   123    1
   134   125   123    1
   135   126   123    1
   136   127   128    1
@<TRIPOS>SUBSTRUCTURE
     1 RES1        1 GROUP             0 ****  ****    0  
     2 RES2       90 GROUP             0 ****  ****    0  
     3 RES3       95 GROUP             0 ****  ****    0  
     4 RES4      100 GROUP             0 ****  ****    0  
     5 RES5      121 GROUP             0 ****  ****    0  
     6 RES6      127 GROUP             0 ****  ****    0  
     7 RES7      129 GROUP             0 ****  ****    0  
@<TRIPOS>CRYSIN
   32.0647   16.2520   24.1773   90.0000  121.5440   90.0000    15     1
