@<TRIPOS>MOLECULE
NIZXEB
   133   136     7     0     0
SMALL
USER_CHARGES
****
Generated from the CSD

@<TRIPOS>ATOM
     1 B1      15.4947   8.9441  -0.0434   B         1 RES1  -1.0000
     2 F1      14.2204   9.2460   0.4044   F         1 RES1   0.0000
     3 F2      15.4947   8.9441  -1.4278   F         1 RES1   0.0000
     4 F1A     15.8689   7.6922   0.4044   F         1 RES1   0.0000
     5 F1C     16.3902   9.8967   0.4044   F         1 RES1   0.0000
     6 B2       9.7746   6.5021   7.5669   B         2 RES2  -1.0000
     7 F3       9.2463   6.2633   6.3211   F         2 RES2   0.0000
     8 F4       8.8822   6.4967   8.6536   F         2 RES2   0.0000
     9 F5      10.3727   5.3267   7.6218   F         2 RES2   0.0000
    10 F6      11.0513   7.8331   7.5611   F         2 RES2   0.0000
    11 N1      11.0853   9.1105   0.2948   N.2       3 RES3   0.0000
    12 N2      10.8297   7.9914  -0.2515   N.2       3 RES3   0.0000
    13 N3      10.6159   5.2650  -0.9769   N.2       3 RES3   0.0000
    14 N4      13.1227   5.5978   0.4856   N.2       3 RES3   0.0000
    15 N5      12.1187   5.9735   1.1590   N.2       3 RES3   0.0000
    16 O1       9.6278   4.7680   1.5163   O.3       3 RES3   0.0000
    17 O2       8.5245   6.4235  -0.1405   O.3       3 RES3   0.0000
    18 C1       9.9962   7.8465  -2.5666   C.ar      3 RES3   0.0000
    19 H1       9.1518   7.6453  -2.2313   H         3 RES3   0.0000
    20 C2      10.1991   7.9083  -3.9193   C.ar      3 RES3   0.0000
    21 H2       9.4880   7.7982  -4.5060   H         3 RES3   0.0000
    22 C3      11.4758   8.1337  -4.4106   C.ar      3 RES3   0.0000
    23 H3      11.6261   8.1256  -5.3269   H         3 RES3   0.0000
    24 C4      12.5603   8.3805  -3.5117   C.ar      3 RES3   0.0000
    25 H4      13.4171   8.5442  -3.8355   H         3 RES3   0.0000
    26 C5      12.3109   8.3725  -2.1475   C.ar      3 RES3   0.0000
    27 H5      12.9910   8.5577  -1.5434   H         3 RES3   0.0000
    28 C6      11.0389   8.0854  -1.6995   C.ar      3 RES3   0.0000
    29 C7      10.9537   9.2688   1.6735   C.ar      3 RES3   0.0000
    30 C8      11.5517  10.4710   2.1446   C.ar      3 RES3   0.0000
    31 H6      11.9840  11.0426   1.5521   H         3 RES3   0.0000
    32 C9      11.4851  10.7850   3.5060   C.ar      3 RES3   0.0000
    33 H7      11.8507  11.5793   3.8210   H         3 RES3   0.0000
    34 C10     10.8715   9.9101   4.3731   C.ar      3 RES3   0.0000
    35 H8      10.8715  10.1033   5.2835   H         3 RES3   0.0000
    36 C11     10.2611   8.7670   3.9366   C.ar      3 RES3   0.0000
    37 H9       9.8320   8.2115   4.5465   H         3 RES3   0.0000
    38 C12     10.2766   8.4288   2.5724   C.ar      3 RES3   0.0000
    39 C13      8.7505   6.5477   2.7198   C.ar      3 RES3   0.0000
    40 C14      7.7590   7.0522   3.5956   C.ar      3 RES3   0.0000
    41 H10      7.7373   7.9592   3.7950   H         3 RES3   0.0000
    42 C15      6.8449   6.2150   4.1534   C.ar      3 RES3   0.0000
    43 C16      5.6875   6.7329   5.0263   C.3       3 RES3   0.0000
    44 C17      5.7015   8.2330   5.1939   C.3       3 RES3   0.0000
    45 H11      5.6287   8.6543   4.3326   H         3 RES3   0.0000
    46 H12      6.5226   8.5013   5.6130   H         3 RES3   0.0000
    47 H13      4.9609   8.5013   5.7431   H         3 RES3   0.0000
    48 C18      5.7635   6.0593   6.3847   C.3       3 RES3   0.0000
    49 H14      4.8772   5.9037   6.7171   H         3 RES3   0.0000
    50 H15      6.2375   6.6282   6.9975   H         3 RES3   0.0000
    51 H16      6.2282   5.2221   6.3038   H         3 RES3   0.0000
    52 C19      4.4001   6.3116   4.3788   C.3       3 RES3   0.0000
    53 H17      3.6595   6.6336   4.8991   H         3 RES3   0.0000
    54 H18      4.3644   5.3536   4.3297   H         3 RES3   0.0000
    55 H19      4.3520   6.6792   3.4915   H         3 RES3   0.0000
    56 C20      6.9316   4.8303   3.8933   C.ar      3 RES3   0.0000
    57 H20      6.3243   4.2721   4.3181   H         3 RES3   0.0000
    58 C21      7.8504   4.2533   3.0580   C.ar      3 RES3   0.0000
    59 C22      7.9480   2.7372   2.8210   C.3       3 RES3   0.0000
    60 C23      7.6769   2.4125   1.3209   C.3       3 RES3   0.0000
    61 H21      8.3090   2.8848   0.7717   H         3 RES3   0.0000
    62 H22      6.7875   2.6808   1.0897   H         3 RES3   0.0000
    63 H23      7.7760   1.4679   1.1764   H         3 RES3   0.0000
    64 C24      9.3517   2.2649   3.2574   C.3       3 RES3   0.0000
    65 H24     10.0055   2.5976   2.6389   H         3 RES3   0.0000
    66 H25      9.3780   1.3069   3.2661   H         3 RES3   0.0000
    67 H26      9.5422   2.6003   4.1360   H         3 RES3   0.0000
    68 C25      6.8945   1.9912   3.6505   C.3       3 RES3   0.0000
    69 H27      6.9192   1.0573   3.4279   H         3 RES3   0.0000
    70 H28      6.0237   2.3454   3.4568   H         3 RES3   0.0000
    71 H29      7.0835   2.1039   4.5840   H         3 RES3   0.0000
    72 C26      8.7691   5.1523   2.3816   C.ar      3 RES3   0.0000
    73 C27     13.3613   7.1971   2.8730   C.ar      3 RES3   0.0000
    74 H30     13.7564   7.7043   2.1995   H         3 RES3   0.0000
    75 C28     13.6541   7.4413   4.1707   C.ar      3 RES3   0.0000
    76 H31     14.2165   8.1471   4.3904   H         3 RES3   0.0000
    77 C29     13.1072   6.6390   5.1910   C.ar      3 RES3   0.0000
    78 H32     13.3179   6.8000   6.0812   H         3 RES3   0.0000
    79 C30     12.2535   5.6058   4.8528   C.ar      3 RES3   0.0000
    80 H33     11.8987   5.0611   5.5176   H         3 RES3   0.0000
    81 C31     11.9313   5.3858   3.5435   C.ar      3 RES3   0.0000
    82 H34     11.3472   4.6961   3.3210   H         3 RES3   0.0000
    83 C32     12.4704   6.1801   2.5493   C.ar      3 RES3   0.0000
    84 C33     13.0158   5.3589  -0.8642   C.ar      3 RES3   0.0000
    85 C34     14.2785   5.2221  -1.5116   C.ar      3 RES3   0.0000
    86 H35     15.0640   5.2999  -1.0203   H         3 RES3   0.0000
    87 C35     14.3265   4.9779  -2.8672   C.ar      3 RES3   0.0000
    88 H36     15.1523   4.9215  -3.2921   H         3 RES3   0.0000
    89 C36     13.1645   4.8169  -3.6071   C.ar      3 RES3   0.0000
    90 H37     13.2110   4.6666  -4.5234   H         3 RES3   0.0000
    91 C37     11.9437   4.8813  -2.9799   C.ar      3 RES3   0.0000
    92 H38     11.1659   4.7578  -3.4771   H         3 RES3   0.0000
    93 C38     11.8507   5.1335  -1.5983   C.ar      3 RES3   0.0000
    94 C39      9.4493   4.6988  -1.4076   C.ar      3 RES3   0.0000
    95 C40      9.3191   3.5610  -2.2024   C.ar      3 RES3   0.0000
    96 H39     10.0721   3.0994  -2.4915   H         3 RES3   0.0000
    97 C41      8.0611   3.1316  -2.5608   C.ar      3 RES3   0.0000
    98 C42      7.8132   1.8167  -3.2979   C.3       3 RES3   0.0000
    99 C43      9.1131   1.2183  -3.8470   C.3       3 RES3   0.0000
   100 H40      9.5701   1.8758  -4.3759   H         3 RES3   0.0000
   101 H41      8.9101   0.4535  -4.3933   H         3 RES3   0.0000
   102 H42      9.6755   0.9473  -3.1158   H         3 RES3   0.0000
   103 C44      6.8650   2.0153  -4.4627   C.3       3 RES3   0.0000
   104 H43      6.0144   2.3239  -4.1360   H         3 RES3   0.0000
   105 H44      6.7442   1.1834  -4.9251   H         3 RES3   0.0000
   106 H45      7.2291   2.6674  -5.0667   H         3 RES3   0.0000
   107 C45      7.2167   0.8104  -2.2891   C.3       3 RES3   0.0000
   108 H46      7.9062   0.5179  -1.6851   H         3 RES3   0.0000
   109 H47      6.8635   0.0537  -2.7631   H         3 RES3   0.0000
   110 H48      6.5149   1.2317  -1.7920   H         3 RES3   0.0000
   111 C46      6.9254   3.9286  -2.1417   C.ar      3 RES3   0.0000
   112 H49      6.0826   3.6442  -2.4076   H         3 RES3   0.0000
   113 C47      6.9998   5.0396  -1.4047   C.ar      3 RES3   0.0000
   114 C48      5.7820   5.8876  -1.0116   C.3       3 RES3   0.0000
   115 C49      4.5240   5.3938  -1.7313   C.3       3 RES3   0.0000
   116 H50      4.3675   4.4734  -1.5087   H         3 RES3   0.0000
   117 H51      4.6479   5.4743  -2.6822   H         3 RES3   0.0000
   118 H52      3.7710   5.9198  -1.4596   H         3 RES3   0.0000
   119 C50      6.0082   7.3420  -1.4278   C.3       3 RES3   0.0000
   120 H53      5.1995   7.8412  -1.2949   H         3 RES3   0.0000
   121 H54      6.2561   7.3742  -2.3527   H         3 RES3   0.0000
   122 H55      6.7101   7.7204  -0.8931   H         3 RES3   0.0000
   123 C51      5.5558   5.8232   0.4942   C.3       3 RES3   0.0000
   124 H56      6.3382   6.1425   0.9509   H         3 RES3   0.0000
   125 H57      5.3839   4.9135   0.7544   H         3 RES3   0.0000
   126 H58      4.8029   6.3706   0.7284   H         3 RES3   0.0000
   127 C52      8.2935   5.4180  -0.9365   C.ar      3 RES3   0.0000
   128 Fe1     10.3225   6.3207   0.5521   Fe        3 RES3   1.0000
   129 N6       9.7467   7.2427   2.0955   N.2       3 RES3   0.0000
   130 O3       6.7597   5.9386  -4.8789   O.3       4 RES4   0.0000
   131 O4       3.4178   1.7926  -1.8758   O.3       5 RES5   0.0000
   132 O5       8.4221   1.5833   6.9946   O.3       6 RES6   0.0000
   133 O6      14.4272   9.3225   7.8212   O.3       7 RES7   0.0000
@<TRIPOS>BOND
     1     1     2    1
     2     3     1    1
     3     4     1    1
     4     5     1    1
     5     6     7    1
     6     8     6    1
     7     9     6    1
     8    10     6    1
     9    11    12    2
    10    12    28    1
    11    13    93    1
    12    14    15    2
    13    15    83    1
    14    16    72    1
    15    17   127    1
    16    18    19    1
    17    20    18   ar
    18    21    20    1
    19    22    20   ar
    20    23    22    1
    21    24    22   ar
    22    25    24    1
    23    26    24   ar
    24    27    26    1
    25    28    18   ar
    26    29    11    1
    27    30    29   ar
    28    31    30    1
    29    32    30   ar
    30    33    32    1
    31    34    32   ar
    32    35    34    1
    33    36    34   ar
    34    37    36    1
    35    38    29   ar
    36    39    40   ar
    37    40    41    1
    38    42    40   ar
    39    43    42    1
    40    44    43    1
    41    45    44    1
    42    46    44    1
    43    47    44    1
    44    48    43    1
    45    49    48    1
    46    50    48    1
    47    51    48    1
    48    52    43    1
    49    53    52    1
    50    54    52    1
    51    55    52    1
    52    56    42   ar
    53    57    56    1
    54    58    56   ar
    55    59    58    1
    56    60    59    1
    57    61    60    1
    58    62    60    1
    59    63    60    1
    60    64    59    1
    61    65    64    1
    62    66    64    1
    63    67    64    1
    64    68    59    1
    65    69    68    1
    66    70    68    1
    67    71    68    1
    68    72    39   ar
    69    73    74    1
    70    75    73   ar
    71    76    75    1
    72    77    75   ar
    73    78    77    1
    74    79    77   ar
    75    80    79    1
    76    81    79   ar
    77    82    81    1
    78    83    73   ar
    79    84    14    1
    80    85    84   ar
    81    86    85    1
    82    87    85   ar
    83    88    87    1
    84    89    87   ar
    85    90    89    1
    86    91    89   ar
    87    92    91    1
    88    93    84   ar
    89    94    13    1
    90    95    94   ar
    91    96    95    1
    92    97    95   ar
    93    98    97    1
    94    99    98    1
    95   100    99    1
    96   101    99    1
    97   102    99    1
    98   103    98    1
    99   104   103    1
   100   105   103    1
   101   106   103    1
   102   107    98    1
   103   108   107    1
   104   109   107    1
   105   110   107    1
   106   111    97   ar
   107   112   111    1
   108   113   111   ar
   109   114   113    1
   110   115   114    1
   111   116   115    1
   112   117   115    1
   113   118   115    1
   114   119   114    1
   115   120   119    1
   116   121   119    1
   117   122   119    1
   118   123   114    1
   119   124   123    1
   120   125   123    1
   121   126   123    1
   122   127    94   ar
   123   128    12    1
   124   129    38    1
   125    13   128    1
   126    15   128    1
   127    16   128    1
   128    17   128    1
   129    26    28   ar
   130    36    38   ar
   131    39   129    1
   132    58    72   ar
   133    81    83   ar
   134    91    93   ar
   135   113   127   ar
   136   128   129    1
@<TRIPOS>SUBSTRUCTURE
     1 RES1        1 GROUP             0 ****  ****    0  
     2 RES2        6 GROUP             0 ****  ****    0  
     3 RES3       11 GROUP             0 ****  ****    0  
     4 RES4      130 GROUP             0 ****  ****    0  
     5 RES5      131 GROUP             0 ****  ****    0  
     6 RES6      132 GROUP             0 ****  ****    0  
     7 RES7      133 GROUP             0 ****  ****    0  
@<TRIPOS>CRYSIN
   30.9863   30.9863   28.9032   90.0000   90.0000  120.0000   236     1
