@<TRIPOS>MOLECULE
NOCLOG
   183   200     7     0     0
SMALL
USER_CHARGES
****
Generated from the CSD

@<TRIPOS>ATOM
     1 Ba1      2.2584   3.2923 -10.8722   Ba        1 RES1   1.0000
     2 Ba2      3.7701   3.8685   0.5234   Ba        1 RES1   0.0000
     3 Fe1      3.9480   3.7584  -5.2653   Fe        1 RES1   0.0000
     4 N1       3.6520   0.6822  -4.9089   N.1       1 RES1   0.0000
     5 N2       6.9671   3.2236  -5.6428   N.1       1 RES1   0.0000
     6 N3       4.2066   6.8364  -5.3751   N.1       1 RES1   0.0000
     7 N4       0.9091   4.2169  -4.9355   N.1       1 RES1   0.0000
     8 N5       4.3183   4.1542  -2.2389   N.1       1 RES1   0.0000
     9 N6       3.4130   3.6499  -8.3022   N.1       1 RES1   0.0000
    10 C1       3.7333   1.8215  -5.0625   C.1       1 RES1   0.0000
    11 C2       5.8450   3.4488  -5.5097   C.1       1 RES1   0.0000
    12 C3       4.1521   5.6907  -5.3716   C.1       1 RES1   0.0000
    13 C4       2.0388   4.0162  -5.0390   C.1       1 RES1   0.0000
    14 C5       4.2037   3.9800  -3.3671   C.1       1 RES1   0.0000
    15 C6       3.6462   3.6596  -7.1774   C.1       1 RES1   0.0000
    16 N7       0.0676   2.3092  -9.1123   N.ar      1 RES1   0.0000
    17 N8      -0.2866   2.2111 -11.8396   N.ar      1 RES1   0.0000
    18 C7       0.2154   2.3539  -7.8064   C.ar      1 RES1   0.0000
    19 H1       0.9646   2.7860  -7.4652   H         1 RES1   0.0000
    20 C8      -0.6900   1.7908  -6.9039   C.ar      1 RES1   0.0000
    21 H2      -0.5434   1.8299  -5.9873   H         1 RES1   0.0000
    22 C9      -1.7901   1.1832  -7.4148   C.ar      1 RES1   0.0000
    23 H3      -2.4007   0.7879  -6.8354   H         1 RES1   0.0000
    24 C10     -2.0265   1.1387  -8.7857   C.ar      1 RES1   0.0000
    25 C11     -3.2020   0.5559  -9.3672   C.ar      1 RES1   0.0000
    26 H4      -3.8440   0.1743  -8.8130   H         1 RES1   0.0000
    27 C12     -3.3901   0.5523 -10.6877   C.ar      1 RES1   0.0000
    28 H5      -4.1635   0.1753 -11.0362   H         1 RES1   0.0000
    29 C13     -2.4329   1.1104 -11.5673   C.ar      1 RES1   0.0000
    30 C14     -2.5929   1.1348 -12.9697   C.ar      1 RES1   0.0000
    31 H6      -3.3572   0.7706 -13.3580   H         1 RES1   0.0000
    32 C15     -1.6504   1.6803 -13.7422   C.ar      1 RES1   0.0000
    33 H7      -1.7531   1.7077 -14.6659   H         1 RES1   0.0000
    34 C16     -0.5020   2.2125 -13.1391   C.ar      1 RES1   0.0000
    35 H8       0.1462   2.5893 -13.6897   H         1 RES1   0.0000
    36 C17     -1.2424   1.6807 -11.0473   C.ar      1 RES1   0.0000
    37 C18     -1.0431   1.7132  -9.6231   C.ar      1 RES1   0.0000
    38 N9       2.8847   0.5787  -9.9202   N.ar      1 RES1   0.0000
    39 N10      2.9975   1.0675 -12.6210   N.ar      1 RES1   0.0000
    40 C19      2.8395   0.3068  -8.6236   C.ar      1 RES1   0.0000
    41 H9       2.4733   0.9468  -8.0572   H         1 RES1   0.0000
    42 C20      3.3087  -0.8800  -8.0553   C.ar      1 RES1   0.0000
    43 H10      3.2333  -1.0279  -7.1398   H         1 RES1   0.0000
    44 C21      3.8742  -1.8079  -8.8546   C.ar      1 RES1   0.0000
    45 H11      4.1955  -2.6027  -8.4939   H         1 RES1   0.0000
    46 C22      3.9738  -1.5670 -10.2273   C.ar      1 RES1   0.0000
    47 C23      4.5920  -2.4891 -11.1195   C.ar      1 RES1   0.0000
    48 H12      4.9729  -3.2674 -10.7801   H         1 RES1   0.0000
    49 C24      4.6330  -2.2582 -12.4268   C.ar      1 RES1   0.0000
    50 H13      5.0390  -2.8801 -12.9865   H         1 RES1   0.0000
    51 C25      4.0671  -1.0772 -12.9858   C.ar      1 RES1   0.0000
    52 C26      4.1072  -0.8007 -14.3544   C.ar      1 RES1   0.0000
    53 H14      4.4787  -1.4191 -14.9409   H         1 RES1   0.0000
    54 C27      3.6086   0.3577 -14.8267   C.ar      1 RES1   0.0000
    55 H15      3.6244   0.5438 -15.7387   H         1 RES1   0.0000
    56 C28      3.0687   1.2766 -13.9249   C.ar      1 RES1   0.0000
    57 H16      2.7403   2.0805 -14.2586   H         1 RES1   0.0000
    58 C29      3.4888  -0.1052 -12.1467   C.ar      1 RES1   0.0000
    59 C30      3.4326  -0.3621 -10.7236   C.ar      1 RES1   0.0000
    60 N11      4.7585   1.1898  -0.1386   N.ar      1 RES1   0.0000
    61 N12      4.1238   1.6667   2.4820   N.ar      1 RES1   0.0000
    62 C31      5.0583   0.9290  -1.4009   C.ar      1 RES1   0.0000
    63 H17      4.8640   1.5747  -2.0405   H         1 RES1   0.0000
    64 C32      5.6489  -0.2646  -1.8237   C.ar      1 RES1   0.0000
    65 H18      5.8203  -0.4140  -2.7249   H         1 RES1   0.0000
    66 C33      5.9701  -1.2014  -0.8947   C.ar      1 RES1   0.0000
    67 H19      6.3745  -1.9965  -1.1567   H         1 RES1   0.0000
    68 C34      5.6924  -0.9738   0.4537   C.ar      1 RES1   0.0000
    69 C35      6.0092  -1.9160   1.4819   C.ar      1 RES1   0.0000
    70 H20      6.4420  -2.7066   1.2533   H         1 RES1   0.0000
    71 C36      5.6999  -1.6905   2.7518   C.ar      1 RES1   0.0000
    72 H21      5.9241  -2.3205   3.3988   H         1 RES1   0.0000
    73 C37      5.0270  -0.4915   3.1358   C.ar      1 RES1   0.0000
    74 C38      4.6496  -0.2470   4.4489   C.ar      1 RES1   0.0000
    75 H22      4.8180  -0.8800   5.1098   H         1 RES1   0.0000
    76 C39      4.0308   0.9290   4.7655   C.ar      1 RES1   0.0000
    77 H23      3.7674   1.1071   5.6388   H         1 RES1   0.0000
    78 C40      3.8025   1.8520   3.7521   C.ar      1 RES1   0.0000
    79 H24      3.3979   2.6565   3.9824   H         1 RES1   0.0000
    80 C41      4.7271   0.4912   2.1711   C.ar      1 RES1   0.0000
    81 C42      5.0677   0.2471   0.7940   C.ar      1 RES1   0.0000
    82 N13      1.1908   3.4307   1.8142   N.ar      1 RES1   0.0000
    83 N14      1.4697   2.4758  -0.7478   N.ar      1 RES1   0.0000
    84 C43      1.0186   3.9026   3.0289   C.ar      1 RES1   0.0000
    85 H25      1.6858   4.4453   3.3820   H         1 RES1   0.0000
    86 C44     -0.0865   3.6446   3.8136   C.ar      1 RES1   0.0000
    87 H26     -0.1536   3.9986   4.6710   H         1 RES1   0.0000
    88 C45     -1.0748   2.8640   3.3056   C.ar      1 RES1   0.0000
    89 H27     -1.8252   2.6722   3.8208   H         1 RES1   0.0000
    90 C46     -0.9682   2.3480   2.0160   C.ar      1 RES1   0.0000
    91 C47     -1.9731   1.5281   1.3982   C.ar      1 RES1   0.0000
    92 H28     -2.7324   1.2992   1.8852   H         1 RES1   0.0000
    93 C48     -1.8555   1.0884   0.1595   C.ar      1 RES1   0.0000
    94 H29     -2.5368   0.5725  -0.2099   H         1 RES1   0.0000
    95 C49     -0.7039   1.3871  -0.6208   C.ar      1 RES1   0.0000
    96 C50     -0.5497   0.9526  -1.9419   C.ar      1 RES1   0.0000
    97 H30     -1.2154   0.4412  -2.3429   H         1 RES1   0.0000
    98 C51      0.5665   1.2728  -2.6370   C.ar      1 RES1   0.0000
    99 H31      0.6768   0.9957  -3.5185   H         1 RES1   0.0000
   100 C52      1.5532   2.0362  -1.9906   C.ar      1 RES1   0.0000
   101 H32      2.3190   2.2477  -2.4730   H         1 RES1   0.0000
   102 C53      0.3390   2.1642  -0.0642   C.ar      1 RES1   0.0000
   103 C54      0.2087   2.6563   1.2898   C.ar      1 RES1   0.0000
   104 O1       0.3219   5.3333 -10.3390   O.2       1 RES1   0.0000
   105 O2       4.8515   3.6971 -11.9261   O.3       1 RES1   0.0000
   106 O3       2.0030   4.6883 -13.2753   O.3       1 RES1   0.0000
   107 O4       2.1715   6.1489   0.4455   O.2       1 RES1   0.0000
   108 O5       6.5532   4.0780   0.4835   O.3       1 RES1   0.0000
   109 O6       4.5236   5.0668   2.9321   O.3       1 RES1   0.0000
   110 H49      0.4008   5.4612 -11.2755   H         1 RES1   0.0000
   111 H50     -0.5899   5.1827 -10.1314   H         1 RES1   0.0000
   112 H51      5.3188   3.4258 -12.7051   H         1 RES1   0.0000
   113 H52      5.1495   4.5580 -11.6786   H         1 RES1   0.0000
   114 H53      1.2769   5.1066 -13.7212   H         1 RES1   0.0000
   115 H54      2.7724   4.7594 -13.8241   H         1 RES1   0.0000
   116 H55      1.2132   6.0298   0.5689   H         1 RES1   0.0000
   117 H56      2.2192   5.8850  -0.5332   H         1 RES1   0.0000
   118 H57      6.8538   4.8785   0.0714   H         1 RES1   0.0000
   119 H58      6.6514   4.1675   1.4212   H         1 RES1   0.0000
   120 H59      3.9100   5.5305   3.4870   H         1 RES1   0.0000
   121 H60      5.2597   4.7836   3.4618   H         1 RES1   0.0000
   122 O1A      3.3710   6.0578 -10.6543   O.2       1 RES1   0.0000
   123 O4A      4.9765   6.4852  -0.4455   O.2       1 RES1   0.0000
   124 Ba1A     1.4345   8.0988 -10.1211   Ba        1 RES1   1.0000
   125 Ba2A     3.3780   8.7656  -0.5234   Ba        1 RES1   0.0000
   126 H49A     3.2921   5.9299  -9.7178   H         1 RES1   0.0000
   127 H50A     4.2828   6.2083 -10.8619   H         1 RES1   0.0000
   128 H55A     5.9348   6.6043  -0.5689   H         1 RES1   0.0000
   129 H56A     4.9288   6.7491   0.5332   H         1 RES1   0.0000
   130 Cl1      7.4592   3.7291   3.3952   Cl        2 RES2  -1.0000
   131 N15      6.6630  -5.8816   1.7424   N.ar      3 RES3   0.0000
   132 N16      6.7309  -7.0285  -0.7266   N.ar      3 RES3   0.0000
   133 C55      6.6289  -5.3719   2.9670   C.ar      3 RES3   0.0000
   134 H33      7.3319  -4.8218   3.2330   H         3 RES3   0.0000
   135 C56      5.6166  -5.6092   3.8670   C.ar      3 RES3   0.0000
   136 H34      5.6465  -5.2342   4.7172   H         3 RES3   0.0000
   137 C57      4.5729  -6.3940   3.5011   C.ar      3 RES3   0.0000
   138 H35      3.8807  -6.5582   4.1000   H         3 RES3   0.0000
   139 C58      4.5394  -6.9574   2.2219   C.ar      3 RES3   0.0000
   140 C59      3.4523  -7.7723   1.7315   C.ar      3 RES3   0.0000
   141 H36      2.7338  -7.9564   2.2925   H         3 RES3   0.0000
   142 C60      3.4568  -8.2646   0.5017   C.ar      3 RES3   0.0000
   143 H37      2.7327  -8.7707   0.2120   H         3 RES3   0.0000
   144 C61      4.5532  -8.0335  -0.3966   C.ar      3 RES3   0.0000
   145 C62      4.6086  -8.5468  -1.7051   C.ar      3 RES3   0.0000
   146 H38      3.9106  -9.0630  -2.0363   H         3 RES3   0.0000
   147 C63      5.6882  -8.2816  -2.4747   C.ar      3 RES3   0.0000
   148 H39      5.7303  -8.5999  -3.3484   H         3 RES3   0.0000
   149 C64      6.7257  -7.5358  -1.9553   C.ar      3 RES3   0.0000
   150 H40      7.4648  -7.3783  -2.4961   H         3 RES3   0.0000
   151 C65      5.6424  -7.2604   0.0495   C.ar      3 RES3   0.0000
   152 C66      5.6247  -6.6857   1.3698   C.ar      3 RES3   0.0000
   153 N17     -2.2345   4.9015  -8.6509   N.ar      4 RES4   0.0000
   154 N18     -2.3287   5.0947 -11.3838   N.ar      4 RES4   0.0000
   155 C67     -2.2084   4.7782  -7.3399   C.ar      4 RES4   0.0000
   156 H41     -1.4374   5.0497  -6.8942   H         4 RES4   0.0000
   157 C68     -3.2476   4.2749  -6.5795   C.ar      4 RES4   0.0000
   158 H42     -3.1720   4.2046  -5.6556   H         4 RES4   0.0000
   159 C69     -4.3819   3.8861  -7.2141   C.ar      4 RES4   0.0000
   160 H43     -5.0997   3.5525  -6.7242   H         4 RES4   0.0000
   161 C70     -4.4739   3.9866  -8.6114   C.ar      4 RES4   0.0000
   162 C71     -5.6524   3.6241  -9.3357   C.ar      4 RES4   0.0000
   163 H44     -6.3924   3.3028  -8.8718   H         4 RES4   0.0000
   164 C72     -5.7109   3.7369 -10.6520   C.ar      4 RES4   0.0000
   165 H45     -6.4911   3.4945 -11.0971   H         4 RES4   0.0000
   166 C73     -4.5959   4.2255 -11.4048   C.ar      4 RES4   0.0000
   167 C74     -4.6262   4.3694 -12.8143   C.ar      4 RES4   0.0000
   168 H46     -5.3832   4.1311 -13.2972   H         4 RES4   0.0000
   169 C75     -3.5368   4.8577 -13.4441   C.ar      4 RES4   0.0000
   170 H47     -3.5332   4.9545 -14.3699   H         4 RES4   0.0000
   171 C76     -2.4179   5.2169 -12.6902   C.ar      4 RES4   0.0000
   172 H48     -1.6848   5.5666 -13.1439   H         4 RES4   0.0000
   173 C77     -3.4243   4.6022 -10.7400   C.ar      4 RES4   0.0000
   174 C78     -3.3617   4.4864  -9.3028   C.ar      4 RES4   0.0000
   175 O7      -2.6024   8.1675  -6.5155   O.3       5 RES5   0.0000
   176 H61     -1.9770   7.8001  -5.9138   H         5 RES5   0.0000
   177 H62     -2.2097   8.8898  -6.9698   H         5 RES5   0.0000
   178 O8       4.1656  -2.2509  -4.6861   O.3       6 RES6   0.0000
   179 H63      4.1341  -1.3009  -4.7088   H         6 RES6   0.0000
   180 H64      4.8345  -2.5021  -4.0643   H         6 RES6   0.0000
   181 O9      -0.1312   6.7877  -5.5571   O.3       7 RES7   0.0000
   182 H65      0.1693   5.9299  -5.2798   H         7 RES7   0.0000
   183 H66     -0.0443   7.3820  -4.8243   H         7 RES7   0.0000
@<TRIPOS>BOND
     1     1     9    1
     2     2     8    1
     3     3    10    1
     4     4    10    3
     5     5    11    3
     6     6    12    3
     7     7    13    3
     8     8    14    3
     9     9    15    3
    10    11     3    1
    11    12     3    1
    12    13     3    1
    13    14     3    1
    14    15     3    1
    15    16     1    1
    16    17     1    1
    17    18    16   ar
    18    19    18    1
    19    20    18   ar
    20    21    20    1
    21    22    20   ar
    22    23    22    1
    23    24    22   ar
    24    25    24   ar
    25    26    25    1
    26    27    25   ar
    27    28    27    1
    28    29    27   ar
    29    30    29   ar
    30    31    30    1
    31    32    30   ar
    32    33    32    1
    33    34    17   ar
    34    35    34    1
    35    36    17   ar
    36    37    16   ar
    37    38     1    1
    38    39     1    1
    39    40    38   ar
    40    41    40    1
    41    42    40   ar
    42    43    42    1
    43    44    42   ar
    44    45    44    1
    45    46    44   ar
    46    47    46   ar
    47    48    47    1
    48    49    47   ar
    49    50    49    1
    50    51    49   ar
    51    52    51   ar
    52    53    52    1
    53    54    52   ar
    54    55    54    1
    55    56    39   ar
    56    57    56    1
    57    58    39   ar
    58    59    38   ar
    59    60     2    1
    60    61     2    1
    61    62    60   ar
    62    63    62    1
    63    64    62   ar
    64    65    64    1
    65    66    64   ar
    66    67    66    1
    67    68    66   ar
    68    69    68   ar
    69    70    69    1
    70    71    69   ar
    71    72    71    1
    72    73    71   ar
    73    74    73   ar
    74    75    74    1
    75    76    74   ar
    76    77    76    1
    77    78    61   ar
    78    79    78    1
    79    80    61   ar
    80    81    60   ar
    81    82     2    1
    82    83     2    1
    83    84    82   ar
    84    85    84    1
    85    86    84   ar
    86    87    86    1
    87    88    86   ar
    88    89    88    1
    89    90    88   ar
    90    91    90   ar
    91    92    91    1
    92    93    91   ar
    93    94    93    1
    94    95    93   ar
    95    96    95   ar
    96    97    96    1
    97    98    96   ar
    98    99    98    1
    99   100    83   ar
   100   101   100    1
   101   102    83   ar
   102   103    82   ar
   103   104     1   un
   104   105     1    1
   105   106     1    1
   106   107     2    1
   107   108     2    1
   108   109     2    1
   109   110   104    1
   110   111   104    1
   111   112   105    1
   112   113   105    1
   113   114   106    1
   114   115   106    1
   115   116   107    1
   116   117   107    1
   117   118   108    1
   118   119   108    1
   119   120   109    1
   120   121   109    1
   121   122     1    1
   122   123     2   un
   123   124   104   un
   124   125   107   un
   125   126   122    1
   126   127   122    1
   127   128   123    1
   128   129   123    1
   129    24    37   ar
   130    29    36   ar
   131    32    34   ar
   132    36    37   ar
   133    46    59   ar
   134    51    58   ar
   135    54    56   ar
   136    58    59   ar
   137    68    81   ar
   138    73    80   ar
   139    76    78   ar
   140    80    81   ar
   141    90   103   ar
   142    95   102   ar
   143    98   100   ar
   144   102   103   ar
   145   122   124   un
   146   123   125   un
   147   131   133   ar
   148   132   149   ar
   149   133   134    1
   150   135   133   ar
   151   136   135    1
   152   137   135   ar
   153   138   137    1
   154   139   137   ar
   155   140   139   ar
   156   141   140    1
   157   142   140   ar
   158   143   142    1
   159   144   142   ar
   160   145   144   ar
   161   146   145    1
   162   147   145   ar
   163   148   147    1
   164   149   147   ar
   165   150   149    1
   166   151   132   ar
   167   152   131   ar
   168   139   152   ar
   169   144   151   ar
   170   151   152   ar
   171   153   155   ar
   172   154   171   ar
   173   155   156    1
   174   157   155   ar
   175   158   157    1
   176   159   157   ar
   177   160   159    1
   178   161   159   ar
   179   162   161   ar
   180   163   162    1
   181   164   162   ar
   182   165   164    1
   183   166   164   ar
   184   167   166   ar
   185   168   167    1
   186   169   167   ar
   187   170   169    1
   188   171   169   ar
   189   172   171    1
   190   173   154   ar
   191   174   153   ar
   192   161   174   ar
   193   166   173   ar
   194   173   174   ar
   195   175   176    1
   196   177   175    1
   197   178   179    1
   198   180   178    1
   199   181   182    1
   200   183   181    1
@<TRIPOS>SUBSTRUCTURE
     1 RES1        1 GROUP             0 ****  ****    0  
     2 RES2      130 GROUP             0 ****  ****    0  
     3 RES3      131 GROUP             0 ****  ****    0  
     4 RES4      153 GROUP             0 ****  ****    0  
     5 RES5      175 GROUP             0 ****  ****    0  
     6 RES6      178 GROUP             0 ****  ****    0  
     7 RES7      181 GROUP             0 ****  ****    0  
@<TRIPOS>CRYSIN
   14.3310   14.5160   21.3120   82.4960   80.6700   60.5000     2     1
