@<TRIPOS>MOLECULE
NOJXUF
    70    76     4     0     0
SMALL
USER_CHARGES
****
Generated from the CSD

@<TRIPOS>ATOM
     1 Fe1      3.9033   5.0088   4.6410   Fe        1 RES1   2.0000
     2 O1       4.4923   0.1501   1.0032   O.3       1 RES1   0.0000
     3 O2       8.5503   1.7619   6.8625   O.3       1 RES1   0.0000
     4 O3       0.2631   8.0053   0.8050   O.3       1 RES1   0.0000
     5 O4       7.5937   7.9081   0.7273   O.3       1 RES1   0.0000
     6 O5      -0.6997   3.4136   8.2941   O.3       1 RES1   0.0000
     7 O6       4.0889   9.0438   9.1891   O.3       1 RES1   0.0000
     8 N1       3.8655   3.4239   3.4686   N.ar      1 RES1   0.0000
     9 N2       5.3046   3.9381   5.5162   N.ar      1 RES1   0.0000
    10 N3       2.6245   6.0454   3.5570   N.ar      1 RES1   0.0000
    11 N4       5.1702   5.8477   3.3801   N.ar      1 RES1   0.0000
    12 N5       2.5043   4.3834   5.8592   N.ar      1 RES1   0.0000
    13 N6       3.9976   6.4437   5.9721   N.ar      1 RES1   0.0000
    14 C1       4.8529   2.5068   3.6881   C.ar      1 RES1   0.0000
    15 C2       5.0422   1.4167   2.8755   C.ar      1 RES1   0.0000
    16 C3       4.1977   1.2107   1.7915   C.ar      1 RES1   0.0000
    17 C4       3.1662   2.0825   1.5917   C.ar      1 RES1   0.0000
    18 C5       3.0297   3.1691   2.4349   C.ar      1 RES1   0.0000
    19 C6       3.7990   0.0042  -0.2317   C.3       1 RES1   0.0000
    20 C7       5.6837   2.8148   4.8667   C.ar      1 RES1   0.0000
    21 C8       6.7578   2.0428   5.2494   C.ar      1 RES1   0.0000
    22 C9       7.4792   2.4165   6.3791   C.ar      1 RES1   0.0000
    23 C10      7.0881   3.5383   7.0683   C.ar      1 RES1   0.0000
    24 C11      6.0109   4.2639   6.6246   C.ar      1 RES1   0.0000
    25 C12      9.0738   0.6623   6.1169   C.3       1 RES1   0.0000
    26 C13      3.1499   6.7105   2.4974   C.ar      1 RES1   0.0000
    27 C14      2.3613   7.3742   1.5826   C.ar      1 RES1   0.0000
    28 C15      0.9885   7.3850   1.7549   C.ar      1 RES1   0.0000
    29 C16      0.4572   6.7744   2.8602   C.ar      1 RES1   0.0000
    30 C17      1.2994   6.1132   3.7217   C.ar      1 RES1   0.0000
    31 C18     -1.1673   7.9035   0.9102   C.3       1 RES1   0.0000
    32 C19      4.6198   6.6469   2.4333   C.ar      1 RES1   0.0000
    33 C20      5.3719   7.3505   1.5094   C.ar      1 RES1   0.0000
    34 C21      6.7500   7.2427   1.5521   C.ar      1 RES1   0.0000
    35 C22      7.3231   6.4052   2.4806   C.ar      1 RES1   0.0000
    36 C23      6.5141   5.7310   3.3588   C.ar      1 RES1   0.0000
    37 C24      7.0878   9.0023  -0.0229   C.3       1 RES1   0.0000
    38 C25      2.2221   5.1875   6.9189   C.ar      1 RES1   0.0000
    39 C26      1.1665   4.9242   7.7955   C.ar      1 RES1   0.0000
    40 C27      0.3711   3.8111   7.5485   C.ar      1 RES1   0.0000
    41 C28      0.6449   3.0028   6.4752   C.ar      1 RES1   0.0000
    42 C29      1.7053   3.3042   5.6687   C.ar      1 RES1   0.0000
    43 C30     -0.9243   4.0506   9.4925   C.2       1 RES1   0.0000
    44 C31      3.1212   6.3393   7.0164   C.ar      1 RES1   0.0000
    45 C32      3.1262   7.2325   8.0761   C.ar      1 RES1   0.0000
    46 C33      4.0914   8.2289   8.1035   C.ar      1 RES1   0.0000
    47 C34      4.9791   8.3511   7.0469   C.ar      1 RES1   0.0000
    48 C35      4.8796   7.4518   6.0117   C.ar      1 RES1   0.0000
    49 C36      5.1842   9.9559   9.3492   C.3       1 RES1   0.0000
    50 P1       8.1362  10.1865   4.4306   P.3       2 RES2  -1.0000
    51 F1       7.4260   9.0210   5.1457   F         2 RES2   0.0000
    52 F2       8.9127  11.3020   3.7491   F         2 RES2   0.0000
    53 F3       7.2501  11.2969   4.9978   F         2 RES2   0.0000
    54 F4       9.1920  10.3664   5.5238   F         2 RES2   0.0000
    55 F5       9.0874   9.1408   3.8330   F         2 RES2   0.0000
    56 F6       7.1573  10.0042   3.3558   F         2 RES2   0.0000
    57 P2      10.2169   3.0038   2.3190   P.3       3 RES3  -1.0000
    58 F7      10.7564   2.0870   3.3923   F         3 RES3   0.0000
    59 F8       9.8730   3.9794   3.3420   F         3 RES3   0.0000
    60 F9       9.6780   3.8577   1.2319   F         3 RES3   0.0000
    61 F10     10.5815   1.9752   1.2807   F         3 RES3   0.0000
    62 F11     11.5814   3.5573   2.0491   F         3 RES3   0.0000
    63 F12      8.8837   2.3513   2.5263   F         3 RES3   0.0000
    64 O7       2.4490   9.2840   4.6822   O.2       4 RES4   0.0000
    65 N7       2.6111  10.6082   2.8389   N.am      4 RES4   0.0000
    66 C37      1.8199  11.4870   2.0293   C.3       4 RES4   0.0000
    67 C38      0.4029  11.2077   2.5523   C.3       4 RES4   0.0000
    68 C39      0.5323  10.4912   3.7964   C.3       4 RES4   0.0000
    69 C40      1.9869  10.0355   3.8436   C.2       4 RES4   0.0000
    70 C41      4.0169  10.4862   2.6239   C.3       4 RES4   0.0000
@<TRIPOS>BOND
     1     1     8    1
     2     2    16    1
     3     3    22    1
     4     4    28    1
     5     5    34    1
     6     6    40    1
     7     7    46    1
     8     8    14   ar
     9     9     1    1
    10    10     1    1
    11    11     1    1
    12    12     1    1
    13    13     1    1
    14    14    15   ar
    15    15    16   ar
    16    16    17   ar
    17    17    18   ar
    18    18     8   ar
    19    19     2    1
    20    20     9   ar
    21    21    20   ar
    22    22    21   ar
    23    23    22   ar
    24    24     9   ar
    25    25     3    1
    26    26    10   ar
    27    27    26   ar
    28    28    27   ar
    29    29    28   ar
    30    30    10   ar
    31    31     4    1
    32    32    11   ar
    33    33    32   ar
    34    34    33   ar
    35    35    34   ar
    36    36    11   ar
    37    37     5    1
    38    38    12   ar
    39    39    38   ar
    40    40    39   ar
    41    41    40   ar
    42    42    12   ar
    43    43     6    1
    44    44    13   ar
    45    45    44   ar
    46    46    45   ar
    47    47    46   ar
    48    48    13   ar
    49    49     7    1
    50    14    20    1
    51    23    24   ar
    52    26    32    1
    53    29    30   ar
    54    35    36   ar
    55    38    44    1
    56    41    42   ar
    57    47    48   ar
    58    50    51    1
    59    52    50    1
    60    53    50    1
    61    54    50    1
    62    55    50    1
    63    56    50    1
    64    57    58    1
    65    59    57    1
    66    60    57    1
    67    61    57    1
    68    62    57    1
    69    63    57    1
    70    64    69    2
    71    65    66    1
    72    66    67    1
    73    67    68    1
    74    68    69    1
    75    69    65   am
    76    70    65    1
@<TRIPOS>SUBSTRUCTURE
     1 RES1        1 GROUP             0 ****  ****    0  
     2 RES2       50 GROUP             0 ****  ****    0  
     3 RES3       57 GROUP             0 ****  ****    0  
     4 RES4       64 GROUP             0 ****  ****    0  
@<TRIPOS>CRYSIN
   11.7210   12.8640   15.6640   77.1400   85.0300   81.7600     2     1
