@<TRIPOS>MOLECULE
NOMQIP
   111   116     1     0     0
SMALL
NO_CHARGES
****
Generated from the CSD

@<TRIPOS>ATOM
     1 Sn1      7.0927   7.5702  12.3803   Sn        1 RES1   0.0000
     2 Fe1      7.5232  10.9502   9.3535   Fe        1 RES1   0.0000
     3 Cl1      7.8106  12.6034   7.6403   Cl        1 RES1   0.0000
     4 P1       8.6648  12.2044  10.8107   P.3       1 RES1   0.0000
     5 P2       5.7257  12.0629  10.1027   P.3       1 RES1   0.0000
     6 P3       6.3603   9.6991   7.9090   P.3       1 RES1   0.0000
     7 P4       9.3750   9.8918   8.5189   P.3       1 RES1   0.0000
     8 O1       7.7787   8.4509  10.6060   O.co2     1 RES1   0.0000
     9 O2       6.5747   9.7382  11.7676   O.co2     1 RES1   0.0000
    10 C1       7.5663  13.5022  11.5244   C.3       1 RES1   0.0000
    11 C2       6.1809  12.9346  11.6439   C.3       1 RES1   0.0000
    12 C3       7.5131   8.9192   6.7333   C.3       1 RES1   0.0000
    13 C4       8.7653   8.5443   7.4484   C.3       1 RES1   0.0000
    14 C5      10.0631  13.2357  10.2122   C.3       1 RES1   0.0000
    15 C6      10.4907  14.4583  10.9885   C.3       1 RES1   0.0000
    16 C7       9.4146  11.3071  12.2438   C.3       1 RES1   0.0000
    17 C8       9.9098  11.8792  13.3641   C.3       1 RES1   0.0000
    18 C9       4.1912  11.1083  10.5093   C.3       1 RES1   0.0000
    19 C10      3.3983  11.6067  11.6822   C.3       1 RES1   0.0000
    20 C11      5.0863  13.5052   9.0421   C.3       1 RES1   0.0000
    21 C12      4.1410  14.0623   9.1416   C.3       1 RES1   0.0000
    22 C13      5.3577   8.3109   8.5530   C.3       1 RES1   0.0000
    23 C14      5.3572   7.0176   7.9758   C.3       1 RES1   0.0000
    24 C15      5.1603  10.5332   6.8356   C.3       1 RES1   0.0000
    25 C16      4.6457   9.8813   5.6286   C.3       1 RES1   0.0000
    26 C17     10.6108   9.0788   9.5866   C.3       1 RES1   0.0000
    27 C18     11.4788   8.0008   8.9341   C.3       1 RES1   0.0000
    28 C19     10.5816  10.8780   7.4711   C.3       1 RES1   0.0000
    29 C20     10.6776  10.6145   6.0849   C.3       1 RES1   0.0000
    30 C21      7.2670   9.6675  10.6913   C.2       1 RES1   0.0000
    31 C22      8.2048   5.7875  12.0050   C.ar      1 RES1   0.0000
    32 C23      8.6324   5.4473  10.7240   C.ar      1 RES1   0.0000
    33 C24      9.3874   4.3030  10.5335   C.ar      1 RES1   0.0000
    34 C25      9.7434   3.4734  11.5614   C.ar      1 RES1   0.0000
    35 C26      9.2797   3.7866  12.7955   C.ar      1 RES1   0.0000
    36 C27      8.5819   4.9022  13.0414   C.ar      1 RES1   0.0000
    37 C28      5.0316   7.1094  12.3291   C.ar      1 RES1   0.0000
    38 C29      4.5889   5.8839  11.8216   C.ar      1 RES1   0.0000
    39 C30      3.2382   5.6144  11.7576   C.ar      1 RES1   0.0000
    40 C31      2.2936   6.5192  12.2268   C.ar      1 RES1   0.0000
    41 C32      2.7453   7.6786  12.7798   C.ar      1 RES1   0.0000
    42 C33      4.0740   7.9481  12.8097   C.ar      1 RES1   0.0000
    43 C34      7.8693   8.3154  14.1759   C.ar      1 RES1   0.0000
    44 C35      7.0806   9.0923  15.0423   C.ar      1 RES1   0.0000
    45 C36      7.5715   9.6208  16.2218   C.ar      1 RES1   0.0000
    46 C37      8.8544   9.3949  16.5630   C.ar      1 RES1   0.0000
    47 C38      9.6361   8.5819  15.7668   C.ar      1 RES1   0.0000
    48 C39      9.1237   8.1001  14.6337   C.ar      1 RES1   0.0000
    49 H1       7.8796  13.7567  12.3832   H         1 RES1   0.0000
    50 H2       7.5478  14.2610  10.9543   H         1 RES1   0.0000
    51 H3       5.5674  13.6392  11.8017   H         1 RES1   0.0000
    52 H4       6.1594  12.3218  12.3689   H         1 RES1   0.0000
    53 H5       7.1113   8.1393   6.3650   H         1 RES1   0.0000
    54 H6       7.7162   9.5304   6.0352   H         1 RES1   0.0000
    55 H7       9.4332   8.3350   6.8072   H         1 RES1   0.0000
    56 H8       8.5935   7.7794   7.9858   H         1 RES1   0.0000
    57 H9      10.8213  12.6651  10.1582   H         1 RES1   0.0000
    58 H10      9.8299  13.5353   9.3407   H         1 RES1   0.0000
    59 H11     10.7539  14.2008  11.8656   H         1 RES1   0.0000
    60 H12     11.2256  14.8693  10.5491   H         1 RES1   0.0000
    61 H13      9.7718  15.0726  11.0396   H         1 RES1   0.0000
    62 H14      8.7326  10.7199  12.5452   H         1 RES1   0.0000
    63 H15     10.1287  10.8132  11.8770   H         1 RES1   0.0000
    64 H16     10.2261  11.1987  13.9499   H         1 RES1   0.0000
    65 H17     10.6270  12.4588  13.1381   H         1 RES1   0.0000
    66 H18      9.2269  12.3760  13.8020   H         1 RES1   0.0000
    67 H19      3.6275  11.1264   9.7473   H         1 RES1   0.0000
    68 H20      4.4489  10.2110  10.6927   H         1 RES1   0.0000
    69 H21      3.9389  11.5826  12.4642   H         1 RES1   0.0000
    70 H22      3.1195  12.4995  11.5188   H         1 RES1   0.0000
    71 H23      2.6370  11.0541  11.8074   H         1 RES1   0.0000
    72 H24      5.7636  14.1647   9.1160   H         1 RES1   0.0000
    73 H25      5.0684  13.1559   8.1635   H         1 RES1   0.0000
    74 H26      4.1044  14.4703   9.9989   H         1 RES1   0.0000
    75 H27      4.1050  14.7308   8.4692   H         1 RES1   0.0000
    76 H28      3.4106  13.4661   9.0407   H         1 RES1   0.0000
    77 H29      5.6214   8.1920   9.4573   H         1 RES1   0.0000
    78 H30      4.4524   8.6075   8.5260   H         1 RES1   0.0000
    79 H31      4.7734   6.4485   8.4550   H         1 RES1   0.0000
    80 H32      5.0682   7.0748   7.0674   H         1 RES1   0.0000
    81 H33      6.2399   6.6608   7.9957   H         1 RES1   0.0000
    82 H34      4.4101  10.7349   7.3787   H         1 RES1   0.0000
    83 H35      5.5733  11.3402   6.5498   H         1 RES1   0.0000
    84 H36      4.0332  10.4639   5.1907   H         1 RES1   0.0000
    85 H37      5.3615   9.6765   5.0443   H         1 RES1   0.0000
    86 H38      4.1967   9.0788   5.8717   H         1 RES1   0.0000
    87 H39     11.1910   9.7533   9.9207   H         1 RES1   0.0000
    88 H40     10.1468   8.6738  10.3089   H         1 RES1   0.0000
    89 H41     10.9306   7.3022   8.6057   H         1 RES1   0.0000
    90 H42     11.9719   8.3817   8.2133   H         1 RES1   0.0000
    91 H43     12.0889   7.6515   9.5767   H         1 RES1   0.0000
    92 H44     10.3521  11.7934   7.5650   H         1 RES1   0.0000
    93 H45     11.4517  10.7334   7.8365   H         1 RES1   0.0000
    94 H46      9.8283  10.7741   5.6840   H         1 RES1   0.0000
    95 H47     11.3264  11.1776   5.6997   H         1 RES1   0.0000
    96 H48     10.9180   9.7036   5.9584   H         1 RES1   0.0000
    97 H49      8.4053   5.9968   9.9847   H         1 RES1   0.0000
    98 H50      9.6795   4.0877   9.6535   H         1 RES1   0.0000
    99 H51     10.2828   2.7071  11.4164   H         1 RES1   0.0000
   100 H52      9.4709   3.1934  13.5077   H         1 RES1   0.0000
   101 H53      8.3289   5.0995  13.9357   H         1 RES1   0.0000
   102 H54      5.2152   5.2380  11.5202   H         1 RES1   0.0000
   103 H55      2.9416   4.7878  11.3936   H         1 RES1   0.0000
   104 H56      1.3610   6.3356  12.1500   H         1 RES1   0.0000
   105 H57      2.1243   8.2913  13.1509   H         1 RES1   0.0000
   106 H58      4.3476   8.7731  13.1893   H         1 RES1   0.0000
   107 H59      6.1643   9.2504  14.8242   H         1 RES1   0.0000
   108 H60      7.0250  10.1628  16.7720   H         1 RES1   0.0000
   109 H61      9.2201   9.7728  17.3521   H         1 RES1   0.0000
   110 H62     10.5293   8.3741  16.0256   H         1 RES1   0.0000
   111 H63      9.6957   7.5581  14.0992   H         1 RES1   0.0000
@<TRIPOS>BOND
     1     1     8    1
     2     2     3    1
     3     4     2    1
     4     5     2    1
     5     6     2    1
     6     7     2    1
     7     8    30    1
     8     9     1    1
     9    10     4    1
    10    11     5    1
    11    12     6    1
    12    13     7    1
    13    14     4    1
    14    15    14    1
    15    16     4    1
    16    17    16    1
    17    18     5    1
    18    19    18    1
    19    20     5    1
    20    21    20    1
    21    22     6    1
    22    23    22    1
    23    24     6    1
    24    25    24    1
    25    26     7    1
    26    27    26    1
    27    28     7    1
    28    29    28    1
    29    30     2    1
    30    31     1    1
    31    32    31   ar
    32    33    32   ar
    33    34    33   ar
    34    35    34   ar
    35    36    31   ar
    36    37     1    1
    37    38    37   ar
    38    39    38   ar
    39    40    39   ar
    40    41    40   ar
    41    42    37   ar
    42    43     1    1
    43    44    43   ar
    44    45    44   ar
    45    46    45   ar
    46    47    46   ar
    47    48    43   ar
    48    49    10    1
    49    50    10    1
    50    51    11    1
    51    52    11    1
    52    53    12    1
    53    54    12    1
    54    55    13    1
    55    56    13    1
    56    57    14    1
    57    58    14    1
    58    59    15    1
    59    60    15    1
    60    61    15    1
    61    62    16    1
    62    63    16    1
    63    64    17    1
    64    65    17    1
    65    66    17    1
    66    67    18    1
    67    68    18    1
    68    69    19    1
    69    70    19    1
    70    71    19    1
    71    72    20    1
    72    73    20    1
    73    74    21    1
    74    75    21    1
    75    76    21    1
    76    77    22    1
    77    78    22    1
    78    79    23    1
    79    80    23    1
    80    81    23    1
    81    82    24    1
    82    83    24    1
    83    84    25    1
    84    85    25    1
    85    86    25    1
    86    87    26    1
    87    88    26    1
    88    89    27    1
    89    90    27    1
    90    91    27    1
    91    92    28    1
    92    93    28    1
    93    94    29    1
    94    95    29    1
    95    96    29    1
    96    97    32    1
    97    98    33    1
    98    99    34    1
    99   100    35    1
   100   101    36    1
   101   102    38    1
   102   103    39    1
   103   104    40    1
   104   105    41    1
   105   106    42    1
   106   107    44    1
   107   108    45    1
   108   109    46    1
   109   110    47    1
   110   111    48    1
   111     9    30    2
   112    10    11    1
   113    12    13    1
   114    35    36   ar
   115    41    42   ar
   116    47    48   ar
@<TRIPOS>SUBSTRUCTURE
     1 RES1        1 GROUP             0 ****  ****    0  
@<TRIPOS>CRYSIN
   10.1210   15.0560   14.6360   90.0000  103.7400   90.0000     4     1
