@<TRIPOS>MOLECULE
NORNUF
   137   150     9     0     0
SMALL
USER_CHARGES
****
Generated from the CSD

@<TRIPOS>ATOM
     1 U1       8.3313  11.8557   1.1795   U         1 RES1   0.0000
     2 O1       9.0634  10.0395   2.6540   O.co2     1 RES1   0.0000
     3 O2       6.9960  13.6803   2.1540   O.co2     1 RES1   0.0000
     4 O3       7.7183  13.6243  -0.4324   O.co2     1 RES1   0.0000
     5 O4       7.7443  12.2190   3.5942   O.co2     1 RES1   0.0000
     6 O5       8.7961  11.8848  -1.2311   O.co2     1 RES1   0.0000
     7 O6       9.8599  12.6839   1.4449   O.2       1 RES1   0.0000
     8 O7       6.8256  11.0135   0.8978   O.2       1 RES1   0.0000
     9 O8       9.6149   9.7920   0.5409   O.co2     1 RES1   0.0000
    10 C1       9.6207   9.3717   1.7421   C.2       1 RES1   0.0000
    11 C2       7.1146  13.2701   3.3536   C.2       1 RES1   0.0000
    12 C3       8.2631  13.0308  -1.3962   C.2       1 RES1   0.0000
    13 C4      10.2861   8.1051   2.0848   C.2       1 RES1   0.0000
    14 C5       6.4882  14.0487   4.4322   C.2       1 RES1   0.0000
    15 C6       8.3088  13.6584  -2.7279   C.2       1 RES1   0.0000
    16 S1      10.4959   7.7225   3.7472   S.3       1 RES1   0.0000
    17 C7      10.7354   7.1016   1.2783   C.2       1 RES1   0.0000
    18 S2       5.6042  15.4563   4.0071   S.3       1 RES1   0.0000
    19 C8       6.4762  13.8215   5.7718   C.2       1 RES1   0.0000
    20 S3       9.0282  12.8313  -4.0310   S.3       1 RES1   0.0000
    21 C9       7.8380  14.8801  -3.0942   C.2       1 RES1   0.0000
    22 C10     11.2089   6.2225   3.3348   C.2       1 RES1   0.0000
    23 H1      10.6849   7.1240   0.3506   H         1 RES1   0.0000
    24 C11     11.2836   6.0317   2.0031   C.2       1 RES1   0.0000
    25 C12      5.1629  15.7082   5.6397   C.2       1 RES1   0.0000
    26 C13      5.7185  14.7731   6.4714   C.2       1 RES1   0.0000
    27 H2       6.9217  13.1134   6.1806   H         1 RES1   0.0000
    28 C14      8.6867  14.1438  -5.0737   C.2       1 RES1   0.0000
    29 H3       7.4139  15.4669  -2.5093   H         1 RES1   0.0000
    30 C15      8.0607  15.1593  -4.4432   C.2       1 RES1   0.0000
    31 C16     11.7060   5.3337   4.4055   C.2       1 RES1   0.0000
    32 H4      11.6563   5.2764   1.6084   H         1 RES1   0.0000
    33 C17      4.3073  16.8568   5.9809   C.2       1 RES1   0.0000
    34 H5       5.6068  14.7711   7.3959   H         1 RES1   0.0000
    35 C18      9.0682  14.0056  -6.5029   C.2       1 RES1   0.0000
    36 H6       7.8058  15.9512  -4.8583   H         1 RES1   0.0000
    37 O9      11.3011   5.5324   5.6161   O.co2     1 RES1   0.0000
    38 O10     12.4862   4.3940   4.1586   O.co2     1 RES1   0.0000
    39 O11      3.9186  17.6241   5.0580   O.co2     1 RES1   0.0000
    40 O12      3.9827  17.0726   7.1742   O.co2     1 RES1   0.0000
    41 O13      9.7100  12.9762  -6.8504   O.co2     1 RES1   0.0000
    42 O14      8.7582  14.8883  -7.3488   O.co2     1 RES1   0.0000
    43 U2      12.6010   3.6491   6.5300   U         1 RES1   0.0000
    44 O15      3.8901  20.0970   6.8346   O.2       1 RES1   0.0000
    45 O16      1.1906  17.9333   6.2686   O.2       1 RES1   0.0000
    46 U2       2.5389  19.0059   6.5300   U         1 RES1   0.0000
    47 U2       9.9150  13.6337  -9.1927   U         1 RES1   0.0000
    48 O13      2.3339  18.3484   8.8723   O.2       1 RES1   0.0000
    49 O9       1.2391  20.8892   5.6161   O.2       1 RES1   0.0000
    50 O10      2.4242  19.7508   4.1586   O.2       1 RES1   0.0000
    51 O14      1.3821  20.2605   8.3739   O.2       1 RES1   0.0000
    52 Fe1      3.4788   4.1959   1.6663   Fe        2 RES2   2.0000
    53 N1       5.0649   5.3578   1.9905   N.ar      2 RES2   0.0000
    54 N2       1.8080   3.2193   1.2735   N.ar      2 RES2   0.0000
    55 N3       2.5453   5.9298   1.5927   N.ar      2 RES2   0.0000
    56 N4       3.3031   4.1216   3.6445   N.ar      2 RES2   0.0000
    57 N5       3.7281   4.0527  -0.2830   N.ar      2 RES2   0.0000
    58 N6       4.4834   2.5022   1.9433   N.ar      2 RES2   0.0000
    59 C19      4.7787   4.4236  -1.0314   C.ar      2 RES2   0.0000
    60 H7       5.4870   4.8713  -0.6289   H         2 RES2   0.0000
    61 C20      4.8333   4.1521  -2.4103   C.ar      2 RES2   0.0000
    62 H8       5.5815   4.4145  -2.8961   H         2 RES2   0.0000
    63 C21      3.8367   3.5236  -3.0360   C.ar      2 RES2   0.0000
    64 H9       3.8780   3.3701  -3.9527   H         2 RES2   0.0000
    65 C22      2.6935   3.0865  -2.2704   C.ar      2 RES2   0.0000
    66 C23      2.7241   3.3696  -0.9025   C.ar      2 RES2   0.0000
    67 C24      1.6589   2.9410  -0.0535   C.ar      2 RES2   0.0000
    68 C25      0.5293   2.3088  -0.5959   C.ar      2 RES2   0.0000
    69 C26      0.5377   2.0448  -2.0156   C.ar      2 RES2   0.0000
    70 H10     -0.1954   1.6209  -2.3977   H         2 RES2   0.0000
    71 C27      1.5694   2.3925  -2.8002   C.ar      2 RES2   0.0000
    72 H11      1.5496   2.1773  -3.7043   H         2 RES2   0.0000
    73 C28     -0.4989   1.9526   0.2987   C.ar      2 RES2   0.0000
    74 H12     -1.2569   1.5094  -0.0094   H         2 RES2   0.0000
    75 C29     -0.3718   2.2581   1.5974   C.ar      2 RES2   0.0000
    76 H13     -1.0664   2.0659   2.1854   H         2 RES2   0.0000
    77 C30      0.8187   2.8767   2.0864   C.ar      2 RES2   0.0000
    78 H14      0.9016   3.0418   2.9967   H         2 RES2   0.0000
    79 C31      6.3518   5.0198   2.2012   C.ar      2 RES2   0.0000
    80 H15      6.6129   4.1352   2.0754   H         2 RES2   0.0000
    81 C32      7.2959   5.9512   2.5990   C.ar      2 RES2   0.0000
    82 H16      8.1788   5.6864   2.7184   H         2 RES2   0.0000
    83 C33      6.9567   7.2364   2.8144   C.ar      2 RES2   0.0000
    84 H17      7.5880   7.8454   3.1225   H         2 RES2   0.0000
    85 C34      5.6204   7.6466   2.5675   C.ar      2 RES2   0.0000
    86 C35      4.7320   6.6541   2.1619   C.ar      2 RES2   0.0000
    87 C36      3.3336   6.9891   1.9512   C.ar      2 RES2   0.0000
    88 C37      2.8707   8.2880   2.1257   C.ar      2 RES2   0.0000
    89 C38      3.8413   9.3053   2.5141   C.ar      2 RES2   0.0000
    90 H18      3.5629  10.1846   2.6335   H         2 RES2   0.0000
    91 C39      5.1211   8.9904   2.7027   C.ar      2 RES2   0.0000
    92 H19      5.7173   9.6667   2.9291   H         2 RES2   0.0000
    93 C40      1.5188   8.5196   1.9449   C.ar      2 RES2   0.0000
    94 H20      1.1665   9.3718   2.0707   H         2 RES2   0.0000
    95 C41      0.7186   7.4982   1.5848   C.ar      2 RES2   0.0000
    96 H21     -0.1917   7.6498   1.4669   H         2 RES2   0.0000
    97 C42      1.2409   6.1875   1.3804   C.ar      2 RES2   0.0000
    98 H22      0.6763   5.5047   1.0990   H         2 RES2   0.0000
    99 C43      2.7373   4.9856   4.4967   C.ar      2 RES2   0.0000
   100 H23      2.2198   5.6804   4.1571   H         2 RES2   0.0000
   101 C44      2.9016   4.8784   5.8818   C.ar      2 RES2   0.0000
   102 H24      2.5276   5.5176   6.4447   H         2 RES2   0.0000
   103 C45      3.5986   3.8533   6.4054   C.ar      2 RES2   0.0000
   104 H25      3.6997   3.7857   7.3268   H         2 RES2   0.0000
   105 C46      4.1719   2.8930   5.5768   C.ar      2 RES2   0.0000
   106 C47      4.0154   3.0988   4.1791   C.ar      2 RES2   0.0000
   107 C48      4.6250   2.1896   3.2577   C.ar      2 RES2   0.0000
   108 C49      5.3394   1.0670   3.7341   C.ar      2 RES2   0.0000
   109 C50      5.4166   0.8595   5.1492   C.ar      2 RES2   0.0000
   110 H26      5.8449   0.0983   5.4699   H         2 RES2   0.0000
   111 C51      4.9002   1.7192   6.0202   C.ar      2 RES2   0.0000
   112 H27      5.0077   1.5670   6.9321   H         2 RES2   0.0000
   113 C52      5.8931   0.2297   2.7530   C.ar      2 RES2   0.0000
   114 H28      6.3675  -0.5300   3.0062   H         2 RES2   0.0000
   115 C53      5.7400   0.5164   1.4528   C.ar      2 RES2   0.0000
   116 H29      6.1065  -0.0423   0.8066   H         2 RES2   0.0000
   117 C54      5.0205   1.6716   1.0629   C.ar      2 RES2   0.0000
   118 H30      4.9218   1.8530   0.1557   H         2 RES2   0.0000
   119 S4       4.1065   8.2575   6.2100   S.3       3 RES3   0.0000
   120 O17      6.5369   6.7412   6.3630   O.co2     3 RES3   0.0000
   121 O18      8.0048   8.4434   6.3692   O.co2     3 RES3  -1.0000
   122 O19      1.4171  11.1427   5.8960   O.co2     3 RES3   0.0000
   123 O20      1.3271   8.8719   6.0234   O.co2     3 RES3  -1.0000
   124 C55      6.8523   8.0245   6.2938   C.2       3 RES3   0.0000
   125 C56      5.7099   8.8901   6.1979   C.2       3 RES3   0.0000
   126 C57      5.6775  10.2334   6.0752   C.2       3 RES3   0.0000
   127 H31      6.4472  10.7528   6.0359   H         3 RES3   0.0000
   128 C58      4.4643  10.7510   6.0171   C.2       3 RES3   0.0000
   129 H32      4.3112  11.6663   5.9589   H         3 RES3   0.0000
   130 C59      3.4296   9.8167   6.0469   C.2       3 RES3   0.0000
   131 C60      1.9343  10.0952   6.0485   C.2       3 RES3   0.0000
   132 O21      8.5537   5.2101   6.6774   O.3       4 RES4   0.0000
   133 O22      9.0385  11.0988   5.8756   O.3       5 RES5   0.0000
   134 O23      0.8019  23.1614   7.8660   O.3       6 RES6   0.0000
   135 O24      2.1257  13.9247   6.1413   O.3       7 RES7   0.0000
   136 O25     11.8795  11.4904   5.7451   O.3       8 RES8   0.0000
   137 O26     -1.1661   9.2465   6.0454   O.3       9 RES9   0.0000
@<TRIPOS>BOND
     1     1     2    1
     2     2    10   un
     3     3     1    1
     4     4     1    1
     5     5     1    1
     6     6     1    1
     7     7     1    2
     8     8     1    2
     9     9     1    1
    10    10     9   un
    11    11     3   un
    12    12     4   un
    13    13    10    1
    14    14    11    1
    15    15    12    1
    16    16    13    1
    17    17    13    2
    18    18    14    1
    19    19    14    2
    20    20    15    1
    21    21    15    2
    22    22    16    1
    23    23    17    1
    24    24    17    1
    25    25    18    1
    26    26    19    1
    27    27    19    1
    28    28    20    1
    29    29    21    1
    30    30    21    1
    31    31    22    1
    32    32    24    1
    33    33    25    1
    34    34    26    1
    35    35    28    1
    36    36    30    1
    37    37    31   un
    38    38    31   un
    39    39    33   un
    40    40    33   un
    41    41    35   un
    42    42    35   un
    43    43    37   un
    44    44    46    2
    45    45    46    2
    46    46    39    1
    47    47    41   un
    48    48    46   un
    49    49    46   un
    50    50    46   un
    51    51    46   un
    52     5    11   un
    53     6    12   un
    54    22    24    2
    55    25    26    2
    56    28    30    2
    57    38    43   un
    58    40    46    1
    59    42    47   un
    60    52    53    1
    61    53    79   ar
    62    54    52    1
    63    55    52    1
    64    56    52    1
    65    57    52    1
    66    58    52    1
    67    59    57   ar
    68    60    59    1
    69    61    59   ar
    70    62    61    1
    71    63    61   ar
    72    64    63    1
    73    65    63   ar
    74    66    57   ar
    75    67    54   ar
    76    68    67   ar
    77    69    68   ar
    78    70    69    1
    79    71    65   ar
    80    72    71    1
    81    73    68   ar
    82    74    73    1
    83    75    73   ar
    84    76    75    1
    85    77    54   ar
    86    78    77    1
    87    79    80    1
    88    81    79   ar
    89    82    81    1
    90    83    81   ar
    91    84    83    1
    92    85    83   ar
    93    86    53   ar
    94    87    55   ar
    95    88    87   ar
    96    89    88   ar
    97    90    89    1
    98    91    85   ar
    99    92    91    1
   100    93    88   ar
   101    94    93    1
   102    95    93   ar
   103    96    95    1
   104    97    55   ar
   105    98    97    1
   106    99    56   ar
   107   100    99    1
   108   101    99   ar
   109   102   101    1
   110   103   101   ar
   111   104   103    1
   112   105   103   ar
   113   106    56   ar
   114   107    58   ar
   115   108   107   ar
   116   109   108   ar
   117   110   109    1
   118   111   105   ar
   119   112   111    1
   120   113   108   ar
   121   114   113    1
   122   115   113   ar
   123   116   115    1
   124   117    58   ar
   125   118   117    1
   126    65    66   ar
   127    66    67   ar
   128    69    71   ar
   129    75    77   ar
   130    85    86   ar
   131    86    87   ar
   132    89    91   ar
   133    95    97   ar
   134   105   106   ar
   135   106   107   ar
   136   109   111   ar
   137   115   117   ar
   138   119   125    1
   139   120   124    2
   140   121   124    1
   141   122   131    2
   142   123   131    1
   143   124   125    1
   144   125   126    2
   145   126   127    1
   146   128   126    1
   147   129   128    1
   148   130   119    1
   149   131   130    1
   150   128   130    2
@<TRIPOS>SUBSTRUCTURE
     1 RES1        1 GROUP             0 ****  ****    0  
     2 RES2       52 GROUP             0 ****  ****    0  
     3 RES3      119 GROUP             0 ****  ****    0  
     4 RES4      132 GROUP             0 ****  ****    0  
     5 RES5      133 GROUP             0 ****  ****    0  
     6 RES6      134 GROUP             0 ****  ****    0  
     7 RES7      135 GROUP             0 ****  ****    0  
     8 RES8      136 GROUP             0 ****  ****    0  
     9 RES9      137 GROUP             0 ****  ****    0  
@<TRIPOS>CRYSIN
   13.8588   15.8192   17.8350   67.6880   68.6860   76.1130     2     1
