@<TRIPOS>MOLECULE
NUKCEB
   109   117     6     0     0
SMALL
USER_CHARGES
****
Generated from the CSD

@<TRIPOS>ATOM
     1 Fe1      3.3896   1.7207   3.1938   Fe        1 RES1   2.0000
     2 N1       3.7894   1.2416   1.3184   N.ar      1 RES1   0.0000
     3 N2       4.0867  -0.0921   3.5342   N.ar      1 RES1   0.0000
     4 N3       2.9001   3.5782   2.7525   N.ar      1 RES1   0.0000
     5 N4       5.1904   2.5134   3.4050   N.ar      1 RES1   0.0000
     6 N5       1.5429   1.0118   3.0552   N.ar      1 RES1   0.0000
     7 N6       2.8606   2.0337   5.0652   N.ar      1 RES1   0.0000
     8 C1       3.6028   1.9345   0.1991   C.ar      1 RES1   0.0000
     9 C2       3.8817   1.4224  -1.0668   C.ar      1 RES1   0.0000
    10 C3       4.3784   0.1648  -1.1933   C.ar      1 RES1   0.0000
    11 C4       4.6074  -0.5995  -0.0457   C.ar      1 RES1   0.0000
    12 C5       5.1498  -1.9344  -0.0296   C.ar      1 RES1   0.0000
    13 C6       5.3503  -2.5934   1.1099   C.ar      1 RES1   0.0000
    14 C7       5.0420  -2.0175   2.3839   C.ar      1 RES1   0.0000
    15 C8       5.2494  -2.6372   3.6162   C.ar      1 RES1   0.0000
    16 C9       4.8585  -2.0046   4.7477   C.ar      1 RES1   0.0000
    17 C10      4.2642  -0.7425   4.6750   C.ar      1 RES1   0.0000
    18 C11      4.4772  -0.7350   2.3920   C.ar      1 RES1   0.0000
    19 C12      4.2922  -0.0212   1.1866   C.ar      1 RES1   0.0000
    20 C13      1.7060   4.1250   2.5319   C.ar      1 RES1   0.0000
    21 C14      1.5462   5.4766   2.2185   C.ar      1 RES1   0.0000
    22 C15      2.6335   6.2905   2.1310   C.ar      1 RES1   0.0000
    23 C16      3.9070   5.7656   2.3678   C.ar      1 RES1   0.0000
    24 C17      5.1253   6.5257   2.3422   C.ar      1 RES1   0.0000
    25 C18      6.3139   5.9617   2.6234   C.ar      1 RES1   0.0000
    26 C19      6.4120   4.5920   3.0216   C.ar      1 RES1   0.0000
    27 C20      7.5887   3.9572   3.4292   C.ar      1 RES1   0.0000
    28 C21      7.5409   2.6640   3.8369   C.ar      1 RES1   0.0000
    29 C22      6.3377   1.9596   3.8086   C.ar      1 RES1   0.0000
    30 C23      5.2314   3.8246   3.0243   C.ar      1 RES1   0.0000
    31 C24      3.9864   4.4094   2.7001   C.ar      1 RES1   0.0000
    32 C25      0.8767   0.5042   2.0207   C.ar      1 RES1   0.0000
    33 C26     -0.4080  -0.0277   2.1216   C.ar      1 RES1   0.0000
    34 C27     -1.0329  -0.0666   3.3283   C.ar      1 RES1   0.0000
    35 C28     -0.3879   0.4688   4.4504   C.ar      1 RES1   0.0000
    36 C29     -0.9596   0.5344   5.7634   C.ar      1 RES1   0.0000
    37 C30     -0.3072   1.1292   6.7791   C.ar      1 RES1   0.0000
    38 C31      1.0008   1.6829   6.6096   C.ar      1 RES1   0.0000
    39 C32      1.7384   2.3239   7.6105   C.ar      1 RES1   0.0000
    40 C33      2.9885   2.7821   7.3347   C.ar      1 RES1   0.0000
    41 C34      3.5260   2.6277   6.0526   C.ar      1 RES1   0.0000
    42 C35      1.6039   1.5807   5.3410   C.ar      1 RES1   0.0000
    43 C36      0.8933   0.9932   4.2634   C.ar      1 RES1   0.0000
    44 H1       3.2459   2.8756   0.2892   H         1 RES1   0.0000
    45 H2       3.6937   1.9615  -1.8297   H         1 RES1   0.0000
    46 H3       4.5628  -0.1956  -2.0368   H         1 RES1   0.0000
    47 H4       5.3678  -2.2761  -0.8758   H         1 RES1   0.0000
    48 H5       5.7808  -3.4314   1.1691   H         1 RES1   0.0000
    49 H6       5.6656  -3.4395   3.6189   H         1 RES1   0.0000
    50 H7       4.9590  -2.3995   5.6181   H         1 RES1   0.0000
    51 H8       4.0159  -0.3089   5.4567   H         1 RES1   0.0000
    52 H9       0.9943   3.5370   2.6032   H         1 RES1   0.0000
    53 H10      0.6952   5.7329   2.1041   H         1 RES1   0.0000
    54 H11      2.5034   7.1122   1.8996   H         1 RES1   0.0000
    55 H12      5.0649   7.4644   2.0974   H         1 RES1   0.0000
    56 H13      7.1164   6.4915   2.6584   H         1 RES1   0.0000
    57 H14      8.3228   4.4613   3.4373   H         1 RES1   0.0000
    58 H15      8.3107   2.2041   4.1571   H         1 RES1   0.0000
    59 H16      6.3123   1.0221   4.0965   H         1 RES1   0.0000
    60 H17      1.3317   0.5285   1.1556   H         1 RES1   0.0000
    61 H18     -0.7881  -0.3317   1.2956   H         1 RES1   0.0000
    62 H19     -1.8294  -0.4127   3.3606   H         1 RES1   0.0000
    63 H20     -1.8007   0.2044   5.8038   H         1 RES1   0.0000
    64 H21     -0.6956   1.1963   7.6025   H         1 RES1   0.0000
    65 H22      1.3987   2.4464   8.3922   H         1 RES1   0.0000
    66 H23      3.5141   3.1765   7.9590   H         1 RES1   0.0000
    67 H24      4.4320   2.9284   5.8616   H         1 RES1   0.0000
    68 O1      -2.7158   8.0588   3.3270   O.3       2 RES2  -1.0000
    69 C37     -2.4052   7.1182   2.5548   C.2       2 RES2   0.0000
    70 C38     -2.1585   5.8095   2.9732   C.2       2 RES2   0.0000
    71 C39     -2.0716   5.3332   4.2956   C.2       2 RES2   0.0000
    72 C40     -1.7902   3.9953   4.2499   C.2       2 RES2   0.0000
    73 C41     -1.7330   3.5915   2.9261   C.2       2 RES2   0.0000
    74 C42     -1.9451   4.6704   2.1256   C.2       2 RES2   0.0000
    75 C43     -2.2618   7.4707   1.1099   C.3       2 RES2   0.0000
    76 H25     -2.1766   5.7903   4.9912   H         2 RES2   0.0000
    77 H26     -1.6898   3.4663   4.9764   H         2 RES2   0.0000
    78 H27     -1.6111   2.6991   2.5292   H         2 RES2   0.0000
    79 H28     -1.9597   4.6651   1.2337   H         2 RES2   0.0000
    80 H29     -3.0668   6.9386   0.5637   H         2 RES2   0.0000
    81 H30     -2.5238   8.3677   0.8772   H         2 RES2   0.0000
    82 H31     -1.5646   7.1799   0.7076   H         2 RES2   0.0000
    83 O2       8.2066  -0.0304   8.3101   O.3       3 RES3  -1.0000
    84 C44      7.0935  -0.1171   8.8846   C.2       3 RES3   0.0000
    85 C45      6.9091  -0.1195  10.2810   C.2       3 RES3   0.0000
    86 C46      7.8960   0.0645  11.2819   C.2       3 RES3   0.0000
    87 C47      7.3087  -0.0649  12.5102   C.2       3 RES3   0.0000
    88 C48      5.9357  -0.3396  12.3071   C.2       3 RES3   0.0000
    89 C49      5.6874  -0.3686  10.9712   C.2       3 RES3   0.0000
    90 C50      5.8958  -0.2339   7.9738   C.3       3 RES3   0.0000
    91 H32      8.8221   0.2946  11.1689   H         3 RES3   0.0000
    92 H33      7.7423   0.0438  13.3591   H         3 RES3   0.0000
    93 H34      5.3467  -0.5606  12.9986   H         3 RES3   0.0000
    94 H35      4.8939  -0.4961  10.5824   H         3 RES3   0.0000
    95 H36      6.0266  -0.0383   7.0468   H         3 RES3   0.0000
    96 H37      5.5776  -0.9706   7.9294   H         3 RES3   0.0000
    97 H38      5.0778   0.0961   8.3209   H         3 RES3   0.0000
    98 O3       8.2230  -0.1918   5.3679   O.3       4 RES4   0.0000
    99 H39      8.4435  -0.9417   5.0221   H         4 RES4   0.0000
   100 H40      8.2662  -0.2540   6.3405   H         4 RES4   0.0000
   101 O4      10.7107  -0.6824   9.2666   O.3       5 RES5   0.0000
   102 H41     11.1114  -0.0097   9.5317   H         5 RES5   0.0000
   103 H42      9.9075  -0.3544   8.9370   H         5 RES5   0.0000
   104 N7       6.1534   3.6769   7.6845   N.1       6 RES6   0.0000
   105 C51      8.6442   3.1873   7.4948   C.3       6 RES6   0.0000
   106 C52      7.2453   3.4709   7.6078   C.1       6 RES6   0.0000
   107 H43      9.0586   3.8516   7.8688   H         6 RES6   0.0000
   108 H44      8.9716   2.7095   8.2550   H         6 RES6   0.0000
   109 H45      8.8990   2.7496   6.7993   H         6 RES6   0.0000
@<TRIPOS>BOND
     1     1     2    1
     2     2     8   ar
     3     3     1    1
     4     4     1    1
     5     5     1    1
     6     6     1    1
     7     7     1    1
     8     8     9   ar
     9     9    10   ar
    10    10    11   ar
    11    11    12   ar
    12    12    13   ar
    13    13    14   ar
    14    14    15   ar
    15    15    16   ar
    16    16    17   ar
    17    17     3   ar
    18    18     3   ar
    19    19     2   ar
    20    20     4   ar
    21    21    20   ar
    22    22    21   ar
    23    23    22   ar
    24    24    23   ar
    25    25    24   ar
    26    26    25   ar
    27    27    26   ar
    28    28    27   ar
    29    29     5   ar
    30    30     5   ar
    31    31     4   ar
    32    32     6   ar
    33    33    32   ar
    34    34    33   ar
    35    35    34   ar
    36    36    35   ar
    37    37    36   ar
    38    38    37   ar
    39    39    38   ar
    40    40    39   ar
    41    41     7   ar
    42    42     7   ar
    43    43     6   ar
    44    44     8    1
    45    45     9    1
    46    46    10    1
    47    47    12    1
    48    48    13    1
    49    49    15    1
    50    50    16    1
    51    51    17    1
    52    52    20    1
    53    53    21    1
    54    54    22    1
    55    55    24    1
    56    56    25    1
    57    57    27    1
    58    58    28    1
    59    59    29    1
    60    60    32    1
    61    61    33    1
    62    62    34    1
    63    63    36    1
    64    64    37    1
    65    65    39    1
    66    66    40    1
    67    67    41    1
    68    11    19   ar
    69    14    18   ar
    70    18    19   ar
    71    23    31   ar
    72    26    30   ar
    73    28    29   ar
    74    30    31   ar
    75    35    43   ar
    76    38    42   ar
    77    40    41   ar
    78    42    43   ar
    79    68    69    1
    80    69    70    2
    81    70    71    1
    82    71    72    2
    83    72    73    1
    84    73    74    2
    85    74    70    1
    86    75    69    1
    87    76    71    1
    88    77    72    1
    89    78    73    1
    90    79    74    1
    91    80    75    1
    92    81    75    1
    93    82    75    1
    94    83    84    1
    95    84    85    2
    96    85    86    1
    97    86    87    2
    98    87    88    1
    99    88    89    2
   100    89    85    1
   101    90    84    1
   102    91    86    1
   103    92    87    1
   104    93    88    1
   105    94    89    1
   106    95    90    1
   107    96    90    1
   108    97    90    1
   109    98    99    1
   110   100    98    1
   111   101   102    1
   112   103   101    1
   113   104   106    3
   114   105   106    1
   115   107   105    1
   116   108   105    1
   117   109   105    1
@<TRIPOS>SUBSTRUCTURE
     1 RES1        1 GROUP             0 ****  ****    0  
     2 RES2       68 GROUP             0 ****  ****    0  
     3 RES3       83 GROUP             0 ****  ****    0  
     4 RES4       98 GROUP             0 ****  ****    0  
     5 RES5      101 GROUP             0 ****  ****    0  
     6 RES6      104 GROUP             0 ****  ****    0  
@<TRIPOS>CRYSIN
   12.7140   13.1250   14.9460  106.4500  112.1300   79.6000     2     1
