@<TRIPOS>MOLECULE
NUKCIF
   126   138     5     0     0
SMALL
USER_CHARGES
****
Generated from the CSD

@<TRIPOS>ATOM
     1 Fe1     -0.1366   0.4183  12.1140   Fe        1 RES1   2.0000
     2 N1       1.2403   1.5528  12.9767   N.ar      1 RES1   0.0000
     3 N2      -1.3385   1.8457  12.7584   N.ar      1 RES1   0.0000
     4 N3      -1.6205  -0.5731  11.2451   N.ar      1 RES1   0.0000
     5 N4      -0.0211   1.2902  10.3508   N.ar      1 RES1   0.0000
     6 N5      -0.2465  -0.5966  13.8059   N.ar      1 RES1   0.0000
     7 N6       1.1585  -1.0038  11.6393   N.ar      1 RES1   0.0000
     8 C25      2.5746   1.3644  13.0761   C.ar      1 RES1   0.0000
     9 C26      3.3783   2.1883  13.8580   C.ar      1 RES1   0.0000
    10 C27      2.8434   3.2255  14.5390   C.ar      1 RES1   0.0000
    11 C28      1.4628   3.4808  14.4412   C.ar      1 RES1   0.0000
    12 C29      0.7820   4.5701  15.0749   C.ar      1 RES1   0.0000
    13 C30     -0.5442   4.7531  14.9055   C.ar      1 RES1   0.0000
    14 C31     -1.3319   3.8661  14.1089   C.ar      1 RES1   0.0000
    15 C32     -2.7124   4.0141  13.8825   C.ar      1 RES1   0.0000
    16 C33     -3.3514   3.0849  13.1380   C.ar      1 RES1   0.0000
    17 C34     -2.6659   2.0182  12.5923   C.ar      1 RES1   0.0000
    18 C35     -0.6970   2.7873  13.5078   C.ar      1 RES1   0.0000
    19 C36      0.7176   2.6029  13.6479   C.ar      1 RES1   0.0000
    20 C37     -2.4097  -1.5268  11.7322   C.ar      1 RES1   0.0000
    21 C38     -3.4584  -2.0736  10.9812   C.ar      1 RES1   0.0000
    22 C39     -3.7043  -1.6500   9.7203   C.ar      1 RES1   0.0000
    23 C40     -2.8907  -0.6499   9.1600   C.ar      1 RES1   0.0000
    24 C41     -3.0185  -0.1196   7.8486   C.ar      1 RES1   0.0000
    25 C42     -2.1786   0.8182   7.3615   C.ar      1 RES1   0.0000
    26 C43     -1.1118   1.3371   8.1728   C.ar      1 RES1   0.0000
    27 C44     -0.1949   2.3126   7.7476   C.ar      1 RES1   0.0000
    28 C45      0.7573   2.7482   8.6207   C.ar      1 RES1   0.0000
    29 C46      0.8230   2.2302   9.9077   C.ar      1 RES1   0.0000
    30 C47     -0.9773   0.8524   9.4760   C.ar      1 RES1   0.0000
    31 C48     -1.8541  -0.1492   9.9647   C.ar      1 RES1   0.0000
    32 C49     -0.9673  -0.3606  14.9071   C.ar      1 RES1   0.0000
    33 C50     -0.8631  -1.1497  16.0539   C.ar      1 RES1   0.0000
    34 C51     -0.0155  -2.2088  16.0800   C.ar      1 RES1   0.0000
    35 C52      0.7452  -2.5106  14.9348   C.ar      1 RES1   0.0000
    36 C53      1.6259  -3.6371  14.8159   C.ar      1 RES1   0.0000
    37 C54      2.2965  -3.8926  13.6772   C.ar      1 RES1   0.0000
    38 C55      2.1752  -3.0282  12.5450   C.ar      1 RES1   0.0000
    39 C56      2.8707  -3.2017  11.3331   C.ar      1 RES1   0.0000
    40 C57      2.7062  -2.2880  10.3508   C.ar      1 RES1   0.0000
    41 C58      1.8563  -1.1878  10.5218   C.ar      1 RES1   0.0000
    42 C59      1.3259  -1.9159  12.6379   C.ar      1 RES1   0.0000
    43 C60      0.5945  -1.6744  13.8336   C.ar      1 RES1   0.0000
    44 H1       2.9631   0.5533  12.5043   H         1 RES1   0.0000
    45 H2       4.2695   1.9453  13.8825   H         1 RES1   0.0000
    46 H3       3.3793   3.8019  15.0570   H         1 RES1   0.0000
    47 H4       1.2689   5.1608  15.6255   H         1 RES1   0.0000
    48 H5      -1.0742   5.4324  15.2574   H         1 RES1   0.0000
    49 H6      -3.1618   4.7410  14.3076   H         1 RES1   0.0000
    50 H7      -4.2732   3.1352  12.9784   H         1 RES1   0.0000
    51 H8      -3.0649   1.2368  12.1101   H         1 RES1   0.0000
    52 H9      -2.3031  -1.7573  12.7666   H         1 RES1   0.0000
    53 H10     -3.9063  -2.7260  11.3722   H         1 RES1   0.0000
    54 H11     -4.3453  -1.9286   9.2153   H         1 RES1   0.0000
    55 H12     -3.6645  -0.4257   7.3648   H         1 RES1   0.0000
    56 H13     -2.2946   1.1490   6.4786   H         1 RES1   0.0000
    57 H14     -0.1918   2.6503   6.8239   H         1 RES1   0.0000
    58 H15      1.3715   3.3572   8.3666   H         1 RES1   0.0000
    59 H16      1.4326   2.5394  10.4974   H         1 RES1   0.0000
    60 H17     -1.5618   0.3993  14.8876   H         1 RES1   0.0000
    61 H18     -1.3723  -0.9165  16.7854   H         1 RES1   0.0000
    62 H19      0.0784  -2.7314  16.8228   H         1 RES1   0.0000
    63 H20      1.6806  -4.1689  15.5375   H         1 RES1   0.0000
    64 H21      2.8306  -4.6997  13.5730   H         1 RES1   0.0000
    65 H22      3.4180  -3.9868  11.2223   H         1 RES1   0.0000
    66 H23      3.1730  -2.3289   9.5248   H         1 RES1   0.0000
    67 H24      1.7714  -0.5020   9.7871   H         1 RES1   0.0000
    68 O1      -3.7071   0.7936  15.8878   O.3       2 RES2  -1.0000
    69 C1      -4.2952  -0.2278  16.3472   C.2       2 RES2   0.0000
    70 C2      -4.3277  -0.6046  17.6911   C.2       2 RES2   0.0000
    71 C3      -3.6608   0.0339  18.7891   C.2       2 RES2   0.0000
    72 C4      -4.1046  -0.5336  19.9326   C.2       2 RES2   0.0000
    73 C5      -5.0623  -1.5434  19.6150   C.2       2 RES2   0.0000
    74 C6      -5.1862  -1.5963  18.2580   C.2       2 RES2   0.0000
    75 C7      -5.0178  -1.0902  15.3307   C.ar      2 RES2   0.0000
    76 C8      -6.2464  -0.7031  14.8126   C.ar      2 RES2   0.0000
    77 C9      -6.8905  -1.4945  13.8743   C.ar      2 RES2   0.0000
    78 C10     -6.3129  -2.6486  13.4296   C.ar      2 RES2   0.0000
    79 C11     -5.0910  -3.0488  13.9460   C.ar      2 RES2   0.0000
    80 C12     -4.4537  -2.2713  14.8925   C.ar      2 RES2   0.0000
    81 H25     -3.0442   0.8346  18.6995   H         2 RES2   0.0000
    82 H26     -3.9142  -0.3128  20.7993   H         2 RES2   0.0000
    83 H27     -5.5773  -2.1146  20.2535   H         2 RES2   0.0000
    84 H28     -5.7578  -2.2058  17.7709   H         2 RES2   0.0000
    85 H29     -6.6232   0.1412  15.1091   H         2 RES2   0.0000
    86 H30     -7.6974  -1.1311  13.4687   H         2 RES2   0.0000
    87 H31     -6.7367  -3.2194  12.7373   H         2 RES2   0.0000
    88 H32     -4.6697  -3.8660  13.7456   H         2 RES2   0.0000
    89 H33     -3.5836  -2.5532  15.2997   H         2 RES2   0.0000
    90 O2       2.7970   0.0691   7.7785   O.3       3 RES3  -1.0000
    91 C13      3.5292   1.0825   7.7492   C.2       3 RES3   0.0000
    92 C14      3.6333   1.9546   6.6513   C.2       3 RES3   0.0000
    93 C15      4.6523   2.9273   6.3923   C.2       3 RES3   0.0000
    94 C16      4.4604   3.4270   5.1298   C.2       3 RES3   0.0000
    95 C17      3.3258   2.8188   4.5694   C.2       3 RES3   0.0000
    96 C18      2.8299   1.9364   5.4686   C.2       3 RES3   0.0000
    97 C19      4.3489   1.3585   8.9922   C.ar      3 RES3   0.0000
    98 C20      5.0179   0.3034   9.6014   C.ar      3 RES3   0.0000
    99 C21      5.7298   0.5076  10.7759   C.ar      3 RES3   0.0000
   100 C22      5.7408   1.7367  11.3461   C.ar      3 RES3   0.0000
   101 C23      5.0868   2.8039  10.7743   C.ar      3 RES3   0.0000
   102 C24      4.3933   2.6103   9.5770   C.ar      3 RES3   0.0000
   103 H34      5.3834   3.0687   6.9543   H         3 RES3   0.0000
   104 H35      4.9670   3.9848   4.7290   H         3 RES3   0.0000
   105 H36      3.0192   2.9844   3.6637   H         3 RES3   0.0000
   106 H37      2.1298   1.3671   5.3660   H         3 RES3   0.0000
   107 H38      5.0236  -0.5617   9.2381   H         3 RES3   0.0000
   108 H39      6.0913  -0.2257  11.1262   H         3 RES3   0.0000
   109 H40      6.0602   1.9661  11.9749   H         3 RES3   0.0000
   110 H41      5.0443   3.7260  11.0235   H         3 RES3   0.0000
   111 H42      3.9293   3.3518   9.2105   H         3 RES3   0.0000
   112 O3      -3.4176   3.1509  17.3425   O.3       4 RES4   0.0000
   113 H43     -3.4103   2.1745  16.8766   H         4 RES4   0.0000
   114 H44     -4.0842   3.6823  17.3295   H         4 RES4   0.0000
   115 C61     -1.9595   5.3321   7.8844   C.ar      5 RES5   0.0000
   116 C62     -2.2320   4.9920   9.1551   C.ar      5 RES5   0.0000
   117 C63     -2.6629   4.8136   6.8761   C.ar      5 RES5   0.0000
   118 H45     -1.2215   5.9858   7.7427   H         5 RES5   0.0000
   119 H46     -1.8367   5.4707   9.9044   H         5 RES5   0.0000
   120 H47     -2.4274   4.9140   6.0827   H         5 RES5   0.0000
   121 C63A    -3.2561   4.1341   9.4141   C.ar      5 RES5   0.0000
   122 C61A    -3.9595   3.6156   8.4057   C.ar      5 RES5   0.0000
   123 C62A    -3.6870   3.9557   7.1351   C.ar      5 RES5   0.0000
   124 H46A    -4.0823   3.4770   6.3857   H         5 RES5   0.0000
   125 H45A    -4.6975   2.9619   8.5474   H         5 RES5   0.0000
   126 H47A    -3.4916   4.0337  10.2074   H         5 RES5   0.0000
@<TRIPOS>BOND
     1     1     2    1
     2     2     8   ar
     3     3     1    1
     4     4     1    1
     5     5     1    1
     6     6     1    1
     7     7     1    1
     8     8     9   ar
     9     9    10   ar
    10    10    11   ar
    11    11    12   ar
    12    12    13   ar
    13    13    14   ar
    14    14    15   ar
    15    15    16   ar
    16    16    17   ar
    17    17     3   ar
    18    18     3   ar
    19    19     2   ar
    20    20     4   ar
    21    21    20   ar
    22    22    21   ar
    23    23    22   ar
    24    24    23   ar
    25    25    24   ar
    26    26    25   ar
    27    27    26   ar
    28    28    27   ar
    29    29     5   ar
    30    30     5   ar
    31    31     4   ar
    32    32     6   ar
    33    33    32   ar
    34    34    33   ar
    35    35    34   ar
    36    36    35   ar
    37    37    36   ar
    38    38    37   ar
    39    39    38   ar
    40    40    39   ar
    41    41     7   ar
    42    42     7   ar
    43    43     6   ar
    44    44     8    1
    45    45     9    1
    46    46    10    1
    47    47    12    1
    48    48    13    1
    49    49    15    1
    50    50    16    1
    51    51    17    1
    52    52    20    1
    53    53    21    1
    54    54    22    1
    55    55    24    1
    56    56    25    1
    57    57    27    1
    58    58    28    1
    59    59    29    1
    60    60    32    1
    61    61    33    1
    62    62    34    1
    63    63    36    1
    64    64    37    1
    65    65    39    1
    66    66    40    1
    67    67    41    1
    68    11    19   ar
    69    14    18   ar
    70    18    19   ar
    71    23    31   ar
    72    26    30   ar
    73    28    29   ar
    74    30    31   ar
    75    35    43   ar
    76    38    42   ar
    77    40    41   ar
    78    42    43   ar
    79    68    69    1
    80    69    70    2
    81    70    71    1
    82    71    72    2
    83    72    73    1
    84    73    74    2
    85    74    70    1
    86    75    69    1
    87    76    75   ar
    88    77    76   ar
    89    78    77   ar
    90    79    78   ar
    91    80    75   ar
    92    81    71    1
    93    82    72    1
    94    83    73    1
    95    84    74    1
    96    85    76    1
    97    86    77    1
    98    87    78    1
    99    88    79    1
   100    89    80    1
   101    79    80   ar
   102    90    91    1
   103    91    92    2
   104    92    93    1
   105    93    94    2
   106    94    95    1
   107    95    96    2
   108    96    92    1
   109    97    91    1
   110    98    97   ar
   111    99    98   ar
   112   100    99   ar
   113   101   100   ar
   114   102    97   ar
   115   103    93    1
   116   104    94    1
   117   105    95    1
   118   106    96    1
   119   107    98    1
   120   108    99    1
   121   109   100    1
   122   110   101    1
   123   111   102    1
   124   101   102   ar
   125   112   113    1
   126   114   112    1
   127   115   116   ar
   128   116   119    1
   129   117   115   ar
   130   118   115    1
   131   120   117    1
   132   121   116   ar
   133   122   121   ar
   134   123   117   ar
   135   124   123    1
   136   125   122    1
   137   126   121    1
   138   122   123   ar
@<TRIPOS>SUBSTRUCTURE
     1 RES1        1 GROUP             0 ****  ****    0  
     2 RES2       68 GROUP             0 ****  ****    0  
     3 RES3       90 GROUP             0 ****  ****    0  
     4 RES4      112 GROUP             0 ****  ****    0  
     5 RES5      115 GROUP             0 ****  ****    0  
@<TRIPOS>CRYSIN
   12.2180   12.4400   16.9890   98.5600  102.0600  100.9800     2     1
