@<TRIPOS>MOLECULE
NUXXOT01
   124   121    10     0     0
SMALL
USER_CHARGES
****
Generated from the CSD

@<TRIPOS>ATOM
     1 Fe1      7.9524   3.1934  10.5379   Fe        1 RES1  -3.0000
     2 N1       4.8584   3.1475  10.4124   N.1       1 RES1   0.0000
     3 N2       7.6725   5.2636  12.8458   N.1       1 RES1   0.0000
     4 N3       8.1921   5.4046   8.3788   N.1       1 RES1   0.0000
     5 N4      10.9981   3.3396  11.0355   N.1       1 RES1   0.0000
     6 N5       8.1750   1.1507   8.2053   N.1       1 RES1   0.0000
     7 N6       7.9185   0.6675  12.3259   N.1       1 RES1   0.0000
     8 C1       6.0184   3.1700  10.4199   C.1       1 RES1   0.0000
     9 C2       7.7842   4.4858  11.9917   C.1       1 RES1   0.0000
    10 C3       8.0784   4.6129   9.2085   C.1       1 RES1   0.0000
    11 C4       9.8663   3.2654  10.8100   C.1       1 RES1   0.0000
    12 C5       8.1053   1.9070   9.0729   C.1       1 RES1   0.0000
    13 C6       7.9165   1.6325  11.6962   C.1       1 RES1   0.0000
    14 O1       9.7633  -0.5708  14.2170   O.3       2 RES2   0.0000
    15 H1       9.1905  -0.2367  13.5767   H         2 RES2   0.0000
    16 H2      10.2064   0.1115  14.5469   H         2 RES2   0.0000
    17 O2      10.7960   1.9422  15.1120   O.3       3 RES3   0.0000
    18 H3      11.5033   2.1421  15.7782   H         3 RES3   0.0000
    19 H4      11.4554   2.1950  14.3368   H         3 RES3   0.0000
    20 O3      12.6079   2.1104  12.9524   O.3       4 RES4   0.0000
    21 H5      12.1955   2.6586  12.3619   H         4 RES4   0.0000
    22 H6      13.3075   2.6821  13.3173   H         4 RES4   0.0000
    23 O4      14.8872   3.0610  14.0827   O.3       5 RES5   0.0000
    24 H7      14.8234   3.4744  14.8621   H         5 RES5   0.0000
    25 H8      15.3037   3.6700  13.5340   H         5 RES5   0.0000
    26 O5      16.2776   4.6333  12.2599   O.3       6 RES6   0.0000
    27 H9      16.7385   4.1865  11.5673   H         6 RES6   0.0000
    28 H10     15.6327   5.0961  11.8135   H         6 RES6   0.0000
    29 O6      14.1677   6.1973  11.2790   O.3       7 RES7   0.0000
    30 H11     13.5404   5.9647  11.9826   H         7 RES7   0.0000
    31 H12     14.2167   7.0837  11.2455   H         7 RES7   0.0000
    32 O7      14.4036   8.9645  11.2389   O.3       8 RES8   0.0000
    33 H13     13.9190   9.5956  10.7070   H         8 RES8   0.0000
    34 H14     14.4151   9.2474  12.2338   H         8 RES8   0.0000
    35 O8      15.1012   9.8851  13.8482   O.3       9 RES9   0.0000
    36 H15     14.9189  10.7244  13.9806   H         9 RES9   0.0000
    37 H16     14.9152   9.5995  14.7045   H         9 RES9   0.0000
    38 N7      10.4882   7.3377  14.9024   N.4      10 RES10   1.0000
    39 N8      12.1356   6.2034  13.2625   N.3      10 RES10   0.0000
    40 N9       5.6803   3.8701  16.0453   N.4      10 RES10   1.0000
    41 N10      5.9485   1.5193  15.0120   N.3      10 RES10   0.0000
    42 N11      5.3668   8.6490  12.0271   N.4      10 RES10   1.0000
    43 N12      5.3517   7.9959   9.5291   N.3      10 RES10   0.0000
    44 C7       8.1058   7.8158  15.7107   C.ar     10 RES10   0.0000
    45 C8       7.4632   6.7662  16.3892   C.ar     10 RES10   0.0000
    46 C9       6.1475   6.4086  16.0450   C.ar     10 RES10   0.0000
    47 C10      5.4227   7.1956  15.1128   C.ar     10 RES10   0.0000
    48 C11      6.0561   8.2929  14.4896   C.ar     10 RES10   0.0000
    49 C12      7.3802   8.6511  14.8360   C.ar     10 RES10   0.0000
    50 C13      8.1494   6.1453  17.5982   C.3      10 RES10   0.0000
    51 H17      8.6184   6.8431  18.1012   H        10 RES10   0.0000
    52 H18      8.7937   5.4717  17.2967   H        10 RES10   0.0000
    53 H19      7.4782   5.7221  18.1734   H        10 RES10   0.0000
    54 C14      3.9375   6.9280  14.9015   C.3      10 RES10   0.0000
    55 H20      3.5120   7.7254  14.5239   H        10 RES10   0.0000
    56 H21      3.5193   6.7101  15.7618   H        10 RES10   0.0000
    57 H22      3.8256   6.1741  14.2859   H        10 RES10   0.0000
    58 C15      7.9544   9.9867  14.3957   C.3      10 RES10   0.0000
    59 H23      7.3044  10.6970  14.5798   H        10 RES10   0.0000
    60 H24      8.1453   9.9595  13.4355   H        10 RES10   0.0000
    61 H25      8.7814  10.1649  14.8884   H        10 RES10   0.0000
    62 C16      9.5915   8.0484  15.9199   C.3      10 RES10   0.0000
    63 H26      9.8353   7.7391  16.8289   H        10 RES10   0.0000
    64 H27      9.7695   9.0205  15.8751   H        10 RES10   0.0000
    65 C17     11.9061   7.8117  15.1557   C.3      10 RES10   0.0000
    66 H28     12.1591   7.6276  16.0950   H        10 RES10   0.0000
    67 H29     11.9667   8.7877  15.0033   H        10 RES10   0.0000
    68 C18     12.8605   7.0767  14.2071   C.3      10 RES10   0.0000
    69 H30     13.3891   7.7410  13.6982   H        10 RES10   0.0000
    70 H31     13.4911   6.5281  14.7390   H        10 RES10   0.0000
    71 C19     10.1230   7.6659  13.4772   C.3      10 RES10   0.0000
    72 H32     10.1252   8.6468  13.3469   H        10 RES10   0.0000
    73 H33      9.2150   7.3283  13.2763   H        10 RES10   0.0000
    74 C20     11.1468   7.0117  12.5306   C.3      10 RES10   0.0000
    75 H34     10.6696   6.4342  11.8825   H        10 RES10   0.0000
    76 H35     11.6162   7.7176  12.0204   H        10 RES10   0.0000
    77 C21     10.4502   5.8391  15.0673   C.3      10 RES10   0.0000
    78 H36      9.5300   5.5070  14.9180   H        10 RES10   0.0000
    79 H37     10.7228   5.5950  15.9867   H        10 RES10   0.0000
    80 C22     11.4127   5.1910  14.0462   C.3      10 RES10   0.0000
    81 H38     12.0660   4.6227  14.5272   H        10 RES10   0.0000
    82 H39     10.8971   4.6110  13.4322   H        10 RES10   0.0000
    83 C23      5.4709   5.2280  16.7185   C.3      10 RES10   0.0000
    84 H40      4.4981   5.4091  16.7599   H        10 RES10   0.0000
    85 H41      5.8013   5.1685  17.6497   H        10 RES10   0.0000
    86 C24      5.0837   3.8367  14.6628   C.3      10 RES10   0.0000
    87 H42      5.5101   4.5249  14.0938   H        10 RES10   0.0000
    88 H43      4.1135   4.0280  14.7095   H        10 RES10   0.0000
    89 C25      5.3129   2.4411  14.0559   C.3      10 RES10   0.0000
    90 H44      4.4437   2.0639  13.7688   H        10 RES10   0.0000
    91 H45      5.8870   2.5256  13.2549   H        10 RES10   0.0000
    92 C26      7.1383   3.4920  15.9452   C.3      10 RES10   0.0000
    93 H46      7.5572   3.5350  16.8420   H        10 RES10   0.0000
    94 H47      7.6096   4.1297  15.3530   H        10 RES10   0.0000
    95 C27      7.2646   2.0715  15.3809   C.3      10 RES10   0.0000
    96 H48      7.8492   2.0874  14.5814   H        10 RES10   0.0000
    97 H49      7.6876   1.4868  16.0589   H        10 RES10   0.0000
    98 C28      4.9774   2.8401  16.8996   C.3      10 RES10   0.0000
    99 H50      4.0201   3.0733  16.9914   H        10 RES10   0.0000
   100 H51      5.3818   2.8171  17.8024   H        10 RES10   0.0000
   101 C29      5.1216   1.4658  16.2198   C.3      10 RES10   0.0000
   102 H52      5.5265   0.8295  16.8617   H        10 RES10   0.0000
   103 H53      4.2231   1.1268  15.9834   H        10 RES10   0.0000
   104 C30      5.3130   9.1451  13.4751   C.3      10 RES10   0.0000
   105 H54      5.6865  10.0612  13.5045   H        10 RES10   0.0000
   106 H55      4.3649   9.2024  13.7507   H        10 RES10   0.0000
   107 C31      4.5495   9.6404  11.2158   C.3      10 RES10   0.0000
   108 H56      4.9770  10.5327  11.2439   H        10 RES10   0.0000
   109 H57      3.6389   9.7188  11.5985   H        10 RES10   0.0000
   110 C32      4.4661   9.1459   9.7696   C.3      10 RES10   0.0000
   111 H58      3.5331   8.8855   9.5677   H        10 RES10   0.0000
   112 H59      4.7164   9.8832   9.1589   H        10 RES10   0.0000
   113 C33      4.7610   7.2801  11.8436   C.3      10 RES10   0.0000
   114 H60      3.8051   7.2950  12.1025   H        10 RES10   0.0000
   115 H61      5.2295   6.6220  12.4177   H        10 RES10   0.0000
   116 C34      4.9003   6.8773  10.3557   C.3      10 RES10   0.0000
   117 H62      5.5470   6.1330  10.2786   H        10 RES10   0.0000
   118 H63      4.0248   6.5575  10.0225   H        10 RES10   0.0000
   119 C35      6.7718   8.6190  11.4776   C.3      10 RES10   0.0000
   120 H64      7.2924   7.9054  11.9252   H        10 RES10   0.0000
   121 H65      7.2193   9.4841  11.6510   H        10 RES10   0.0000
   122 C36      6.7165   8.3536   9.9584   C.3      10 RES10   0.0000
   123 H66      7.0120   9.1633   9.4709   H        10 RES10   0.0000
   124 H67      7.3366   7.6158   9.7302   H        10 RES10   0.0000
@<TRIPOS>BOND
     1     1     8    1
     2     2     8    3
     3     3     9    3
     4     4    10    3
     5     5    11    3
     6     6    12    3
     7     7    13    3
     8     9     1    1
     9    10     1    1
    10    11     1    1
    11    12     1    1
    12    13     1    1
    13    14    15    1
    14    16    14    1
    15    17    18    1
    16    19    17    1
    17    20    21    1
    18    22    20    1
    19    23    24    1
    20    25    23    1
    21    26    27    1
    22    28    26    1
    23    29    30    1
    24    31    29    1
    25    32    33    1
    26    34    32    1
    27    35    36    1
    28    37    35    1
    29    38    62    1
    30    39    68    1
    31    40    83    1
    32    41    89    1
    33    42   104    1
    34    43   110    1
    35    44    45   ar
    36    45    46   ar
    37    46    47   ar
    38    47    48   ar
    39    48    49   ar
    40    49    44   ar
    41    50    45    1
    42    51    50    1
    43    52    50    1
    44    53    50    1
    45    54    47    1
    46    55    54    1
    47    56    54    1
    48    57    54    1
    49    58    49    1
    50    59    58    1
    51    60    58    1
    52    61    58    1
    53    62    44    1
    54    63    62    1
    55    64    62    1
    56    65    38    1
    57    66    65    1
    58    67    65    1
    59    68    65    1
    60    69    68    1
    61    70    68    1
    62    71    38    1
    63    72    71    1
    64    73    71    1
    65    74    39    1
    66    75    74    1
    67    76    74    1
    68    77    38    1
    69    78    77    1
    70    79    77    1
    71    80    39    1
    72    81    80    1
    73    82    80    1
    74    83    46    1
    75    84    83    1
    76    85    83    1
    77    86    40    1
    78    87    86    1
    79    88    86    1
    80    89    86    1
    81    90    89    1
    82    91    89    1
    83    92    40    1
    84    93    92    1
    85    94    92    1
    86    95    41    1
    87    96    95    1
    88    97    95    1
    89    98    40    1
    90    99    98    1
    91   100    98    1
    92   101    41    1
    93   102   101    1
    94   103   101    1
    95   104    48    1
    96   105   104    1
    97   106   104    1
    98   107    42    1
    99   108   107    1
   100   109   107    1
   101   110   107    1
   102   111   110    1
   103   112   110    1
   104   113    42    1
   105   114   113    1
   106   115   113    1
   107   116    43    1
   108   117   116    1
   109   118   116    1
   110   119    42    1
   111   120   119    1
   112   121   119    1
   113   122    43    1
   114   123   122    1
   115   124   122    1
   116    71    74    1
   117    77    80    1
   118    92    95    1
   119    98   101    1
   120   113   116    1
   121   119   122    1
@<TRIPOS>SUBSTRUCTURE
     1 RES1        1 GROUP             0 ****  ****    0  
     2 RES2       14 GROUP             0 ****  ****    0  
     3 RES3       17 GROUP             0 ****  ****    0  
     4 RES4       20 GROUP             0 ****  ****    0  
     5 RES5       23 GROUP             0 ****  ****    0  
     6 RES6       26 GROUP             0 ****  ****    0  
     7 RES7       29 GROUP             0 ****  ****    0  
     8 RES8       32 GROUP             0 ****  ****    0  
     9 RES9       35 GROUP             0 ****  ****    0  
    10 RES10      38 GROUP             0 ****  ****    0  
@<TRIPOS>CRYSIN
   13.1600   19.5629   16.4172   90.0000   90.3960   90.0000   231     1
