@<TRIPOS>MOLECULE
OBOFOC
   105   107     5     0     0
SMALL
USER_CHARGES
****
Generated from the CSD

@<TRIPOS>ATOM
     1 Fe1      8.2984  10.6396   4.8474   Fe        1 RES1   2.0000
     2 P1       7.7189   9.1370   3.2830   P.3       1 RES1   0.0000
     3 P2       8.7314  11.7279   6.7692   P.3       1 RES1   0.0000
     4 O1       5.7602   6.7464   8.5335   O.3       1 RES1   0.0000
     5 N1       7.4785   9.3382   6.0588   N.ar      1 RES1   0.0000
     6 N2       6.2222   7.3406   6.3668   N.ar      1 RES1   0.0000
     7 N3       6.9437   8.6111   8.2587   N.ar      1 RES1   0.0000
     8 N4       6.8676   8.0334   4.2607   N.pl3     1 RES1   0.0000
     9 H1       6.4437   7.3498   3.9020   H         1 RES1   0.0000
    10 N5       8.0782  10.6075   7.8856   N.pl3     1 RES1   0.0000
    11 H2       8.1264  10.7561   8.7518   H         1 RES1   0.0000
    12 N6       9.0835  11.8774   3.5921   N.1       1 RES1   0.0000
    13 N7      10.0063   9.7842   4.9717   N.1       1 RES1   0.0000
    14 N8       6.5837  11.4961   4.7158   N.1       1 RES1   0.0000
    15 C1       6.8564   8.2299   5.6051   C.ar      1 RES1   0.0000
    16 C2       6.3224   7.5754   7.6703   C.ar      1 RES1   0.0000
    17 C3       7.4855   9.4866   7.4069   C.ar      1 RES1   0.0000
    18 C4       9.0772   8.1954   2.5540   C.ar      1 RES1   0.0000
    19 C5       9.7909   8.8031   1.5160   C.ar      1 RES1   0.0000
    20 H3       9.4769   9.6134   1.1328   H         1 RES1   0.0000
    21 C6      10.9580   8.2192   1.0461   C.ar      1 RES1   0.0000
    22 H4      11.4465   8.6314   0.3433   H         1 RES1   0.0000
    23 C7      11.4111   7.0307   1.6056   C.ar      1 RES1   0.0000
    24 H5      12.2103   6.6309   1.2816   H         1 RES1   0.0000
    25 C8      10.7070   6.4267   2.6305   C.ar      1 RES1   0.0000
    26 H6      11.0189   5.6108   3.0037   H         1 RES1   0.0000
    27 C9       9.5396   7.0131   3.1165   C.ar      1 RES1   0.0000
    28 H7       9.0625   6.6054   3.8295   H         1 RES1   0.0000
    29 C10      6.6391   9.4375   1.8598   C.ar      1 RES1   0.0000
    30 C11      6.2177  10.7265   1.5290   C.ar      1 RES1   0.0000
    31 H8       6.4902  11.4658   2.0597   H         1 RES1   0.0000
    32 C12      5.3957  10.9295   0.4190   C.ar      1 RES1   0.0000
    33 H9       5.0945  11.8052   0.2060   H         1 RES1   0.0000
    34 C13      5.0174   9.8533  -0.3740   C.ar      1 RES1   0.0000
    35 H10      4.4684   9.9966  -1.1367   H         1 RES1   0.0000
    36 C14      5.4397   8.5637  -0.0553   C.ar      1 RES1   0.0000
    37 H11      5.1765   7.8298  -0.5969   H         1 RES1   0.0000
    38 C15      6.2472   8.3536   1.0577   C.ar      1 RES1   0.0000
    39 H12      6.5345   7.4753   1.2759   H         1 RES1   0.0000
    40 C16     10.4241  11.9448   7.3762   C.ar      1 RES1   0.0000
    41 C17     11.0278  13.2044   7.3766   C.ar      1 RES1   0.0000
    42 H13     10.5476  13.9660   7.0736   H         1 RES1   0.0000
    43 C18     12.3475  13.3369   7.8286   C.ar      1 RES1   0.0000
    44 H14     12.7633  14.1904   7.8288   H         1 RES1   0.0000
    45 C19     13.0464  12.2323   8.2733   C.ar      1 RES1   0.0000
    46 H15     13.9355  12.3318   8.5897   H         1 RES1   0.0000
    47 C20     12.4552  10.9744   8.2600   C.ar      1 RES1   0.0000
    48 H16     12.9457  10.2158   8.5535   H         1 RES1   0.0000
    49 C21     11.1410  10.8260   7.8145   C.ar      1 RES1   0.0000
    50 H17     10.7336   9.9672   7.8097   H         1 RES1   0.0000
    51 C22      7.9166  13.3143   7.0638   C.ar      1 RES1   0.0000
    52 C23      7.7748  14.1896   5.9747   C.ar      1 RES1   0.0000
    53 H18      8.0840  13.9316   5.1149   H         1 RES1   0.0000
    54 C24      7.1829  15.4343   6.1560   C.ar      1 RES1   0.0000
    55 H19      7.0960  16.0282   5.4201   H         1 RES1   0.0000
    56 C25      6.7174  15.8130   7.4113   C.ar      1 RES1   0.0000
    57 H20      6.3144  16.6645   7.5332   H         1 RES1   0.0000
    58 C26      6.8435  14.9403   8.4877   C.ar      1 RES1   0.0000
    59 H21      6.5170  15.1944   9.3431   H         1 RES1   0.0000
    60 C27      7.4457  13.6960   8.3189   C.ar      1 RES1   0.0000
    61 H22      7.5352  13.1071   9.0589   H         1 RES1   0.0000
    62 C28      9.5555  12.5210   2.7766   C.1       1 RES1   0.0000
    63 C29     10.1569  13.3200   1.7101   C.3       1 RES1   0.0000
    64 H23     10.6251  12.7286   1.0833   H         1 RES1   0.0000
    65 H24     10.7940  13.9552   2.0978   H         1 RES1   0.0000
    66 H25      9.4553  13.8107   1.2339   H         1 RES1   0.0000
    67 C30     11.0261   9.2792   4.9824   C.1       1 RES1   0.0000
    68 C31     12.3423   8.6488   4.9933   C.3       1 RES1   0.0000
    69 H26     12.2459   7.6942   5.1912   H         1 RES1   0.0000
    70 H27     12.9002   9.0703   5.6795   H         1 RES1   0.0000
    71 H28     12.7643   8.7595   4.1156   H         1 RES1   0.0000
    72 C32      5.5693  11.9993   4.6237   C.1       1 RES1   0.0000
    73 C33      4.2764  12.6503   4.4534   C.3       1 RES1   0.0000
    74 H29      3.6078  12.2002   5.0100   H         1 RES1   0.0000
    75 H30      4.0055  12.5976   3.5129   H         1 RES1   0.0000
    76 H31      4.3463  13.5899   4.7221   H         1 RES1   0.0000
    77 C34      5.0268   5.5864   8.0144   C.3       1 RES1   0.0000
    78 H32      4.6193   5.8139   7.1403   H         1 RES1   0.0000
    79 H33      4.2983   5.3463   8.6412   H         1 RES1   0.0000
    80 C35      5.9506   4.4210   7.8484   C.3       1 RES1   0.0000
    81 H34      5.4495   3.6542   7.4989   H         1 RES1   0.0000
    82 H35      6.3418   4.1875   8.7156   H         1 RES1   0.0000
    83 H36      6.6654   4.6569   7.2204   H         1 RES1   0.0000
    84 B1       5.9688  14.7319   1.8619   B         2 RES2  -1.0000
    85 F1       6.9395  13.9715   2.4778   F         2 RES2   0.0000
    86 F2       5.6147  15.7822   2.6950   F         2 RES2   0.0000
    87 F3       6.4421  15.2584   0.6818   F         2 RES2   0.0000
    88 F4       4.8501  13.9428   1.5932   F         2 RES2   0.0000
    89 B2      10.2265   6.3990   7.0120   B         3 RES3  -1.0000
    90 F5       9.9288   5.5177   8.0216   F         3 RES3   0.0000
    91 F6      10.9076   7.4982   7.5053   F         3 RES3   0.0000
    92 F7       9.0886   6.8099   6.3548   F         3 RES3   0.0000
    93 F8      11.0334   5.7457   6.0655   F         3 RES3   0.0000
    94 N9       5.8263   5.5646   3.1714   N.1       4 RES4   0.0000
    95 C36      5.2872   4.6649   2.7402   C.1       4 RES4   0.0000
    96 C37      4.6035   3.5237   2.1472   C.3       4 RES4   0.0000
    97 H37      4.5977   2.7794   2.7844   H         4 RES4   0.0000
    98 H38      5.0714   3.2513   1.3312   H         4 RES4   0.0000
    99 H39      3.6817   3.7729   1.9281   H         4 RES4   0.0000
   100 N10      6.7668   2.0066   4.4028   N.1       5 RES5   0.0000
   101 C38      7.5210   2.8101   4.6811   C.1       5 RES5   0.0000
   102 C39      8.4943   3.8314   5.0350   C.3       5 RES5   0.0000
   103 H40      8.0508   4.7044   5.0787   H         5 RES5   0.0000
   104 H41      9.2018   3.8587   4.3578   H         5 RES5   0.0000
   105 H42      8.8865   3.6206   5.9083   H         5 RES5   0.0000
@<TRIPOS>BOND
     1     1     2    1
     2     2     8    1
     3     3     1    1
     4     4    16    1
     5     5     1    1
     6     6    15   ar
     7     7    16   ar
     8     8     9    1
     9    10     3    1
    10    11    10    1
    11    12     1    1
    12    13     1    1
    13    14     1    1
    14    15     5   ar
    15    16     6   ar
    16    17     5   ar
    17    18     2    1
    18    19    18   ar
    19    20    19    1
    20    21    19   ar
    21    22    21    1
    22    23    21   ar
    23    24    23    1
    24    25    23   ar
    25    26    25    1
    26    27    18   ar
    27    28    27    1
    28    29     2    1
    29    30    29   ar
    30    31    30    1
    31    32    30   ar
    32    33    32    1
    33    34    32   ar
    34    35    34    1
    35    36    34   ar
    36    37    36    1
    37    38    29   ar
    38    39    38    1
    39    40     3    1
    40    41    40   ar
    41    42    41    1
    42    43    41   ar
    43    44    43    1
    44    45    43   ar
    45    46    45    1
    46    47    45   ar
    47    48    47    1
    48    49    40   ar
    49    50    49    1
    50    51     3    1
    51    52    51   ar
    52    53    52    1
    53    54    52   ar
    54    55    54    1
    55    56    54   ar
    56    57    56    1
    57    58    56   ar
    58    59    58    1
    59    60    51   ar
    60    61    60    1
    61    62    12    3
    62    63    62    1
    63    64    63    1
    64    65    63    1
    65    66    63    1
    66    67    13    3
    67    68    67    1
    68    69    68    1
    69    70    68    1
    70    71    68    1
    71    72    14    3
    72    73    72    1
    73    74    73    1
    74    75    73    1
    75    76    73    1
    76    77     4    1
    77    78    77    1
    78    79    77    1
    79    80    77    1
    80    81    80    1
    81    82    80    1
    82    83    80    1
    83     7    17   ar
    84     8    15    1
    85    10    17    1
    86    25    27   ar
    87    36    38   ar
    88    47    49   ar
    89    58    60   ar
    90    84    85    1
    91    86    84    1
    92    87    84    1
    93    88    84    1
    94    89    90    1
    95    91    89    1
    96    92    89    1
    97    93    89    1
    98    94    95    3
    99    95    96    1
   100    96    97    1
   101    98    96    1
   102    99    96    1
   103   100   101    3
   104   101   102    1
   105   102   103    1
   106   104   102    1
   107   105   102    1
@<TRIPOS>SUBSTRUCTURE
     1 RES1        1 GROUP             0 ****  ****    0  
     2 RES2       84 GROUP             0 ****  ****    0  
     3 RES3       89 GROUP             0 ****  ****    0  
     4 RES4       94 GROUP             0 ****  ****    0  
     5 RES5      100 GROUP             0 ****  ****    0  
@<TRIPOS>CRYSIN
    8.8548   13.8402   20.1352   71.3990   82.7310   72.7890     2     1
