@<TRIPOS>MOLECULE
OCEFOS
   409   440    13     0     0
SMALL
NO_CHARGES
****
Generated from the CSD

@<TRIPOS>ATOM
     1 Fe1     -1.9906  19.0979   8.3958   Fe        1 RES1   0.0000
     2 Fe2     -5.1463  21.6134   5.9084   Fe        1 RES1   0.0000
     3 Fe3     -3.8415  16.8062   6.7124   Fe        1 RES1   0.0000
     4 Fe4     -6.3643  18.4582   5.9108   Fe        1 RES1   0.0000
     5 Fe5     -2.8447  19.1009   5.0337   Fe        1 RES1   0.0000
     6 Fe6     -0.1399  21.1418   6.4323   Fe        1 RES1   0.0000
     7 Fe7     -2.1981  21.8930   4.1904   Fe        1 RES1   0.0000
     8 Fe8     -2.4302  22.5158   7.8241   Fe        1 RES1   0.0000
     9 Fe9     -3.7808  20.7847  10.7188   Fe        1 RES1   0.0000
    10 Fe10    -5.1336  23.0227   8.9995   Fe        1 RES1   0.0000
    11 Fe11    -5.4665  19.4324   8.6245   Fe        1 RES1   0.0000
    12 O1      -2.8417  18.3971   6.7997   O.3       1 RES1   0.0000
    13 O2      -1.5702  20.7989   7.5924   O.3       1 RES1   0.0000
    14 O3      -3.6410  19.6932   9.1725   O.3       1 RES1   0.0000
    15 O4      -5.6251  19.9627   6.7595   O.3       1 RES1   0.0000
    16 O5      -3.5643  20.8955   5.0643   O.3       1 RES1   0.0000
    17 O6      -4.3089  22.3079   7.4264   O.3       1 RES1   0.0000
    18 O7      -4.5559  17.9443   5.0429   O.3       1 RES1   0.0000
    19 H1      -4.6454  17.4808   4.3358   H         1 RES1   0.0000
    20 O8      -1.1263  20.2031   4.8581   O.3       1 RES1   0.0000
    21 H2      -0.5962  19.8958   4.2716   H         1 RES1   0.0000
    22 O9      -1.5666  22.7448   5.9454   O.3       1 RES1   0.0000
    23 H3      -1.1953  23.5008   5.8356   H         1 RES1   0.0000
    24 O10     -3.2035  22.4938   9.7054   O.3       1 RES1   0.0000
    25 H4      -2.8602  23.0822  10.2116   H         1 RES1   0.0000
    26 O11     -5.6109  21.1406   9.7108   O.3       1 RES1   0.0000
    27 H5      -6.2828  21.1448  10.2357   H         1 RES1   0.0000
    28 O12     -5.4806  17.6065   7.6460   O.3       1 RES1   0.0000
    29 H6      -5.9724  17.0236   8.0236   H         1 RES1   0.0000
    30 O13     -5.1451  15.3347   6.0632   O.co2     1 RES1   0.0000
    31 O14     -6.9198  16.5321   5.4098   O.co2     1 RES1   0.0000
    32 C1      -6.2973  15.4584   5.5999   C.2       1 RES1   0.0000
    33 C2      -7.0340  14.1988   5.2196   C.3       1 RES1   0.0000
    34 H7      -7.8602  14.1516   5.7418   H         1 RES1   0.0000
    35 H8      -7.2846  14.2580   4.2742   H         1 RES1   0.0000
    36 C3      -6.2555  12.9236   5.4312   C.3       1 RES1   0.0000
    37 H9      -6.7093  12.1966   4.9572   H         1 RES1   0.0000
    38 H10     -5.3663  13.0294   5.0348   H         1 RES1   0.0000
    39 C4      -6.1008  12.5359   6.8506   C.2       1 RES1   0.0000
    40 O15     -6.6954  13.1141   7.7317   O.2       1 RES1   0.0000
    41 C5      -5.2034  11.3939   7.2068   C.ar      1 RES1   0.0000
    42 C6      -4.6627  10.5851   6.2587   C.ar      1 RES1   0.0000
    43 H11     -4.8636  10.7317   5.3508   H         1 RES1   0.0000
    44 C7      -3.7958   9.5214   6.6256   C.ar      1 RES1   0.0000
    45 H12     -3.4041   8.9617   5.9829   H         1 RES1   0.0000
    46 C8      -3.5613   9.3513   7.9486   C.ar      1 RES1   0.0000
    47 H13     -3.0108   8.6347   8.2084   H         1 RES1   0.0000
    48 C9      -4.0645  10.1350   8.9127   C.ar      1 RES1   0.0000
    49 H14     -3.8427   9.9903   9.8125   H         1 RES1   0.0000
    50 C10     -4.9279  11.1769   8.5485   C.ar      1 RES1   0.0000
    51 H15     -5.3182  11.7225   9.2100   H         1 RES1   0.0000
    52 O16      1.0310  21.9444   4.9946   O.co2     1 RES1   0.0000
    53 O17     -0.4165  22.6888   3.4762   O.co2     1 RES1   0.0000
    54 C11      0.7335  22.6024   3.9689   C.2       1 RES1   0.0000
    55 C12      1.8348  23.3631   3.2967   C.3       1 RES1   0.0000
    56 H16      1.7622  24.3067   3.5485   H         1 RES1   0.0000
    57 H17      1.7101  23.3029   2.3273   H         1 RES1   0.0000
    58 C13      3.2227  22.8752   3.6395   C.3       1 RES1   0.0000
    59 H18      3.8780  23.5166   3.2914   H         1 RES1   0.0000
    60 H19      3.3178  22.8514   4.6144   H         1 RES1   0.0000
    61 C14      3.5253  21.5338   3.0932   C.2       1 RES1   0.0000
    62 O18      2.7078  20.9604   2.3942   O.2       1 RES1   0.0000
    63 C15      4.8505  20.9090   3.3637   C.ar      1 RES1   0.0000
    64 C16      5.8938  21.5560   3.9636   C.ar      1 RES1   0.0000
    65 H20      5.8007  22.4609   4.1993   H         1 RES1   0.0000
    66 C17      7.1061  20.8914   4.2314   C.ar      1 RES1   0.0000
    67 H21      7.8196  21.3364   4.6519   H         1 RES1   0.0000
    68 C18      7.2099  19.5939   3.8645   C.ar      1 RES1   0.0000
    69 H22      8.0186  19.1448   4.0279   H         1 RES1   0.0000
    70 C19      6.2081  18.9226   3.2780   C.ar      1 RES1   0.0000
    71 H23      6.3164  18.0170   3.0450   H         1 RES1   0.0000
    72 C20      5.0044  19.5814   3.0182   C.ar      1 RES1   0.0000
    73 H24      4.2976  19.1210   2.6058   H         1 RES1   0.0000
    74 O19     -4.4126  22.1325  12.1237   O.co2     1 RES1   0.0000
    75 O20     -5.4794  23.6581  10.8918   O.co2     1 RES1   0.0000
    76 C21     -5.0250  23.1844  11.9684   C.2       1 RES1   0.0000
    77 C22     -5.2346  24.0694  13.1869   C.3       1 RES1   0.0000
    78 H25     -4.6921  24.8801  13.0905   H         1 RES1   0.0000
    79 H26     -6.1739  24.3417  13.2244   H         1 RES1   0.0000
    80 C23     -4.8693  23.3856  14.4831   C.3       1 RES1   0.0000
    81 H27     -3.9780  22.9893  14.3921   H         1 RES1   0.0000
    82 H28     -4.8241  24.0597  15.1955   H         1 RES1   0.0000
    83 C24     -5.8192  22.3342  14.8875   C.2       1 RES1   0.0000
    84 O21     -6.8212  22.1160  14.2501   O.2       1 RES1   0.0000
    85 C25     -5.5688  21.5752  16.1516   C.ar      1 RES1   0.0000
    86 C26     -4.4166  21.7280  16.8533   C.ar      1 RES1   0.0000
    87 H29     -3.7609  22.3232  16.5372   H         1 RES1   0.0000
    88 C27     -4.1808  21.0158  18.0423   C.ar      1 RES1   0.0000
    89 H30     -3.3879  21.1335  18.5351   H         1 RES1   0.0000
    90 C28     -5.1414  20.1556  18.4440   C.ar      1 RES1   0.0000
    91 H31     -4.9866  19.6461  19.2180   H         1 RES1   0.0000
    92 C29     -6.2958  19.9875  17.8067   C.ar      1 RES1   0.0000
    93 H32     -6.9476  19.4020  18.1468   H         1 RES1   0.0000
    94 C30     -6.5313  20.7049  16.6042   C.ar      1 RES1   0.0000
    95 H33     -7.3310  20.5859  16.1248   H         1 RES1   0.0000
    96 O22     -2.4673  15.8020   5.6776   O.co2     1 RES1   0.0000
    97 O23     -1.6031  17.4843   4.4992   O.co2     1 RES1   0.0000
    98 C31     -1.5887  16.3135   4.9277   C.2       1 RES1   0.0000
    99 C32     -0.4733  15.3947   4.5072   C.3       1 RES1   0.0000
   100 H34     -0.8616  14.5595   4.1725   H         1 RES1   0.0000
   101 H35      0.0691  15.1747   5.2946   H         1 RES1   0.0000
   102 C33      0.4292  15.9782   3.4387   C.3       1 RES1   0.0000
   103 H36     -0.1187  16.2540   2.6754   H         1 RES1   0.0000
   104 H37      0.8714  16.7774   3.7949   H         1 RES1   0.0000
   105 C34      1.4661  15.0227   2.9700   C.2       1 RES1   0.0000
   106 O24      1.5276  13.8904   3.4065   O.2       1 RES1   0.0000
   107 C35      2.4015  15.4828   1.9014   C.ar      1 RES1   0.0000
   108 C36      2.5100  16.8040   1.5694   C.ar      1 RES1   0.0000
   109 H38      2.0152  17.4482   2.0434   H         1 RES1   0.0000
   110 C37      3.3551  17.2084   0.5249   C.ar      1 RES1   0.0000
   111 H39      3.4895  18.1178   0.3374   H         1 RES1   0.0000
   112 C38      3.9790  16.2312  -0.2089   C.ar      1 RES1   0.0000
   113 H40      4.5152  16.4911  -0.9373   H         1 RES1   0.0000
   114 C39      3.8551  14.9170   0.0696   C.ar      1 RES1   0.0000
   115 H41      4.2928  14.2740  -0.4580   H         1 RES1   0.0000
   116 C40      3.0727  14.5338   1.1382   C.ar      1 RES1   0.0000
   117 H42      2.9924  13.6214   1.3551   H         1 RES1   0.0000
   118 O25     -3.0599  19.0252   2.9111   O.co2     1 RES1   0.0000
   119 O26     -2.4215  21.0869   2.3728   O.co2     1 RES1   0.0000
   120 C41     -2.7998  19.9154   2.0755   C.2       1 RES1   0.0000
   121 C42     -2.9690  19.6603   0.6052   C.3       1 RES1   0.0000
   122 H43     -2.2231  20.0882   0.1339   H         1 RES1   0.0000
   123 H44     -3.7925  20.1020   0.3107   H         1 RES1   0.0000
   124 C43     -3.0287  18.2150   0.1714   C.3       1 RES1   0.0000
   125 H45     -3.7071  17.7557   0.7097   H         1 RES1   0.0000
   126 H46     -3.3195  18.1811  -0.7633   H         1 RES1   0.0000
   127 C44     -1.7462  17.4840   0.2973   C.2       1 RES1   0.0000
   128 O27     -0.7458  18.0029   0.7311   O.2       1 RES1   0.0000
   129 C45     -1.7008  16.0625  -0.1794   C.ar      1 RES1   0.0000
   130 C46     -2.8127  15.3979  -0.5999   C.ar      1 RES1   0.0000
   131 H47     -3.6458  15.8357  -0.6186   H         1 RES1   0.0000
   132 C47     -2.7130  14.0348  -1.0070   C.ar      1 RES1   0.0000
   133 H48     -3.4559  13.5630  -1.3390   H         1 RES1   0.0000
   134 C48     -1.4842  13.4540  -0.8972   C.ar      1 RES1   0.0000
   135 H49     -1.4139  12.5420  -1.1114   H         1 RES1   0.0000
   136 C49     -0.3830  14.0833  -0.5062   C.ar      1 RES1   0.0000
   137 H50      0.4449  13.6346  -0.4740   H         1 RES1   0.0000
   138 C50     -0.4861  15.4257  -0.1419   C.ar      1 RES1   0.0000
   139 H51      0.2802  15.8955   0.1339   H         1 RES1   0.0000
   140 O28      0.9246  22.2987   7.6835   O.co2     1 RES1   0.0000
   141 O29     -0.7573  23.2548   8.7975   O.co2     1 RES1   0.0000
   142 C51      0.4421  23.1342   8.5030   C.2       1 RES1   0.0000
   143 C52      1.4347  24.0061   9.2501   C.3       1 RES1   0.0000
   144 H52      0.9791  24.8149   9.5581   H         1 RES1   0.0000
   145 H53      1.7511  23.5216  10.0402   H         1 RES1   0.0000
   146 C53      2.6266  24.4038   8.4119   C.3       1 RES1   0.0000
   147 H54      3.2161  24.9730   8.9502   H         1 RES1   0.0000
   148 H55      3.1294  23.5971   8.1762   H         1 RES1   0.0000
   149 C54      2.2768  25.1250   7.1693   C.2       1 RES1   0.0000
   150 O30      1.1333  25.2977   6.8318   O.2       1 RES1   0.0000
   151 C55      3.4003  25.5354   6.2534   C.ar      1 RES1   0.0000
   152 C56      4.6706  25.0986   6.4462   C.ar      1 RES1   0.0000
   153 H56      4.8645  24.5344   7.1746   H         1 RES1   0.0000
   154 C57      5.7017  25.4846   5.5597   C.ar      1 RES1   0.0000
   155 H57      6.5811  25.1613   5.6561   H         1 RES1   0.0000
   156 C58      5.3700  26.3340   4.5715   C.ar      1 RES1   0.0000
   157 H58      6.0489  26.6225   3.9904   H         1 RES1   0.0000
   158 C59      4.1095  26.8048   4.3573   C.ar      1 RES1   0.0000
   159 H59      3.9199  27.3639   3.6261   H         1 RES1   0.0000
   160 C60      3.1104  26.4335   5.2544   C.ar      1 RES1   0.0000
   161 H60      2.2468  26.7935   5.1741   H         1 RES1   0.0000
   162 O31     -4.6589  24.9338   8.5726   O.co2     1 RES1   0.0000
   163 O32     -2.6748  24.5827   7.5790   O.co2     1 RES1   0.0000
   164 C61     -3.6311  25.3082   7.9620   C.2       1 RES1   0.0000
   165 C62     -3.5512  26.7667   7.6031   C.3       1 RES1   0.0000
   166 H61     -4.0266  27.2816   8.2887   H         1 RES1   0.0000
   167 H62     -4.0213  26.9050   6.7542   H         1 RES1   0.0000
   168 C63     -2.1573  27.3237   7.4719   C.3       1 RES1   0.0000
   169 H63     -1.6968  26.8440   6.7515   H         1 RES1   0.0000
   170 H64     -2.2205  28.2649   7.2068   H         1 RES1   0.0000
   171 C64     -1.3383  27.2361   8.6904   C.2       1 RES1   0.0000
   172 O33     -1.7543  26.6866   9.6974   O.2       1 RES1   0.0000
   173 C65      0.0398  27.8242   8.7199   C.ar      1 RES1   0.0000
   174 C66      0.5645  28.4853   7.6406   C.ar      1 RES1   0.0000
   175 H65      0.0669  28.5775   6.8479   H         1 RES1   0.0000
   176 C67      1.8759  29.0305   7.7370   C.ar      1 RES1   0.0000
   177 H66      2.2219  29.5839   7.0621   H         1 RES1   0.0000
   178 C68      2.6108  28.7238   8.8324   C.ar      1 RES1   0.0000
   179 H67      3.5238  28.9504   8.8350   H         1 RES1   0.0000
   180 C69      2.1024  28.1122   9.9223   C.ar      1 RES1   0.0000
   181 H68      2.6200  27.9878  10.6963   H         1 RES1   0.0000
   182 C70      0.7831  27.6736   9.8634   C.ar      1 RES1   0.0000
   183 H69      0.3960  27.2693  10.6160   H         1 RES1   0.0000
   184 O34     -5.7760  18.2689  10.3348   O.co2     1 RES1   0.0000
   185 O35     -4.6271  19.4146  11.8827   O.co2     1 RES1   0.0000
   186 C71     -5.4207  18.5029  11.5051   C.2       1 RES1   0.0000
   187 C72     -5.9294  17.5786  12.5897   C.3       1 RES1   0.0000
   188 H70     -5.2177  16.9473  12.8227   H         1 RES1   0.0000
   189 H71     -6.1266  18.1129  13.3878   H         1 RES1   0.0000
   190 C73     -7.1658  16.7992  12.2148   C.3       1 RES1   0.0000
   191 H72     -7.0074  16.3636  11.3498   H         1 RES1   0.0000
   192 H73     -7.2995  16.0917  12.8816   H         1 RES1   0.0000
   193 C74     -8.4095  17.6002  12.1184   C.2       1 RES1   0.0000
   194 O36     -8.3980  18.7761  12.3889   O.2       1 RES1   0.0000
   195 C75     -9.6878  16.9344  11.7434   C.ar      1 RES1   0.0000
   196 C76     -9.7579  15.6248  11.4194   C.ar      1 RES1   0.0000
   197 H74     -8.9803  15.0991  11.4596   H         1 RES1   0.0000
   198 C77    -10.9737  15.0251  11.0257   C.ar      1 RES1   0.0000
   199 H75    -11.0266  14.1080  10.8329   H         1 RES1   0.0000
   200 C78    -12.0588  15.8254  10.9320   C.ar      1 RES1   0.0000
   201 H76    -12.8672  15.4474  10.6347   H         1 RES1   0.0000
   202 C79    -12.0398  17.1170  11.2426   C.ar      1 RES1   0.0000
   203 H77    -12.8219  17.6337  11.1677   H         1 RES1   0.0000
   204 C80    -10.8565  17.6982  11.6819   C.ar      1 RES1   0.0000
   205 H78    -10.8408  18.6026  11.9363   H         1 RES1   0.0000
   206 O37     -7.5572  19.4016   8.7386   O.co2     1 RES1   0.0000
   207 O38     -8.1607  18.6043   6.7542   O.co2     1 RES1   0.0000
   208 C81     -8.4140  18.9866   7.9245   C.2       1 RES1   0.0000
   209 C82     -9.8346  18.9348   8.4012   C.3       1 RES1   0.0000
   210 H79    -10.1648  19.8543   8.4789   H         1 RES1   0.0000
   211 H80     -9.8441  18.5404   9.2983   H         1 RES1   0.0000
   212 C83    -10.7901  18.1628   7.5335   C.3       1 RES1   0.0000
   213 H81    -11.6958  18.2656   7.8950   H         1 RES1   0.0000
   214 H82    -10.7833  18.5521   6.6336   H         1 RES1   0.0000
   215 C84    -10.4841  16.7150   7.4264   C.2       1 RES1   0.0000
   216 O39     -9.6055  16.2059   8.0771   O.2       1 RES1   0.0000
   217 C85    -11.3174  15.8594   6.5212   C.ar      1 RES1   0.0000
   218 C86    -12.3007  16.4024   5.7525   C.ar      1 RES1   0.0000
   219 H83    -12.4595  17.3269   5.7927   H         1 RES1   0.0000
   220 C87    -13.0862  15.6009   4.8956   C.ar      1 RES1   0.0000
   221 H84    -13.7647  15.9671   4.3599   H         1 RES1   0.0000
   222 C88    -12.8081  14.2656   4.8902   C.ar      1 RES1   0.0000
   223 H85    -13.3425  13.7047   4.3573   H         1 RES1   0.0000
   224 C89    -11.8140  13.7064   5.5972   C.ar      1 RES1   0.0000
   225 H86    -11.6434  12.7844   5.5303   H         1 RES1   0.0000
   226 C90    -11.0320  14.5156   6.4381   C.ar      1 RES1   0.0000
   227 H87    -10.3251  14.1455   6.9336   H         1 RES1   0.0000
   228 O40     -2.2222  17.3185   9.5126   O.co2     1 RES1   0.0000
   229 O41     -3.3945  15.8192   8.3423   O.co2     1 RES1   0.0000
   230 C91     -2.8432  16.2546   9.4028   C.2       1 RES1   0.0000
   231 C92     -3.0068  15.4076  10.6320   C.3       1 RES1   0.0000
   232 H88     -2.2263  14.8190  10.7097   H         1 RES1   0.0000
   233 H89     -3.0098  15.9971  11.4167   H         1 RES1   0.0000
   234 C93     -4.2459  14.5583  10.6722   C.3       1 RES1   0.0000
   235 H90     -5.0287  15.1456  10.5919   H         1 RES1   0.0000
   236 H91     -4.2409  13.9637   9.8929   H         1 RES1   0.0000
   237 C94     -4.4025  13.7325  11.8934   C.2       1 RES1   0.0000
   238 O42     -3.5256  13.7020  12.7343   O.2       1 RES1   0.0000
   239 C95     -5.6455  12.9182  12.0782   C.ar      1 RES1   0.0000
   240 C96     -6.7225  13.0277  11.2775   C.ar      1 RES1   0.0000
   241 H92     -6.6933  13.6221  10.5517   H         1 RES1   0.0000
   242 C97     -7.8878  12.2758  11.4997   C.ar      1 RES1   0.0000
   243 H93     -8.6436  12.3755  10.9507   H         1 RES1   0.0000
   244 C98     -7.8799  11.3944  12.5415   C.ar      1 RES1   0.0000
   245 H94     -8.6461  10.8708  12.6942   H         1 RES1   0.0000
   246 C99     -6.8289  11.2457  13.3530   C.ar      1 RES1   0.0000
   247 H95     -6.8651  10.6378  14.0707   H         1 RES1   0.0000
   248 C100    -5.6783  11.9989  13.1253   C.ar      1 RES1   0.0000
   249 H96     -4.9260  11.8870  13.6770   H         1 RES1   0.0000
   250 O43     -0.2485  18.1285   7.7022   O.co2     1 RES1   0.0000
   251 O44      1.0787  19.6462   6.7140   O.co2     1 RES1   0.0000
   252 C101     0.8100  18.4851   7.1666   C.2       1 RES1   0.0000
   253 C102     1.8671  17.4280   6.9470   C.3       1 RES1   0.0000
   254 H97      1.7705  17.0699   6.0391   H         1 RES1   0.0000
   255 H98      2.7500  17.8492   7.0059   H         1 RES1   0.0000
   256 C103     1.8066  16.2813   7.9298   C.3       1 RES1   0.0000
   257 H99      0.9468  15.8215   7.8308   H         1 RES1   0.0000
   258 H100     2.5153  15.6396   7.7129   H         1 RES1   0.0000
   259 C104     1.9641  16.7128   9.3385   C.2       1 RES1   0.0000
   260 O45      2.3753  17.8080   9.6331   O.2       1 RES1   0.0000
   261 C105     1.6267  15.7487  10.4365   C.ar      1 RES1   0.0000
   262 C106     1.7562  14.4041  10.2678   C.ar      1 RES1   0.0000
   263 H101     2.0225  14.0681   9.4296   H         1 RES1   0.0000
   264 C107     1.4994  13.5106  11.3203   C.ar      1 RES1   0.0000
   265 H102     1.5772  12.5821  11.1998   H         1 RES1   0.0000
   266 C108     1.1372  14.0328  12.5094   C.ar      1 RES1   0.0000
   267 H103     1.0357  13.4539  13.2432   H         1 RES1   0.0000
   268 C109     0.9139  15.3550  12.6915   C.ar      1 RES1   0.0000
   269 H104     0.5482  15.6781  13.4949   H         1 RES1   0.0000
   270 C110     1.2432  16.2235  11.6551   C.ar      1 RES1   0.0000
   271 H105     1.2012  17.1527  11.7970   H         1 RES1   0.0000
   272 O46     -0.7735  19.6337   9.9572   O.co2     1 RES1   0.0000
   273 O47     -1.9986  20.5817  11.5667   O.co2     1 RES1   0.0000
   274 C111    -0.8829  20.1841  11.0766   C.2       1 RES1   0.0000
   275 C112     0.3588  20.3628  11.8881   C.3       1 RES1   0.0000
   276 H106     0.8242  19.5026  11.9336   H         1 RES1   0.0000
   277 H107     0.9454  20.9923  11.4194   H         1 RES1   0.0000
   278 C113     0.1514  20.8591  13.2753   C.3       1 RES1   0.0000
   279 H108    -0.5769  20.3450  13.6797   H         1 RES1   0.0000
   280 H109     0.9636  20.6745  13.7922   H         1 RES1   0.0000
   281 C114    -0.1628  22.2973  13.3985   C.2       1 RES1   0.0000
   282 O48     -0.0748  23.0350  12.4264   O.2       1 RES1   0.0000
   283 C115    -0.5488  22.8436  14.7295   C.ar      1 RES1   0.0000
   284 C116    -0.5327  22.0966  15.8784   C.ar      1 RES1   0.0000
   285 H110    -0.2931  21.1888  15.8409   H         1 RES1   0.0000
   286 C117    -0.8753  22.6819  17.1184   C.ar      1 RES1   0.0000
   287 H111    -0.8546  22.1756  17.9111   H         1 RES1   0.0000
   288 C118    -1.2328  23.9870  17.1452   C.ar      1 RES1   0.0000
   289 H112    -1.4301  24.3892  17.9727   H         1 RES1   0.0000
   290 C119    -1.3126  24.7296  16.0230   C.ar      1 RES1   0.0000
   291 H113    -1.6303  25.6130  16.0579   H         1 RES1   0.0000
   292 C120    -0.9194  24.1669  14.8179   C.ar      1 RES1   0.0000
   293 H114    -0.9064  24.7015  14.0439   H         1 RES1   0.0000
   294 O49     -6.9573  19.1425   4.1591   O.co2     1 RES1   0.0000
   295 O50     -6.1574  21.2148   4.1350   O.co2     1 RES1   0.0000
   296 C121    -6.6714  20.2213   3.5994   C.2       1 RES1   0.0000
   297 C122    -7.0007  20.3706   2.1291   C.3       1 RES1   0.0000
   298 H115    -6.7329  19.5544   1.6577   H         1 RES1   0.0000
   299 H116    -7.9693  20.4699   2.0273   H         1 RES1   0.0000
   300 C123    -6.3193  21.5474   1.4890   C.3       1 RES1   0.0000
   301 H117    -6.6944  22.3705   1.8666   H         1 RES1   0.0000
   302 H118    -5.3678  21.5235   1.7193   H         1 RES1   0.0000
   303 C124    -6.4480  21.6024   0.0027   C.2       1 RES1   0.0000
   304 O51     -7.4236  21.1424  -0.5249   O.2       1 RES1   0.0000
   305 C125    -5.3730  22.2750  -0.7766   C.ar      1 RES1   0.0000
   306 C126    -4.3785  23.0079  -0.1982   C.ar      1 RES1   0.0000
   307 H119    -4.3679  23.1291   0.7338   H         1 RES1   0.0000
   308 C127    -3.3601  23.5836  -0.9909   C.ar      1 RES1   0.0000
   309 H120    -2.6697  24.0985  -0.6133   H         1 RES1   0.0000
   310 C128    -3.4349  23.3512  -2.3460   C.ar      1 RES1   0.0000
   311 H121    -2.7920  23.7610  -2.8950   H         1 RES1   0.0000
   312 C129    -4.3462  22.5977  -2.9272   C.ar      1 RES1   0.0000
   313 H122    -4.3091  22.4341  -3.8511   H         1 RES1   0.0000
   314 C130    -5.3607  22.0458  -2.1532   C.ar      1 RES1   0.0000
   315 H123    -6.0317  21.5224  -2.5522   H         1 RES1   0.0000
   316 O52     -7.0562  22.3162   6.4274   O.co2     1 RES1   0.0000
   317 O53     -7.0063  23.2638   8.4440   O.co2     1 RES1   0.0000
   318 C131    -7.5922  22.7528   7.4585   C.2       1 RES1   0.0000
   319 C132    -9.1045  22.6111   7.5522   C.3       1 RES1   0.0000
   320 H124    -9.5196  23.2037   6.8907   H         1 RES1   0.0000
   321 H125    -9.3506  21.6914   7.3219   H         1 RES1   0.0000
   322 C133    -9.6689  22.9411   8.9181   C.3       1 RES1   0.0000
   323 H126   -10.5446  22.5092   9.0091   H         1 RES1   0.0000
   324 H127    -9.0788  22.5623   9.6037   H         1 RES1   0.0000
   325 C134    -9.8247  24.3841   9.1752   C.2       1 RES1   0.0000
   326 O54     -9.7721  25.2022   8.2780   O.2       1 RES1   0.0000
   327 C135   -10.0881  24.8477  10.5785   C.ar      1 RES1   0.0000
   328 C136    -9.6567  24.1584  11.6711   C.ar      1 RES1   0.0000
   329 H128    -9.2235  23.3313  11.5533   H         1 RES1   0.0000
   330 C137    -9.8446  24.6584  12.9781   C.ar      1 RES1   0.0000
   331 H129    -9.4825  24.2329  13.7306   H         1 RES1   0.0000
   332 C138   -10.5852  25.8019  13.0771   C.ar      1 RES1   0.0000
   333 H130   -10.7450  26.1463  13.9368   H         1 RES1   0.0000
   334 C139   -11.0989  26.4657  12.0354   C.ar      1 RES1   0.0000
   335 H131   -11.6601  27.2093  12.1719   H         1 RES1   0.0000
   336 C140   -10.7886  26.0375  10.7258   C.ar      1 RES1   0.0000
   337 H132   -11.0508  26.5426   9.9786   H         1 RES1   0.0000
   338 O55     -4.9277  23.5237   5.0188   O.co2     1 RES1   0.0000
   339 O56     -3.2096  23.4729   3.6047   O.co2     1 RES1   0.0000
   340 C141    -4.2128  24.0318   4.1457   C.2       1 RES1   0.0000
   341 C142    -4.6025  25.3802   3.6101   C.3       1 RES1   0.0000
   342 H133    -4.6685  26.0094   4.3573   H         1 RES1   0.0000
   343 H134    -5.4927  25.3113   3.2030   H         1 RES1   0.0000
   344 C143    -3.6318  25.9457   2.5763   C.3       1 RES1   0.0000
   345 H135    -3.5335  25.3011   1.8452   H         1 RES1   0.0000
   346 H136    -4.0092  26.7687   2.2014   H         1 RES1   0.0000
   347 C144    -2.2980  26.2421   3.1361   C.2       1 RES1   0.0000
   348 O57     -2.0918  26.2418   4.3278   O.2       1 RES1   0.0000
   349 C145    -1.2024  26.6595   2.1987   C.ar      1 RES1   0.0000
   350 C146    -1.4375  26.9903   0.9132   C.ar      1 RES1   0.0000
   351 H137    -2.3178  26.9607   0.5838   H         1 RES1   0.0000
   352 C147    -0.3802  27.3822   0.0509   C.ar      1 RES1   0.0000
   353 H138    -0.5359  27.6668  -0.8302   H         1 RES1   0.0000
   354 C148     0.8738  27.3196   0.5731   C.ar      1 RES1   0.0000
   355 H139     1.5973  27.5497   0.0187   H         1 RES1   0.0000
   356 C149     1.1386  26.9509   1.8318   C.ar      1 RES1   0.0000
   357 H140     2.0263  26.9091   2.1371   H         1 RES1   0.0000
   358 C150     0.0883  26.6270   2.6835   C.ar      1 RES1   0.0000
   359 H141     0.2541  26.3874   3.5779   H         1 RES1   0.0000
   360 O58      0.5055  19.3405   2.9138   O.3       2 RES2   0.0000
   361 H142     1.1742  19.8189   2.6915   H         2 RES2   0.0000
   362 H143     0.1777  18.9694   2.2228   H         2 RES2   0.0000
   363 O59     -2.3052  24.4383  11.3364   O.3       3 RES3   0.0000
   364 H144    -2.0871  25.1018  10.8543   H         3 RES3   0.0000
   365 H145    -1.6059  24.0569  11.6363   H         3 RES3   0.0000
   366 O60     -7.6654  21.3225  11.5292   O.3       4 RES4   0.0000
   367 H146    -7.3952  21.6635  12.2576   H         4 RES4   0.0000
   368 H147    -7.9224  20.5235  11.6658   H         4 RES4   0.0000
   369 O61     -6.9946  15.7085   8.8484   O.3       5 RES5   0.0000
   370 H148    -6.8310  14.9318   8.5431   H         5 RES5   0.0000
   371 H149    -7.7883  15.9315   8.6476   H         5 RES5   0.0000
   372 O62     -3.0028   9.3171   2.0996   O.3       6 RES6   0.0000
   373 H150    -3.1558  10.1429   2.2309   H         6 RES6   0.0000
   374 H151    -2.5965   9.2194   1.3605   H         6 RES6   0.0000
   375 C151    -3.3689  14.4249   2.9405   C.3       7 RES7   0.0000
   376 H152    -2.5995  14.7346   2.4156   H         7 RES7   0.0000
   377 H153    -3.1544  14.5403   3.8886   H         7 RES7   0.0000
   378 Cl1     -4.7895  15.4070   2.5362   Cl        7 RES7   0.0000
   379 Cl2     -3.6431  12.7642   2.6192   Cl        7 RES7   0.0000
   380 C152    -0.7864   6.2475   5.6936   C.3       8 RES8   0.0000
   381 H154     0.0442   5.7361   5.7954   H         8 RES8   0.0000
   382 H155    -1.3585   6.0506   6.4649   H         8 RES8   0.0000
   383 Cl3     -0.4125   7.9751   5.6695   Cl        8 RES8   0.0000
   384 Cl4     -1.5820   5.7569   4.2582   Cl        8 RES8   0.0000
   385 C153    10.3428   1.3625   8.5967   C.3       9 RES9   0.0000
   386 H156     9.4470   1.7430   8.4869   H         9 RES9   0.0000
   387 H157    10.2520   0.3901   8.6770   H         9 RES9   0.0000
   388 Cl5     11.3180   1.7424   7.1693   Cl        9 RES9   0.0000
   389 Cl6     11.0565   1.9879  10.0241   Cl        9 RES9   0.0000
   390 C154    -1.8735  12.8741   7.1211   C.3      10 RES10   0.0000
   391 H158    -2.6677  12.3752   7.4049   H        10 RES10   0.0000
   392 H159    -2.1720  13.7279   6.7381   H        10 RES10   0.0000
   393 Cl7     -0.8358  13.1817   8.5163   Cl       10 RES10   0.0000
   394 Cl8     -1.0274  11.9795   5.9347   Cl       10 RES10   0.0000
   395 C155     1.9294  10.6945   4.3251   C.3      11 RES11   0.0000
   396 H160     1.7252  11.6391   4.4831   H        11 RES11   0.0000
   397 H161     1.5077  10.1694   5.0348   H        11 RES11   0.0000
   398 Cl9      1.2731  10.2030   2.7558   Cl       11 RES11   0.0000
   399 Cl10     3.6213  10.4641   4.3707   Cl       11 RES11   0.0000
   400 C156     7.8004  11.3233   2.8307   C.3      12 RES12   0.0000
   401 H162     8.2205  12.2020   2.7236   H        12 RES12   0.0000
   402 H163     8.2057  10.7116   2.1800   H        12 RES12   0.0000
   403 Cl11     8.0959  10.7230   4.4644   Cl       12 RES12   0.0000
   404 Cl12     6.1212  11.4518   2.5254   Cl       12 RES12   0.0000
   405 C157     0.6892   7.7741  -0.1098   C.3      13 RES13   0.0000
   406 H164     0.1343   8.5736   0.0027   H        13 RES13   0.0000
   407 H165     1.4659   7.8587   0.4821   H        13 RES13   0.0000
   408 Cl13    -0.2432   6.3459   0.3562   Cl       13 RES13   0.0000
   409 Cl14     1.2170   7.6760  -1.7300   Cl       13 RES13   0.0000
@<TRIPOS>BOND
     1     1    12    1
     2     2    15    1
     3     3    12    1
     4     4    15    1
     5     5    12    1
     6     6    13    1
     7     7    16    1
     8     8    13    1
     9     9    14    1
    10    10    17    1
    11    11    14    1
    12    13     1    1
    13    14     1    1
    14    15    11    1
    15    16     2    1
    16    17     2    1
    17    18     3    1
    18    19    18    1
    19    20     5    1
    20    21    20    1
    21    22     6    1
    22    23    22    1
    23    24     8    1
    24    25    24    1
    25    26     9    1
    26    27    26    1
    27    28     3    1
    28    29    28    1
    29    30     3    1
    30    31     4    1
    31    32    30   un
    32    33    32    1
    33    34    33    1
    34    35    33    1
    35    36    33    1
    36    37    36    1
    37    38    36    1
    38    39    36    1
    39    40    39    2
    40    41    39    1
    41    42    41   ar
    42    43    42    1
    43    44    42   ar
    44    45    44    1
    45    46    44   ar
    46    47    46    1
    47    48    46   ar
    48    49    48    1
    49    50    41   ar
    50    51    50    1
    51    52     6    1
    52    53     7    1
    53    54    52   un
    54    55    54    1
    55    56    55    1
    56    57    55    1
    57    58    55    1
    58    59    58    1
    59    60    58    1
    60    61    58    1
    61    62    61    2
    62    63    61    1
    63    64    63   ar
    64    65    64    1
    65    66    64   ar
    66    67    66    1
    67    68    66   ar
    68    69    68    1
    69    70    68   ar
    70    71    70    1
    71    72    63   ar
    72    73    72    1
    73    74     9    1
    74    75    10    1
    75    76    74   un
    76    77    76    1
    77    78    77    1
    78    79    77    1
    79    80    77    1
    80    81    80    1
    81    82    80    1
    82    83    80    1
    83    84    83    2
    84    85    83    1
    85    86    85   ar
    86    87    86    1
    87    88    86   ar
    88    89    88    1
    89    90    88   ar
    90    91    90    1
    91    92    90   ar
    92    93    92    1
    93    94    85   ar
    94    95    94    1
    95    96     3    1
    96    97     5    1
    97    98    96   un
    98    99    98    1
    99   100    99    1
   100   101    99    1
   101   102    99    1
   102   103   102    1
   103   104   102    1
   104   105   102    1
   105   106   105    2
   106   107   105    1
   107   108   107   ar
   108   109   108    1
   109   110   108   ar
   110   111   110    1
   111   112   110   ar
   112   113   112    1
   113   114   112   ar
   114   115   114    1
   115   116   107   ar
   116   117   116    1
   117   118     5    1
   118   119     7    1
   119   120   118   un
   120   121   120    1
   121   122   121    1
   122   123   121    1
   123   124   121    1
   124   125   124    1
   125   126   124    1
   126   127   124    1
   127   128   127    2
   128   129   127    1
   129   130   129   ar
   130   131   130    1
   131   132   130   ar
   132   133   132    1
   133   134   132   ar
   134   135   134    1
   135   136   134   ar
   136   137   136    1
   137   138   129   ar
   138   139   138    1
   139   140     6    1
   140   141     8    1
   141   142   140   un
   142   143   142    1
   143   144   143    1
   144   145   143    1
   145   146   143    1
   146   147   146    1
   147   148   146    1
   148   149   146    1
   149   150   149    2
   150   151   149    1
   151   152   151   ar
   152   153   152    1
   153   154   152   ar
   154   155   154    1
   155   156   154   ar
   156   157   156    1
   157   158   156   ar
   158   159   158    1
   159   160   151   ar
   160   161   160    1
   161   162    10    1
   162   163     8    1
   163   164   162   un
   164   165   164    1
   165   166   165    1
   166   167   165    1
   167   168   165    1
   168   169   168    1
   169   170   168    1
   170   171   168    1
   171   172   171    2
   172   173   171    1
   173   174   173   ar
   174   175   174    1
   175   176   174   ar
   176   177   176    1
   177   178   176   ar
   178   179   178    1
   179   180   178   ar
   180   181   180    1
   181   182   173   ar
   182   183   182    1
   183   184    11    1
   184   185     9    1
   185   186   184   un
   186   187   186    1
   187   188   187    1
   188   189   187    1
   189   190   187    1
   190   191   190    1
   191   192   190    1
   192   193   190    1
   193   194   193    2
   194   195   193    1
   195   196   195   ar
   196   197   196    1
   197   198   196   ar
   198   199   198    1
   199   200   198   ar
   200   201   200    1
   201   202   200   ar
   202   203   202    1
   203   204   195   ar
   204   205   204    1
   205   206    11    1
   206   207     4    1
   207   208   206   un
   208   209   208    1
   209   210   209    1
   210   211   209    1
   211   212   209    1
   212   213   212    1
   213   214   212    1
   214   215   212    1
   215   216   215    2
   216   217   215    1
   217   218   217   ar
   218   219   218    1
   219   220   218   ar
   220   221   220    1
   221   222   220   ar
   222   223   222    1
   223   224   222   ar
   224   225   224    1
   225   226   217   ar
   226   227   226    1
   227   228     1    1
   228   229     3    1
   229   230   228   un
   230   231   230    1
   231   232   231    1
   232   233   231    1
   233   234   231    1
   234   235   234    1
   235   236   234    1
   236   237   234    1
   237   238   237    2
   238   239   237    1
   239   240   239   ar
   240   241   240    1
   241   242   240   ar
   242   243   242    1
   243   244   242   ar
   244   245   244    1
   245   246   244   ar
   246   247   246    1
   247   248   239   ar
   248   249   248    1
   249   250     1    1
   250   251     6    1
   251   252   250   un
   252   253   252    1
   253   254   253    1
   254   255   253    1
   255   256   253    1
   256   257   256    1
   257   258   256    1
   258   259   256    1
   259   260   259    2
   260   261   259    1
   261   262   261   ar
   262   263   262    1
   263   264   262   ar
   264   265   264    1
   265   266   264   ar
   266   267   266    1
   267   268   266   ar
   268   269   268    1
   269   270   261   ar
   270   271   270    1
   271   272     1    1
   272   273     9    1
   273   274   272   un
   274   275   274    1
   275   276   275    1
   276   277   275    1
   277   278   275    1
   278   279   278    1
   279   280   278    1
   280   281   278    1
   281   282   281    2
   282   283   281    1
   283   284   283   ar
   284   285   284    1
   285   286   284   ar
   286   287   286    1
   287   288   286   ar
   288   289   288    1
   289   290   288   ar
   290   291   290    1
   291   292   283   ar
   292   293   292    1
   293   294     4    1
   294   295     2    1
   295   296   294   un
   296   297   296    1
   297   298   297    1
   298   299   297    1
   299   300   297    1
   300   301   300    1
   301   302   300    1
   302   303   300    1
   303   304   303    2
   304   305   303    1
   305   306   305   ar
   306   307   306    1
   307   308   306   ar
   308   309   308    1
   309   310   308   ar
   310   311   310    1
   311   312   310   ar
   312   313   312    1
   313   314   305   ar
   314   315   314    1
   315   316     2    1
   316   317    10    1
   317   318   316   un
   318   319   318    1
   319   320   319    1
   320   321   319    1
   321   322   319    1
   322   323   322    1
   323   324   322    1
   324   325   322    1
   325   326   325    2
   326   327   325    1
   327   328   327   ar
   328   329   328    1
   329   330   328   ar
   330   331   330    1
   331   332   330   ar
   332   333   332    1
   333   334   332   ar
   334   335   334    1
   335   336   327   ar
   336   337   336    1
   337   338     2    1
   338   339     7    1
   339   340   338   un
   340   341   340    1
   341   342   341    1
   342   343   341    1
   343   344   341    1
   344   345   344    1
   345   346   344    1
   346   347   344    1
   347   348   347    2
   348   349   347    1
   349   350   349   ar
   350   351   350    1
   351   352   350   ar
   352   353   352    1
   353   354   352   ar
   354   355   354    1
   355   356   354   ar
   356   357   356    1
   357   358   349   ar
   358   359   358    1
   359     4    18    1
   360     4    28    1
   361     5    16    1
   362     5    18    1
   363     6    20    1
   364     7    20    1
   365     7    22    1
   366     8    17    1
   367     8    22    1
   368     9    24    1
   369    10    24    1
   370    10    26    1
   371    11    26    1
   372    11    28    1
   373    31    32   un
   374    48    50   ar
   375    53    54   un
   376    70    72   ar
   377    75    76   un
   378    92    94   ar
   379    97    98   un
   380   114   116   ar
   381   119   120   un
   382   136   138   ar
   383   141   142   un
   384   158   160   ar
   385   163   164   un
   386   180   182   ar
   387   185   186   un
   388   202   204   ar
   389   207   208   un
   390   224   226   ar
   391   229   230   un
   392   246   248   ar
   393   251   252   un
   394   268   270   ar
   395   273   274   un
   396   290   292   ar
   397   295   296   un
   398   312   314   ar
   399   317   318   un
   400   334   336   ar
   401   339   340   un
   402   356   358   ar
   403   360   361    1
   404   362   360    1
   405   363   364    1
   406   365   363    1
   407   366   367    1
   408   368   366    1
   409   369   370    1
   410   371   369    1
   411   372   373    1
   412   374   372    1
   413   375   376    1
   414   377   375    1
   415   378   375    1
   416   379   375    1
   417   380   381    1
   418   382   380    1
   419   383   380    1
   420   384   380    1
   421   385   386    1
   422   387   385    1
   423   388   385    1
   424   389   385    1
   425   390   391    1
   426   392   390    1
   427   393   390    1
   428   394   390    1
   429   395   396    1
   430   397   395    1
   431   398   395    1
   432   399   395    1
   433   400   401    1
   434   402   400    1
   435   403   400    1
   436   404   400    1
   437   405   406    1
   438   407   405    1
   439   408   405    1
   440   409   405    1
@<TRIPOS>SUBSTRUCTURE
     1 RES1        1 GROUP             0 ****  ****    0  
     2 RES2      360 GROUP             0 ****  ****    0  
     3 RES3      363 GROUP             0 ****  ****    0  
     4 RES4      366 GROUP             0 ****  ****    0  
     5 RES5      369 GROUP             0 ****  ****    0  
     6 RES6      372 GROUP             0 ****  ****    0  
     7 RES7      375 GROUP             0 ****  ****    0  
     8 RES8      380 GROUP             0 ****  ****    0  
     9 RES9      385 GROUP             0 ****  ****    0  
    10 RES10     390 GROUP             0 ****  ****    0  
    11 RES11     395 GROUP             0 ****  ****    0  
    12 RES12     400 GROUP             0 ****  ****    0  
    13 RES13     405 GROUP             0 ****  ****    0  
@<TRIPOS>CRYSIN
   17.4940   20.4210   28.0280   98.7300  100.8400  109.4200     2     1
