@<TRIPOS>MOLECULE
OCEWAX
    90    89     6     0     0
SMALL
USER_CHARGES
****
Generated from the CSD

@<TRIPOS>ATOM
     1 Fe1      3.8271   0.5112  12.6750   Fe        1 RES1   0.0000
     2 C1       2.5256   1.8699  12.1397   C.1       1 RES1   0.0000
     3 C2       2.4065  -0.5118  13.4282   C.1       1 RES1  -1.0000
     4 C3       3.9420   1.4254  14.3429   C.1       1 RES1   0.0000
     5 C4       5.0810  -0.8136  13.3794   C.1       1 RES1   0.0000
     6 C5       3.0405  -1.4662  10.5226   C.ar      1 RES1   0.0000
     7 H1       2.4862  -1.8883  11.1694   H         1 RES1   0.0000
     8 C6       3.0840  -1.9841   9.2323   C.ar      1 RES1   0.0000
     9 H2       2.5913  -2.7672   9.0134   H         1 RES1   0.0000
    10 C7       3.8525  -1.3499   8.2638   C.ar      1 RES1   0.0000
    11 H3       3.8828  -1.6864   7.3761   H         1 RES1   0.0000
    12 C8       4.5823  -0.2080   8.6142   C.ar      1 RES1   0.0000
    13 C9       5.3977   0.5587   7.6860   C.ar      1 RES1   0.0000
    14 C10      6.0864   0.9482   5.5519   C.ar      1 RES1   0.0000
    15 H4       6.0710   0.7525   4.6221   H         1 RES1   0.0000
    16 C11      6.8949   1.9841   6.0083   C.ar      1 RES1   0.0000
    17 H5       7.4248   2.4572   5.3784   H         1 RES1   0.0000
    18 C12      6.1898   1.6273   8.1375   C.ar      1 RES1   0.0000
    19 C13      6.2060   1.9862   9.5507   C.ar      1 RES1   0.0000
    20 C14      7.0542   2.9568  10.1082   C.ar      1 RES1   0.0000
    21 H6       7.6616   3.4422   9.5608   H         1 RES1   0.0000
    22 C15      6.9868   3.1913  11.4558   C.ar      1 RES1   0.0000
    23 H7       7.5690   3.8255  11.8567   H         1 RES1   0.0000
    24 C16      6.0595   2.4939  12.2475   C.ar      1 RES1   0.0000
    25 H8       6.0038   2.6999  13.1739   H         1 RES1   0.0000
    26 C17      5.3483   1.2990  10.4165   C.ar      1 RES1   0.0000
    27 C18      4.5318   0.2100   9.9516   C.ar      1 RES1   0.0000
    28 N1       1.7804   2.6978  11.9375   N.1       1 RES1   0.0000
    29 N2       1.5562  -1.1623  13.8561   N.1       1 RES1   0.0000
    30 N3       3.9959   1.9821  15.3451   N.1       1 RES1   0.0000
    31 N4       5.7758  -1.5845  13.8494   N.1       1 RES1   0.0000
    32 N5       3.7568  -0.3936  10.8831   N.ar      1 RES1   0.0000
    33 N6       5.3400   0.2264   6.3688   N.ar      1 RES1   0.0000
    34 N7       6.9610   2.3410   7.2885   N.ar      1 RES1   0.0000
    35 N8       5.2588   1.5620  11.7522   N.ar      1 RES1   0.0000
    36 Nd1      5.6582   5.0980   1.3334   Nd        2 RES2   3.0000
    37 C19      7.6976   5.0980   4.1588   C.2       2 RES2   0.0000
    38 H9       6.9397   5.0980   4.7332   H         2 RES2   0.0000
    39 C20     10.0730   5.0980   3.9230   C.3       2 RES2   0.0000
    40 C21      9.0613   5.0980   6.1667   C.3       2 RES2   0.0000
    41 C22      3.9226   2.6387  -0.3706   C.2       2 RES2   0.0000
    42 H10      4.6966   2.3716  -0.8523   H         2 RES2   0.0000
    43 C23      2.6902   0.7158  -1.1050   C.3       2 RES2   0.0000
    44 H11      2.9583   0.7667  -2.0449   H         2 RES2   0.0000
    45 H12      1.7399   0.4874  -1.0477   H         2 RES2   0.0000
    46 H13      3.2203   0.0285  -0.6502   H         2 RES2   0.0000
    47 C24      1.7045   2.1758   0.2847   C.3       2 RES2   0.0000
    48 H14      1.8944   2.8773   0.9416   H         2 RES2   0.0000
    49 H15      1.4373   1.3540   0.7496   H         2 RES2   0.0000
    50 H16      0.9790   2.4674  -0.3049   H         2 RES2   0.0000
    51 N9       8.8903   5.0980   4.7113   N.am      2 RES2   0.0000
    52 N10      2.9022   1.9168  -0.5087   N.am      2 RES2   0.0000
    53 O1       7.5026   5.0980   2.9410   O.2       2 RES2   0.0000
    54 O2       4.0310   3.6440   0.3133   O.2       2 RES2   0.0000
    55 O3       4.8289   3.6807   3.1313   O.3       2 RES2   0.0000
    56 H17      4.0917   3.2913   2.9713   H         2 RES2   0.0000
    57 H18      4.8387   3.7786   3.9769   H         2 RES2   0.0000
    58 O4       6.9581   3.0833   1.0039   O.3       2 RES2   0.0000
    59 H19      7.2908   2.6509   0.3554   H         2 RES2   0.0000
    60 H20      7.2901   2.7244   1.7013   H         2 RES2   0.0000
    61 O5       6.3131   5.0980  -1.0696   O.3       2 RES2   0.0000
    62 C22C     3.9226   7.5572  -0.3706   C.2       2 RES2   0.0000
    63 H10C     4.6966   7.8244  -0.8523   H         2 RES2   0.0000
    64 C23C     2.6902   9.4802  -1.1050   C.3       2 RES2   0.0000
    65 H11C     2.9583   9.4292  -2.0449   H         2 RES2   0.0000
    66 H12C     1.7399   9.7086  -1.0477   H         2 RES2   0.0000
    67 H13C     3.2203  10.1674  -0.6502   H         2 RES2   0.0000
    68 C24C     1.7045   8.0201   0.2847   C.3       2 RES2   0.0000
    69 H14C     1.8944   7.3187   0.9416   H         2 RES2   0.0000
    70 H15C     1.4373   8.8419   0.7496   H         2 RES2   0.0000
    71 H16C     0.9790   7.7285  -0.3049   H         2 RES2   0.0000
    72 N10C     2.9022   8.2791  -0.5087   N.am      2 RES2   0.0000
    73 O2C      4.0310   6.5519   0.3133   O.2       2 RES2   0.0000
    74 O3C      4.8289   6.5152   3.1313   O.3       2 RES2   0.0000
    75 H17C     4.0917   6.9047   2.9713   H         2 RES2   0.0000
    76 H18C     4.8387   6.4173   3.9769   H         2 RES2   0.0000
    77 O4C      6.9581   7.1127   1.0039   O.3       2 RES2   0.0000
    78 H19C     7.2908   7.5450   0.3554   H         2 RES2   0.0000
    79 H20C     7.2901   7.4716   1.7013   H         2 RES2   0.0000
    80 C25      3.5089   5.0980  10.5226   C.3       3 RES3   0.0000
    81 C26      2.0606   5.0980   9.9297   C.1       3 RES3   0.0000
    82 N11      0.9512   5.0980   9.6534   N.1       3 RES3   0.0000
    83 N12      4.2418   5.0980   6.3890   N.pl3     4 RES4   0.0000
    84 O6       3.9491   5.0980   7.5816   O.3       4 RES4  -1.0000
    85 O7       4.3675   4.0111   5.7826   O.2       4 RES4   0.0000
    86 O7C      4.3675   6.1849   5.7826   O.2       4 RES4   0.0000
    87 O8       4.1406  15.2939   3.3048   O.3       5 RES5   0.0000
    88 O9      -2.0786   5.0980  14.6612   O.3       6 RES6   0.0000
    89 H21     -1.2454   5.0980  14.8516   H         6 RES6   0.0000
    90 H22     -2.4495   5.0980  15.4411   H         6 RES6   0.0000
@<TRIPOS>BOND
     1     1     2    1
     2     2    28    3
     3     3     1    1
     4     4     1    1
     5     5     1    1
     6     6     7    1
     7     8     6   ar
     8     9     8    1
     9    10     8   ar
    10    11    10    1
    11    12    10   ar
    12    13    12   ar
    13    14    15    1
    14    16    14   ar
    15    17    16    1
    16    18    13   ar
    17    19    18   ar
    18    20    19   ar
    19    21    20    1
    20    22    20   ar
    21    23    22    1
    22    24    22   ar
    23    25    24    1
    24    26    19   ar
    25    27    12   ar
    26    29     3    3
    27    30     4    3
    28    31     5    3
    29    32     1    1
    30    33    13   ar
    31    34    16   ar
    32    35     1    1
    33     6    32   ar
    34    14    33   ar
    35    18    34   ar
    36    24    35   ar
    37    26    27   ar
    38    26    35   ar
    39    27    32   ar
    40    36    53    1
    41    37    38    1
    42    39    51    1
    43    40    51    1
    44    41    42    1
    45    43    44    1
    46    45    43    1
    47    46    43    1
    48    47    48    1
    49    49    47    1
    50    50    47    1
    51    51    37   am
    52    52    41   am
    53    53    37    2
    54    54    36    1
    55    55    36    1
    56    56    55    1
    57    57    55    1
    58    58    36    1
    59    59    58    1
    60    60    58    1
    61    61    36    1
    62    62    63    1
    63    64    65    1
    64    66    64    1
    65    67    64    1
    66    68    69    1
    67    70    68    1
    68    71    68    1
    69    72    62   am
    70    73    36    1
    71    74    36    1
    72    75    74    1
    73    76    74    1
    74    77    36    1
    75    78    77    1
    76    79    77    1
    77    41    54    2
    78    43    52    1
    79    47    52    1
    80    62    73    2
    81    64    72    1
    82    68    72    1
    83    80    81    1
    84    81    82    3
    85    83    84    1
    86    85    83    2
    87    86    83    2
    88    88    89    1
    89    90    88    1
@<TRIPOS>SUBSTRUCTURE
     1 RES1        1 GROUP             0 ****  ****    0  
     2 RES2       36 GROUP             0 ****  ****    0  
     3 RES3       80 GROUP             0 ****  ****    0  
     4 RES4       83 GROUP             0 ****  ****    0  
     5 RES5       87 GROUP             0 ****  ****    0  
     6 RES6       88 GROUP             0 ****  ****    0  
@<TRIPOS>CRYSIN
    8.7389   20.3919   17.1924   90.0000  101.5500   90.0000    11     1
