@<TRIPOS>MOLECULE
OCEWEB
    90    89     6     0     0
SMALL
USER_CHARGES
****
Generated from the CSD

@<TRIPOS>ATOM
     1 Fe1      3.7884   0.4960  12.6277   Fe        1 RES1   0.0000
     2 C1       2.4903   1.8622  12.1117   C.1       1 RES1   0.0000
     3 C2       2.3854  -0.5332  13.3741   C.1       1 RES1  -1.0000
     4 C3       3.8940   1.4002  14.2979   C.1       1 RES1   0.0000
     5 C4       5.0453  -0.8222  13.3205   C.1       1 RES1   0.0000
     6 C5       3.0051  -1.4654  10.4653   C.ar      1 RES1   0.0000
     7 H1       2.4388  -1.8846  11.1024   H         1 RES1   0.0000
     8 C6       3.0579  -1.9844   9.1676   C.ar      1 RES1   0.0000
     9 H2       2.5685  -2.7679   8.9463   H         1 RES1   0.0000
    10 C7       3.8247  -1.3534   8.2170   C.ar      1 RES1   0.0000
    11 H3       3.8611  -1.6852   7.3267   H         1 RES1   0.0000
    12 C8       4.5510  -0.2117   8.5841   C.ar      1 RES1   0.0000
    13 C9       5.3744   0.5638   7.6469   C.ar      1 RES1   0.0000
    14 C10      6.0648   0.9525   5.5244   C.ar      1 RES1   0.0000
    15 H4       6.0467   0.7632   4.5938   H         1 RES1   0.0000
    16 C11      6.8802   1.9823   5.9888   C.ar      1 RES1   0.0000
    17 H5       7.4190   2.4504   5.3617   H         1 RES1   0.0000
    18 C12      6.1642   1.6262   8.1080   C.ar      1 RES1   0.0000
    19 C13      6.1733   1.9783   9.5197   C.ar      1 RES1   0.0000
    20 C14      7.0163   2.9409  10.0780   C.ar      1 RES1   0.0000
    21 H6       7.6266   3.4212   9.5314   H         1 RES1   0.0000
    22 C15      6.9497   3.1790  11.4293   C.ar      1 RES1   0.0000
    23 H7       7.5298   3.8161  11.8317   H         1 RES1   0.0000
    24 C16      6.0193   2.4789  12.2089   C.ar      1 RES1   0.0000
    25 H8       5.9618   2.6763  13.1377   H         1 RES1   0.0000
    26 C17      5.3058   1.2903  10.3747   C.ar      1 RES1   0.0000
    27 C18      4.4945   0.2076   9.9120   C.ar      1 RES1   0.0000
    28 N1       1.7456   2.6886  11.9088   N.1       1 RES1   0.0000
    29 N2       1.5247  -1.1845  13.8100   N.1       1 RES1   0.0000
    30 N3       3.9459   1.9477  15.2972   N.1       1 RES1   0.0000
    31 N4       5.7394  -1.5916  13.7799   N.1       1 RES1   0.0000
    32 N5       3.7206  -0.4030  10.8425   N.ar      1 RES1   0.0000
    33 N6       5.3121   0.2259   6.3442   N.ar      1 RES1   0.0000
    34 N7       6.9407   2.3405   7.2663   N.ar      1 RES1   0.0000
    35 N8       5.2226   1.5610  11.7093   N.ar      1 RES1   0.0000
    36 Sm1      5.6686   5.0881   1.3414   Sm        2 RES2   3.0000
    37 C19      7.6821   5.0881   4.1412   C.2       2 RES2   0.0000
    38 H9       6.9238   5.0881   4.7146   H         2 RES2   0.0000
    39 C20     10.0630   5.0881   3.8830   C.3       2 RES2   0.0000
    40 C21      9.0412   5.0881   6.1464   C.3       2 RES2   0.0000
    41 C22      3.9438   2.6621  -0.3236   C.2       2 RES2   0.0000
    42 H10      4.7169   2.3853  -0.7997   H         2 RES2   0.0000
    43 C23      2.7836   0.7368  -1.1837   C.3       2 RES2   0.0000
    44 H11      3.2061   0.8467  -2.0622   H         2 RES2   0.0000
    45 H12      1.8372   0.5129  -1.3027   H         2 RES2   0.0000
    46 H13      3.2321   0.0142  -0.6941   H         2 RES2   0.0000
    47 C24      1.7028   2.2184   0.2951   C.3       2 RES2   0.0000
    48 H14      1.8662   2.9918   0.8752   H         2 RES2   0.0000
    49 H15      1.4673   1.4430   0.8450   H         2 RES2   0.0000
    50 H16      0.9665   2.4199  -0.3186   H         2 RES2   0.0000
    51 N9       8.8780   5.0881   4.6861   N.am      2 RES2   0.0000
    52 N10      2.8929   1.9253  -0.4611   N.am      2 RES2   0.0000
    53 O1       7.4974   5.0881   2.9273   O.2       2 RES2   0.0000
    54 O2       4.0577   3.6655   0.3437   O.2       2 RES2   0.0000
    55 O3       4.8572   3.6838   3.1134   O.3       2 RES2   0.0000
    56 H17      4.1212   3.2951   2.9525   H         2 RES2   0.0000
    57 H18      4.8650   3.7835   3.9551   H         2 RES2   0.0000
    58 O4       6.9549   3.1058   1.0060   O.3       2 RES2   0.0000
    59 H19      7.2893   2.6743   0.3588   H         2 RES2   0.0000
    60 H20      7.2854   2.7476   1.6984   H         2 RES2   0.0000
    61 O5       6.2949   5.0881  -1.0562   O.3       2 RES2   0.0000
    62 C22C     3.9438   7.5141  -0.3236   C.2       2 RES2   0.0000
    63 H10C     4.7169   7.7909  -0.7997   H         2 RES2   0.0000
    64 C23C     2.7836   9.4394  -1.1837   C.3       2 RES2   0.0000
    65 H11C     3.2061   9.3295  -2.0622   H         2 RES2   0.0000
    66 H12C     1.8372   9.6633  -1.3027   H         2 RES2   0.0000
    67 H13C     3.2321  10.1620  -0.6941   H         2 RES2   0.0000
    68 C24C     1.7028   7.9578   0.2951   C.3       2 RES2   0.0000
    69 H14C     1.8662   7.1844   0.8752   H         2 RES2   0.0000
    70 H15C     1.4673   8.7332   0.8450   H         2 RES2   0.0000
    71 H16C     0.9665   7.7563  -0.3186   H         2 RES2   0.0000
    72 N10C     2.8929   8.2509  -0.4611   N.am      2 RES2   0.0000
    73 O2C      4.0577   6.5107   0.3437   O.2       2 RES2   0.0000
    74 O3C      4.8572   6.4924   3.1134   O.3       2 RES2   0.0000
    75 H17C     4.1212   6.8811   2.9525   H         2 RES2   0.0000
    76 H18C     4.8650   6.3927   3.9551   H         2 RES2   0.0000
    77 O4C      6.9549   7.0704   1.0060   O.3       2 RES2   0.0000
    78 H19C     7.2893   7.5019   0.3588   H         2 RES2   0.0000
    79 H20C     7.2854   7.4286   1.6984   H         2 RES2   0.0000
    80 C25      3.4805   5.0881  10.4971   C.3       3 RES3   0.0000
    81 C26      2.0549   5.0881   9.9019   C.1       3 RES3   0.0000
    82 N11      0.9406   5.0881   9.5901   N.1       3 RES3   0.0000
    83 N12      4.2340   5.0881   6.3677   N.pl3     4 RES4   0.0000
    84 O6       3.9383   5.0881   7.5564   O.3       4 RES4  -1.0000
    85 O7       4.3727   3.9992   5.7540   O.2       4 RES4   0.0000
    86 O7C      4.3727   6.1770   5.7540   O.2       4 RES4   0.0000
    87 O8       4.1662  15.2643   3.2911   O.3       5 RES5   0.0000
    88 O9      -1.9339   5.0881  14.6148   O.3       6 RES6   0.0000
    89 H21     -1.0961   5.0881  14.8026   H         6 RES6   0.0000
    90 H22     -2.3008   5.0881  15.3894   H         6 RES6   0.0000
@<TRIPOS>BOND
     1     1     2    1
     2     2    28    3
     3     3     1    1
     4     4     1    1
     5     5     1    1
     6     6     7    1
     7     8     6   ar
     8     9     8    1
     9    10     8   ar
    10    11    10    1
    11    12    10   ar
    12    13    12   ar
    13    14    15    1
    14    16    14   ar
    15    17    16    1
    16    18    13   ar
    17    19    18   ar
    18    20    19   ar
    19    21    20    1
    20    22    20   ar
    21    23    22    1
    22    24    22   ar
    23    25    24    1
    24    26    19   ar
    25    27    12   ar
    26    29     3    3
    27    30     4    3
    28    31     5    3
    29    32     1    1
    30    33    13   ar
    31    34    16   ar
    32    35     1    1
    33     6    32   ar
    34    14    33   ar
    35    18    34   ar
    36    24    35   ar
    37    26    27   ar
    38    26    35   ar
    39    27    32   ar
    40    36    53    1
    41    37    38    1
    42    39    51    1
    43    40    51    1
    44    41    42    1
    45    43    44    1
    46    45    43    1
    47    46    43    1
    48    47    48    1
    49    49    47    1
    50    50    47    1
    51    51    37   am
    52    52    41   am
    53    53    37    2
    54    54    36    1
    55    55    36    1
    56    56    55    1
    57    57    55    1
    58    58    36    1
    59    59    58    1
    60    60    58    1
    61    61    36    1
    62    62    63    1
    63    64    65    1
    64    66    64    1
    65    67    64    1
    66    68    69    1
    67    70    68    1
    68    71    68    1
    69    72    62   am
    70    73    36    1
    71    74    36    1
    72    75    74    1
    73    76    74    1
    74    77    36    1
    75    78    77    1
    76    79    77    1
    77    41    54    2
    78    43    52    1
    79    47    52    1
    80    62    73    2
    81    64    72    1
    82    68    72    1
    83    80    81    1
    84    81    82    3
    85    83    84    1
    86    85    83    2
    87    86    83    2
    88    88    89    1
    89    90    88    1
@<TRIPOS>SUBSTRUCTURE
     1 RES1        1 GROUP             0 ****  ****    0  
     2 RES2       36 GROUP             0 ****  ****    0  
     3 RES3       80 GROUP             0 ****  ****    0  
     4 RES4       83 GROUP             0 ****  ****    0  
     5 RES5       87 GROUP             0 ****  ****    0  
     6 RES6       88 GROUP             0 ****  ****    0  
@<TRIPOS>CRYSIN
    8.7331   20.3524   17.1234   90.0000  101.7290   90.0000    11     1
