@<TRIPOS>MOLECULE
OCOVIL
   114   122     2     0     0
SMALL
NO_CHARGES
****
Generated from the CSD

@<TRIPOS>ATOM
     1 Fe1      9.6127   5.5179   4.5961   Fe        1 RES1   0.0000
     2 S1      11.6691   5.1754   0.3236   S.2       1 RES1   0.0000
     3 P1      10.4898   3.8177   5.7857   P.3       1 RES1   0.0000
     4 P2      11.1809   6.7433   5.5993   P.3       1 RES1   0.0000
     5 P3       8.5900   7.2564   3.5612   P.3       1 RES1   0.0000
     6 P4       7.8436   4.3424   3.8085   P.3       1 RES1   0.0000
     7 N1      10.5876   5.2626   2.9061   N.2       1 RES1   0.0000
     8 C1      11.5094   2.4523   5.0823   C.ar      1 RES1   0.0000
     9 C2      11.5818   2.2190   3.7332   C.ar      1 RES1   0.0000
    10 H1      11.0994   2.7563   3.1469   H         1 RES1   0.0000
    11 C3      12.3737   1.1816   3.2309   C.ar      1 RES1   0.0000
    12 H2      12.4060   1.0188   2.3173   H         1 RES1   0.0000
    13 C4      13.1037   0.4038   4.0990   C.ar      1 RES1   0.0000
    14 H3      13.6455  -0.2745   3.7665   H         1 RES1   0.0000
    15 C5      13.0401   0.6152   5.4432   C.ar      1 RES1   0.0000
    16 H4      13.5317   0.0768   6.0190   H         1 RES1   0.0000
    17 C6      12.2492   1.6291   5.9543   C.ar      1 RES1   0.0000
    18 H5      12.2056   1.7678   6.8732   H         1 RES1   0.0000
    19 C7       9.3977   2.8589   6.9218   C.ar      1 RES1   0.0000
    20 C8       8.8863   3.4713   8.0484   C.ar      1 RES1   0.0000
    21 H6       9.0832   4.3659   8.2086   H         1 RES1   0.0000
    22 C9       8.0878   2.7863   8.9437   C.ar      1 RES1   0.0000
    23 H7       7.7645   3.2145   9.7033   H         1 RES1   0.0000
    24 C10      7.7689   1.4640   8.7091   C.ar      1 RES1   0.0000
    25 H8       7.2195   1.0025   9.3007   H         1 RES1   0.0000
    26 C11      8.2691   0.8371   7.5995   C.ar      1 RES1   0.0000
    27 H9       8.0643  -0.0558   7.4455   H         1 RES1   0.0000
    28 C12      9.0755   1.5200   6.7062   C.ar      1 RES1   0.0000
    29 H10      9.4045   1.0816   5.9560   H         1 RES1   0.0000
    30 C13     12.8208   6.8605   4.7932   C.ar      1 RES1   0.0000
    31 C14     14.0068   6.4174   5.3718   C.ar      1 RES1   0.0000
    32 H11     13.9949   6.0778   6.2378   H         1 RES1   0.0000
    33 C15     15.2064   6.4747   4.6801   C.ar      1 RES1   0.0000
    34 H12     15.9845   6.1499   5.0739   H         1 RES1   0.0000
    35 C16     15.2454   7.0073   3.4217   C.ar      1 RES1   0.0000
    36 H13     16.0534   7.0594   2.9666   H         1 RES1   0.0000
    37 C17     14.0927   7.4662   2.8289   C.ar      1 RES1   0.0000
    38 H14     14.1219   7.8340   1.9743   H         1 RES1   0.0000
    39 C18     12.8874   7.3795   3.5075   C.ar      1 RES1   0.0000
    40 H15     12.1090   7.6735   3.0944   H         1 RES1   0.0000
    41 C19     10.8627   8.4625   6.1505   C.ar      1 RES1   0.0000
    42 C20     11.6803   9.5413   5.8368   C.ar      1 RES1   0.0000
    43 H16     12.4501   9.4087   5.3312   H         1 RES1   0.0000
    44 C21     11.3537  10.8178   6.2728   C.ar      1 RES1   0.0000
    45 H17     11.8996  11.5346   6.0435   H         1 RES1   0.0000
    46 C22     10.2394  11.0369   7.0359   C.ar      1 RES1   0.0000
    47 H18     10.0253  11.8975   7.3160   H         1 RES1   0.0000
    48 C23      9.4387   9.9746   7.3861   C.ar      1 RES1   0.0000
    49 H19      8.6934  10.1134   7.9233   H         1 RES1   0.0000
    50 C24      9.7406   8.6983   6.9397   C.ar      1 RES1   0.0000
    51 H20      9.1857   7.9898   7.1707   H         1 RES1   0.0000
    52 C25      7.1454   8.1136   4.3225   C.ar      1 RES1   0.0000
    53 C26      6.4183   9.0565   3.5897   C.ar      1 RES1   0.0000
    54 H21      6.6903   9.2807   2.7304   H         1 RES1   0.0000
    55 C27      5.2940   9.6601   4.1323   C.ar      1 RES1   0.0000
    56 H22      4.8126  10.2809   3.6352   H         1 RES1   0.0000
    57 C28      4.8915   9.3401   5.4047   C.ar      1 RES1   0.0000
    58 H23      4.1446   9.7552   5.7740   H         1 RES1   0.0000
    59 C29      5.5874   8.4052   6.1363   C.ar      1 RES1   0.0000
    60 H24      5.3081   8.1852   6.9957   H         1 RES1   0.0000
    61 C30      6.7041   7.7919   5.5951   C.ar      1 RES1   0.0000
    62 H25      7.1635   7.1548   6.0926   H         1 RES1   0.0000
    63 C31      9.4778   8.6802   2.7937   C.ar      1 RES1   0.0000
    64 C32     10.1045   8.5448   1.5582   C.ar      1 RES1   0.0000
    65 H26     10.0764   7.7293   1.1114   H         1 RES1   0.0000
    66 C33     10.7729   9.6278   0.9906   C.ar      1 RES1   0.0000
    67 H27     11.1940   9.5273   0.1680   H         1 RES1   0.0000
    68 C34     10.8163  10.8429   1.6365   C.ar      1 RES1   0.0000
    69 H28     11.2572  11.5649   1.2479   H         1 RES1   0.0000
    70 C35     10.2023  10.9803   2.8581   C.ar      1 RES1   0.0000
    71 H29     10.2328  11.7975   3.3009   H         1 RES1   0.0000
    72 C36      9.5414   9.9143   3.4331   C.ar      1 RES1   0.0000
    73 H30      9.1306  10.0227   4.2618   H         1 RES1   0.0000
    74 C37      8.2164   2.8435   2.8203   C.ar      1 RES1   0.0000
    75 C38      8.7200   2.9791   1.5343   C.ar      1 RES1   0.0000
    76 H31      8.7761   3.8216   1.1464   H         1 RES1   0.0000
    77 C39      9.1412   1.8687   0.8244   C.ar      1 RES1   0.0000
    78 H32      9.4780   1.9678  -0.0368   H         1 RES1   0.0000
    79 C40      9.0592   0.6117   1.3949   C.ar      1 RES1   0.0000
    80 H33      9.3599  -0.1326   0.9241   H         1 RES1   0.0000
    81 C41      8.5376   0.4603   2.6481   C.ar      1 RES1   0.0000
    82 H34      8.4625  -0.3884   3.0226   H         1 RES1   0.0000
    83 C42      8.1206   1.5682   3.3603   C.ar      1 RES1   0.0000
    84 H35      7.7688   1.4584   4.2146   H         1 RES1   0.0000
    85 C43      6.4014   3.8016   4.8229   C.ar      1 RES1   0.0000
    86 C44      5.3640   3.0880   4.2181   C.ar      1 RES1   0.0000
    87 H36      5.4556   2.7935   3.3412   H         1 RES1   0.0000
    88 C45      4.1978   2.8138   4.9199   C.ar      1 RES1   0.0000
    89 H37      3.5107   2.3376   4.5138   H         1 RES1   0.0000
    90 C46      4.0598   3.2450   6.2168   C.ar      1 RES1   0.0000
    91 H38      3.2703   3.0750   6.6789   H         1 RES1   0.0000
    92 C47      5.0831   3.9302   6.8364   C.ar      1 RES1   0.0000
    93 H39      4.9937   4.2031   7.7220   H         1 RES1   0.0000
    94 C48      6.2563   4.2133   6.1314   C.ar      1 RES1   0.0000
    95 H40      6.9428   4.6822   6.5476   H         1 RES1   0.0000
    96 C49     11.7325   4.4762   7.0177   C.3       1 RES1   0.0000
    97 H41     11.6259   4.0147   7.8638   H         1 RES1   0.0000
    98 H42     12.6312   4.3054   6.6929   H         1 RES1   0.0000
    99 C50     11.5418   5.9748   7.2281   C.3       1 RES1   0.0000
   100 H43     12.3459   6.3616   7.6083   H         1 RES1   0.0000
   101 H44     10.8076   6.1337   7.8410   H         1 RES1   0.0000
   102 C51      7.7738   6.5251   2.0815   C.3       1 RES1   0.0000
   103 H45      7.2305   7.1920   1.6330   H         1 RES1   0.0000
   104 H46      8.4401   6.1988   1.4562   H         1 RES1   0.0000
   105 C52      6.8980   5.3733   2.5765   C.3       1 RES1   0.0000
   106 H47      6.6302   4.8218   1.8255   H         1 RES1   0.0000
   107 H48      6.0968   5.7266   2.9929   H         1 RES1   0.0000
   108 C53     11.0587   5.2175   1.8470   C.1       1 RES1   0.0000
   109 H49      8.9463   5.7569   5.8738   H         1 RES1   0.0000
   110 Cl1      3.7427   5.1258   0.3791   Cl        2 RES2   0.0000
   111 Cl2      3.1059   2.4225   1.1959   Cl        2 RES2   0.0000
   112 C54      2.8173   4.1214   1.4842   C.3       2 RES2   0.0000
   113 H50      3.0622   4.3380   2.3961   H         2 RES2   0.0000
   114 H51      1.8725   4.3101   1.3739   H         2 RES2   0.0000
@<TRIPOS>BOND
     1     1     3    1
     2     2   108    2
     3     3     8    1
     4     4     1    1
     5     5     1    1
     6     6     1    1
     7     7     1    1
     8     8     9   ar
     9     9    10    1
    10    11     9   ar
    11    12    11    1
    12    13    11   ar
    13    14    13    1
    14    15    13   ar
    15    16    15    1
    16    17     8   ar
    17    18    17    1
    18    19     3    1
    19    20    19   ar
    20    21    20    1
    21    22    20   ar
    22    23    22    1
    23    24    22   ar
    24    25    24    1
    25    26    24   ar
    26    27    26    1
    27    28    19   ar
    28    29    28    1
    29    30     4    1
    30    31    30   ar
    31    32    31    1
    32    33    31   ar
    33    34    33    1
    34    35    33   ar
    35    36    35    1
    36    37    35   ar
    37    38    37    1
    38    39    30   ar
    39    40    39    1
    40    41     4    1
    41    42    41   ar
    42    43    42    1
    43    44    42   ar
    44    45    44    1
    45    46    44   ar
    46    47    46    1
    47    48    46   ar
    48    49    48    1
    49    50    41   ar
    50    51    50    1
    51    52     5    1
    52    53    52   ar
    53    54    53    1
    54    55    53   ar
    55    56    55    1
    56    57    55   ar
    57    58    57    1
    58    59    57   ar
    59    60    59    1
    60    61    52   ar
    61    62    61    1
    62    63     5    1
    63    64    63   ar
    64    65    64    1
    65    66    64   ar
    66    67    66    1
    67    68    66   ar
    68    69    68    1
    69    70    68   ar
    70    71    70    1
    71    72    63   ar
    72    73    72    1
    73    74     6    1
    74    75    74   ar
    75    76    75    1
    76    77    75   ar
    77    78    77    1
    78    79    77   ar
    79    80    79    1
    80    81    79   ar
    81    82    81    1
    82    83    74   ar
    83    84    83    1
    84    85     6    1
    85    86    85   ar
    86    87    86    1
    87    88    86   ar
    88    89    88    1
    89    90    88   ar
    90    91    90    1
    91    92    90   ar
    92    93    92    1
    93    94    85   ar
    94    95    94    1
    95    96     3    1
    96    97    96    1
    97    98    96    1
    98    99     4    1
    99   100    99    1
   100   101    99    1
   101   102     5    1
   102   103   102    1
   103   104   102    1
   104   105     6    1
   105   106   105    1
   106   107   105    1
   107   108     7    2
   108   109     1    1
   109    15    17   ar
   110    26    28   ar
   111    37    39   ar
   112    48    50   ar
   113    59    61   ar
   114    70    72   ar
   115    81    83   ar
   116    92    94   ar
   117    96    99    1
   118   102   105    1
   119   110   112    1
   120   111   112    1
   121   112   113    1
   122   114   112    1
@<TRIPOS>SUBSTRUCTURE
     1 RES1        1 GROUP             0 ****  ****    0  
     2 RES2      110 GROUP             0 ****  ****    0  
@<TRIPOS>CRYSIN
   12.1340   23.2600   18.2780   90.0000  106.7520   90.0000   231     1
