@<TRIPOS>MOLECULE
OCUGEB
   121   117    10     0     0
SMALL
USER_CHARGES
****
Generated from the CSD

@<TRIPOS>ATOM
     1 Fe1      7.1969   8.5223   3.3976   Fe        1 RES1   0.0000
     2 O1       5.5088   8.4222   4.5677   O.co2     1 RES1   0.0000
     3 O2       3.6298   8.1408   3.3856   O.co2     1 RES1   0.0000
     4 O3       8.8892   8.4815   2.2281   O.co2     1 RES1   0.0000
     5 O4      10.7810   8.2289   3.3979   O.co2     1 RES1   0.0000
     6 N1       2.0719   7.8272   5.5321   N.4       1 RES1   1.0000
     7 H1       1.6005   8.2493   6.1864   H         1 RES1   0.0000
     8 H2       1.8534   8.2018   4.7323   H         1 RES1   0.0000
     9 N2      12.3546   8.2967   1.2065   N.4       1 RES1   1.0000
    10 H3      12.6909   9.0103   0.7536   H         1 RES1   0.0000
    11 H4      12.5491   8.3984   2.0893   H         1 RES1   0.0000
    12 N3       8.0119   6.9493   4.7527   N.ar      1 RES1   0.0000
    13 N4       6.4399  10.1205   2.0349   N.ar      1 RES1   0.0000
    14 N5       4.0039  15.3850  -2.0689   N.ar      1 RES1   0.0000
    15 N6      10.4341   1.7119   8.8960   N.ar      1 RES1   0.0000
    16 C1       4.2739   8.2052   4.4317   C.2       1 RES1   0.0000
    17 C2       3.5582   7.9679   5.7865   C.3       1 RES1   0.0000
    18 H5       3.7402   8.7103   6.4149   H         1 RES1   0.0000
    19 C3       3.9441   6.6238   6.4026   C.3       1 RES1   0.0000
    20 H6       3.7398   6.6069   7.3616   H         1 RES1   0.0000
    21 H7       4.8984   6.4408   6.2775   H         1 RES1   0.0000
    22 C4       3.0799   5.5967   5.6368   C.3       1 RES1   0.0000
    23 H8       3.4557   5.3984   4.7540   H         1 RES1   0.0000
    24 H9       2.9793   4.7628   6.1415   H         1 RES1   0.0000
    25 C5       1.7476   6.3509   5.5239   C.3       1 RES1   0.0000
    26 H10      1.2887   6.1086   4.6915   H         1 RES1   0.0000
    27 H11      1.1641   6.1255   6.2789   H         1 RES1   0.0000
    28 C6      10.1393   8.3272   2.3505   C.2       1 RES1   0.0000
    29 C7      10.8634   8.2154   1.0120   C.3       1 RES1   0.0000
    30 H12     10.5616   8.9357   0.4040   H         1 RES1   0.0000
    31 C8      10.6460   6.8323   0.3441   C.3       1 RES1   0.0000
    32 H13     10.3970   6.1577   1.0093   H         1 RES1   0.0000
    33 H14      9.9450   6.8798  -0.3401   H         1 RES1   0.0000
    34 C9      11.9613   6.5187  -0.2652   C.3       1 RES1   0.0000
    35 H15     12.0748   5.5509  -0.3741   H         1 RES1   0.0000
    36 H16     12.0556   6.9509  -1.1399   H         1 RES1   0.0000
    37 C10     12.9420   7.0611   0.7019   C.3       1 RES1   0.0000
    38 H17     13.0919   6.4272   1.4337   H         1 RES1   0.0000
    39 H18     13.7982   7.2425   0.2612   H         1 RES1   0.0000
    40 C11      7.8884   7.0086   6.0748   C.ar      1 RES1   0.0000
    41 H19      7.4792   7.7679   6.4489   H         1 RES1   0.0000
    42 C12      8.3288   6.0153   6.9331   C.ar      1 RES1   0.0000
    43 H20      8.1831   6.0933   7.8581   H         1 RES1   0.0000
    44 C13      8.9866   4.9018   6.4258   C.ar      1 RES1   0.0000
    45 C14      9.0963   4.8187   5.0220   C.ar      1 RES1   0.0000
    46 H21      9.4910   4.0662   4.6194   H         1 RES1   0.0000
    47 C15      8.6204   5.8458   4.2521   C.ar      1 RES1   0.0000
    48 H22      8.7203   5.7831   3.3203   H         1 RES1   0.0000
    49 C16      7.1005  10.5408   0.9549   C.ar      1 RES1   0.0000
    50 H23      7.9119  10.1188   0.7400   H         1 RES1   0.0000
    51 C17      6.6610  11.5595   0.1360   C.ar      1 RES1   0.0000
    52 H24      7.1609  11.8120  -0.6189   H         1 RES1   0.0000
    53 C18      5.4756  12.2019   0.4394   C.ar      1 RES1   0.0000
    54 C19      4.7932  11.7815   1.5575   C.ar      1 RES1   0.0000
    55 H25      3.9794  12.1917   1.7901   H         1 RES1   0.0000
    56 C20      5.2947  10.7663   2.3355   C.ar      1 RES1   0.0000
    57 H26      4.8212  10.5103   3.1054   H         1 RES1   0.0000
    58 C21      3.7893  15.3714  -0.7291   C.ar      1 RES1   0.0000
    59 H27      3.3115  16.0867  -0.3509   H         1 RES1   0.0000
    60 C22      4.2299  14.3731   0.1061   C.ar      1 RES1   0.0000
    61 H28      4.0433  14.4104   1.0270   H         1 RES1   0.0000
    62 C23      4.9597  13.2985  -0.4230   C.ar      1 RES1   0.0000
    63 C24      5.2053  13.3036  -1.8159   C.ar      1 RES1   0.0000
    64 H29      5.7028  12.6188  -2.2213   H         1 RES1   0.0000
    65 C25      4.6905  14.3460  -2.5627   C.ar      1 RES1   0.0000
    66 H30      4.8338  14.3239  -3.4917   H         1 RES1   0.0000
    67 C26      9.3368   2.4187   9.2197   C.ar      1 RES1   0.0000
    68 H31      8.8830   2.1966  10.0127   H         1 RES1   0.0000
    69 C27      8.8466   3.4407   8.4593   C.ar      1 RES1   0.0000
    70 H32      8.0661   3.8916   8.7259   H         1 RES1   0.0000
    71 C28      9.4993   3.8204   7.2882   C.ar      1 RES1   0.0000
    72 C29     10.6410   3.1000   6.9454   C.ar      1 RES1   0.0000
    73 H33     11.1079   3.3034   6.1551   H         1 RES1   0.0000
    74 C30     11.0839   2.0916   7.7683   C.ar      1 RES1   0.0000
    75 H34     11.8765   1.6424   7.5371   H         1 RES1   0.0000
    76 Fe1A     3.2478  16.9970  -3.3976   Fe        1 RES1   0.0000
    77 Fe1A    11.1211   0.0476  10.2048   Fe        1 RES1   0.0000
    78 N5A      6.4408   6.9103   2.0689   N.3       1 RES1   0.0000
    79 N6A      7.8838  10.1866   4.7064   N.3       1 RES1   0.0000
    80 Cl1     13.2798  11.8590   5.3736   Cl        2 RES2   0.0000
    81 O5      12.6662  10.7222   4.8016   O.3       2 RES2  -1.0000
    82 O6      14.6333  11.6951   5.5511   O.2       2 RES2   0.0000
    83 O7      12.6505  12.2273   6.5699   O.2       2 RES2   0.0000
    84 O8      13.0601  12.8968   4.4806   O.2       2 RES2   0.0000
    85 Cl2     11.0322   2.9000   2.3619   Cl        3 RES3   0.0000
    86 O9      11.4600   1.9712   1.3643   O.2       3 RES3   0.0000
    87 O10      9.7839   3.5153   1.9819   O.3       3 RES3  -1.0000
    88 O11     12.0138   3.8950   2.5287   O.2       3 RES3   0.0000
    89 O12     10.8871   2.2441   3.6046   O.2       3 RES3   0.0000
    90 O13     11.6367  11.0459   2.0431   O.3       4 RES4   0.0000
    91 H35     12.1141  11.1375   2.7164   H         4 RES4   0.0000
    92 C31     11.2186  12.2917   1.6024   C.3       4 RES4   0.0000
    93 H36     10.4532  12.1866   1.0161   H         4 RES4   0.0000
    94 H37     11.9410  12.7222   1.1181   H         4 RES4   0.0000
    95 H38     10.9702  12.8375   2.3641   H         4 RES4   0.0000
    96 O14      0.9231   8.5730   7.9628   O.3       5 RES5   0.0000
    97 H39      0.8755   8.1645   7.2419   H         5 RES5   0.0000
    98 C32     -0.0432   9.5612   7.9968   C.3       5 RES5   0.0000
    99 H40     -0.3252   9.7052   8.9136   H         5 RES5   0.0000
   100 H41     -0.8065   9.2866   7.4650   H         5 RES5   0.0000
   101 H42      0.3223  10.3849   7.6377   H         5 RES5   0.0000
   102 O15     13.1431  10.1493  -0.7876   O.3       6 RES6   0.0000
   103 H43     12.3842  10.2408  -1.1100   H         6 RES6   0.0000
   104 C33     14.0017   9.8527  -1.7547   C.3       6 RES6   0.0000
   105 H44     13.7858  10.3679  -2.5464   H         6 RES6   0.0000
   106 H45     13.9421   8.9052  -1.9587   H         6 RES6   0.0000
   107 H46     14.9024  10.0646  -1.4636   H         6 RES6   0.0000
   108 O16      1.0487   5.6340  10.0331   O.3       7 RES7   0.0000
   109 H47      1.7670   5.9899   9.8196   H         7 RES7   0.0000
   110 C34     -0.0602   6.4764   9.6006   C.3       7 RES7   0.0000
   111 H48     -0.7546   6.4645  10.2739   H         7 RES7   0.0000
   112 H49     -0.4115   6.1408   8.7627   H         7 RES7   0.0000
   113 H50      0.2585   7.3865   9.4781   H         7 RES7   0.0000
   114 O17      3.2801   9.0544   9.2795   O.3       8 RES8   0.0000
   115 H51      3.8548   8.4679   9.1626   H         8 RES8   0.0000
   116 C35      3.9038  10.3493   9.2510   C.3       8 RES8   0.0000
   117 H52      3.2384  11.0256   9.0469   H         8 RES8   0.0000
   118 H53      4.5946  10.3612   8.5695   H         8 RES8   0.0000
   119 H54      4.3012  10.5374  10.1161   H         8 RES8   0.0000
   120 O18      4.7578   6.8730  10.1651   O.3       9 RES9   0.0000
   121 O19     -2.9310   7.5442  10.2834   O.3      10 RES10   0.0000
@<TRIPOS>BOND
     1     1     2    1
     2     2    16    1
     3     3    16    2
     4     4     1    1
     5     5    28    2
     6     6     7    1
     7     8     6    1
     8     9    10    1
     9    11     9    1
    10    12     1    1
    11    13     1    1
    12    14    58   ar
    13    15    67   ar
    14    16    17    1
    15    17     6    1
    16    18    17    1
    17    19    17    1
    18    20    19    1
    19    21    19    1
    20    22    19    1
    21    23    22    1
    22    24    22    1
    23    25     6    1
    24    26    25    1
    25    27    25    1
    26    28     4    1
    27    29     9    1
    28    30    29    1
    29    31    29    1
    30    32    31    1
    31    33    31    1
    32    34    31    1
    33    35    34    1
    34    36    34    1
    35    37     9    1
    36    38    37    1
    37    39    37    1
    38    40    12   ar
    39    41    40    1
    40    42    40   ar
    41    43    42    1
    42    44    42   ar
    43    45    44   ar
    44    46    45    1
    45    47    12   ar
    46    48    47    1
    47    49    13   ar
    48    50    49    1
    49    51    49   ar
    50    52    51    1
    51    53    51   ar
    52    54    53   ar
    53    55    54    1
    54    56    13   ar
    55    57    56    1
    56    58    59    1
    57    60    58   ar
    58    61    60    1
    59    62    53    1
    60    63    62   ar
    61    64    63    1
    62    65    14   ar
    63    66    65    1
    64    67    68    1
    65    69    67   ar
    66    70    69    1
    67    71    44    1
    68    72    71   ar
    69    73    72    1
    70    74    15   ar
    71    75    74    1
    72    76    14   un
    73    77    15   un
    74    78     1   un
    75    79     1   un
    76    22    25    1
    77    28    29    1
    78    34    37    1
    79    45    47   ar
    80    54    56   ar
    81    60    62   ar
    82    63    65   ar
    83    69    71   ar
    84    72    74   ar
    85    80    81    1
    86    82    80    2
    87    83    80    2
    88    84    80    2
    89    85    86    2
    90    87    85    1
    91    88    85    2
    92    89    85    2
    93    90    91    1
    94    92    90    1
    95    93    92    1
    96    94    92    1
    97    95    92    1
    98    96    97    1
    99    98    96    1
   100    99    98    1
   101   100    98    1
   102   101    98    1
   103   102   103    1
   104   104   102    1
   105   105   104    1
   106   106   104    1
   107   107   104    1
   108   108   109    1
   109   110   108    1
   110   111   110    1
   111   112   110    1
   112   113   110    1
   113   114   115    1
   114   116   114    1
   115   117   116    1
   116   118   116    1
   117   119   116    1
@<TRIPOS>SUBSTRUCTURE
     1 RES1        1 GROUP             0 ****  ****    0  
     2 RES2       80 GROUP             0 ****  ****    0  
     3 RES3       85 GROUP             0 ****  ****    0  
     4 RES4       90 GROUP             0 ****  ****    0  
     5 RES5       96 GROUP             0 ****  ****    0  
     6 RES6      102 GROUP             0 ****  ****    0  
     7 RES7      108 GROUP             0 ****  ****    0  
     8 RES8      114 GROUP             0 ****  ****    0  
     9 RES9      120 GROUP             0 ****  ****    0  
    10 RES10     121 GROUP             0 ****  ****    0  
@<TRIPOS>CRYSIN
   10.4447   16.9494   13.8433   90.0000  100.7050   90.0000     4     1
