@<TRIPOS>MOLECULE
OCUVAL
   106   110     6     0     0
SMALL
USER_CHARGES
****
Generated from the CSD

@<TRIPOS>ATOM
     1 Fe1      7.0248   3.5806  31.4831   Fe        1 RES1   2.0000
     2 N1       5.2720   4.3644  32.2502   N.ar      1 RES1   0.0000
     3 C1       4.6743   5.3954  31.6268   C.ar      1 RES1   0.0000
     4 C2       3.4755   5.9364  32.1108   C.ar      1 RES1   0.0000
     5 H1       3.0513   6.6616  31.6684   H         1 RES1   0.0000
     6 C3       2.9245   5.3815  33.2554   C.ar      1 RES1   0.0000
     7 H2       2.1135   5.7291  33.6064   H         1 RES1   0.0000
     8 C4       3.5498   4.3255  33.8876   C.ar      1 RES1   0.0000
     9 H3       3.1789   3.9459  34.6767   H         1 RES1   0.0000
    10 C5       4.7282   3.8294  33.3550   C.ar      1 RES1   0.0000
    11 C6       5.3968   5.8467  30.4456   C.2       1 RES1   0.0000
    12 N2       6.5530   5.1982  30.1842   N.2       1 RES1   0.0000
    13 N3       7.0369   5.7919  29.0751   N.pl3     1 RES1   0.0000
    14 H4       7.7946   5.5708  28.6851   H         1 RES1   0.0000
    15 C7       6.2167   6.7652  28.6378   C.2       1 RES1   0.0000
    16 H5       6.3560   7.3061  27.8672   H         1 RES1   0.0000
    17 C8       5.1512   6.8439  29.4883   C.2       1 RES1   0.0000
    18 H6       4.4114   7.4386  29.4425   H         1 RES1   0.0000
    19 C9       5.4997   2.7127  33.8862   C.2       1 RES1   0.0000
    20 N4       6.6123   2.3809  33.2028   N.2       1 RES1   0.0000
    21 N5       7.1017   1.3120  33.8901   N.pl3     1 RES1   0.0000
    22 H7       7.8352   0.8786  33.6704   H         1 RES1   0.0000
    23 C10      6.3228   0.9942  34.9558   C.2       1 RES1   0.0000
    24 H8       6.4730   0.2849  35.5692   H         1 RES1   0.0000
    25 C11      5.3012   1.8669  34.9803   C.2       1 RES1   0.0000
    26 H9       4.5923   1.9017  35.6119   H         1 RES1   0.0000
    27 N6       8.7837   2.9567  30.5910   N.ar      1 RES1   0.0000
    28 C12      9.9642   3.4927  30.9821   C.ar      1 RES1   0.0000
    29 C13     11.1467   3.1440  30.3460   C.ar      1 RES1   0.0000
    30 H10     11.9732   3.5196  30.6230   H         1 RES1   0.0000
    31 C14     11.1006   2.2365  29.2995   C.ar      1 RES1   0.0000
    32 H11     11.9015   1.9914  28.8522   H         1 RES1   0.0000
    33 C15      9.8919   1.6836  28.9020   C.ar      1 RES1   0.0000
    34 H12      9.8512   1.0560  28.1908   H         1 RES1   0.0000
    35 C16      8.7415   2.0781  29.5801   C.ar      1 RES1   0.0000
    36 C17      9.8032   4.4281  32.0894   C.2       1 RES1   0.0000
    37 N7       8.5439   4.6303  32.5026   N.2       1 RES1   0.0000
    38 N8       8.6394   5.4891  33.5313   N.pl3     1 RES1   0.0000
    39 H13      7.9514   5.7869  33.9904   H         1 RES1   0.0000
    40 C18      9.9147   5.8347  33.7713   C.2       1 RES1   0.0000
    41 H14     10.2156   6.4315  34.4455   H         1 RES1   0.0000
    42 C19     10.6976   5.1763  32.8714   C.2       1 RES1   0.0000
    43 H15     11.6421   5.2151  32.7921   H         1 RES1   0.0000
    44 C20      7.3820   1.6079  29.3084   C.2       1 RES1   0.0000
    45 N9       6.4251   2.0990  30.1006   N.2       1 RES1   0.0000
    46 N10      5.2857   1.4923  29.6761   N.pl3     1 RES1   0.0000
    47 H16      4.4881   1.6338  30.0221   H         1 RES1   0.0000
    48 C21      5.5348   0.6495  28.6630   C.2       1 RES1   0.0000
    49 H17      4.8895   0.1156  28.2157   H         1 RES1   0.0000
    50 C22      6.8591   0.6894  28.3867   C.2       1 RES1   0.0000
    51 H18      7.3301   0.2032  27.7179   H         1 RES1   0.0000
    52 B1       9.1076   8.9608  25.5189   B         2 RES2  -1.0000
    53 F1       7.9332   8.4836  26.0996   F         2 RES2   0.0000
    54 F2       9.0279  10.3505  25.4798   F         2 RES2   0.0000
    55 F3       9.2121   8.5125  24.2541   F         2 RES2   0.0000
    56 F4      10.2043   8.6829  26.2408   F         2 RES2   0.0000
    57 B2       6.3857   7.2762  35.4824   B         3 RES3  -1.0000
    58 F5       7.5017   7.8690  34.8790   F         3 RES3   0.0000
    59 F6       6.3951   5.9224  35.2207   F         3 RES3   0.0000
    60 F7       6.5165   7.4486  36.8187   F         3 RES3   0.0000
    61 F8       5.2210   7.8152  35.0849   F         3 RES3   0.0000
    62 C23      1.8906   3.1181  30.1981   C.3       4 RES4   0.0000
    63 H19      2.7103   3.6302  30.3599   H         4 RES4   0.0000
    64 H20      1.1153   3.7158  30.2567   H         4 RES4   0.0000
    65 H21      1.9266   2.7166  29.3038   H         4 RES4   0.0000
    66 C24      1.7682   2.0572  31.2083   C.3       4 RES4   0.0000
    67 H22      1.4851   2.4477  32.0738   H         4 RES4   0.0000
    68 H23      1.0849   1.3997  30.9252   H         4 RES4   0.0000
    69 O1       3.0398   1.4056  31.3591   O.3       4 RES4   0.0000
    70 C25      2.9763   0.2949  32.2850   C.3       4 RES4   0.0000
    71 H24      2.2530  -0.3248  32.0169   H         4 RES4   0.0000
    72 H25      2.7798   0.6276  33.1974   H         4 RES4   0.0000
    73 C26      4.2685  -0.4114  32.2758   C.3       4 RES4   0.0000
    74 H26      4.4196  -0.8029  31.3911   H         4 RES4   0.0000
    75 H27      4.2565  -1.1237  32.9485   H         4 RES4   0.0000
    76 H28      4.9889   0.2212  32.4827   H         4 RES4   0.0000
    77 C27      7.5848   3.9400  26.2699   C.3       5 RES5   0.0000
    78 H29      7.3375   3.3950  27.0458   H         5 RES5   0.0000
    79 H30      7.4683   3.4140  25.4528   H         5 RES5   0.0000
    80 H31      7.0118   4.7339  26.2315   H         5 RES5   0.0000
    81 C28      9.0197   4.3634  26.3915   C.3       5 RES5   0.0000
    82 H32      9.6032   3.5634  26.4058   H         5 RES5   0.0000
    83 H33      9.2734   4.9153  25.6092   H         5 RES5   0.0000
    84 O2       9.2081   5.1165  27.5913   O.3       5 RES5   0.0000
    85 C29     10.4920   5.7351  27.7136   C.3       5 RES5   0.0000
    86 H34     10.7135   6.2173  26.8787   H         5 RES5   0.0000
    87 H35     11.1849   5.0438  27.8672   H         5 RES5   0.0000
    88 C30     10.4690   6.6935  28.8628   C.3       5 RES5   0.0000
    89 H36      9.7793   7.3729  28.7099   H         5 RES5   0.0000
    90 H37     11.3441   7.1288  28.9411   H         5 RES5   0.0000
    91 H38     10.2691   6.2073  29.6914   H         5 RES5   0.0000
    92 C31      7.9771  -1.3140  31.5315   C.3       6 RES6   0.0000
    93 H39      7.5349  -1.5830  32.3618   H         6 RES6   0.0000
    94 H40      7.9589  -2.0601  30.8968   H         6 RES6   0.0000
    95 H41      7.5074  -0.5449  31.1457   H         6 RES6   0.0000
    96 C32      9.3871  -0.9404  31.8199   C.3       6 RES6   0.0000
    97 H42      9.8748  -1.7274  32.1698   H         6 RES6   0.0000
    98 H43      9.8302  -0.6455  30.9857   H         6 RES6   0.0000
    99 O3       9.4216   0.1146  32.7832   O.3       6 RES6   0.0000
   100 C33     10.7310   0.4533  33.2028   C.3       6 RES6   0.0000
   101 H44     11.2411   0.8209  32.4400   H         6 RES6   0.0000
   102 H45     11.1989  -0.3576  33.5246   H         6 RES6   0.0000
   103 C34     10.6614   1.4594  34.2916   C.3       6 RES6   0.0000
   104 H46     10.1889   2.2564  33.9691   H         6 RES6   0.0000
   105 H47     11.5692   1.7065  34.5664   H         6 RES6   0.0000
   106 H48     10.1770   1.0809  35.0571   H         6 RES6   0.0000
@<TRIPOS>BOND
     1     1     2    1
     2     2     3   ar
     3     3     4   ar
     4     4     5    1
     5     6     4   ar
     6     7     6    1
     7     8     6   ar
     8     9     8    1
     9    10     2   ar
    10    11     3    1
    11    12     1    1
    12    13    12    1
    13    14    13    1
    14    15    13    1
    15    16    15    1
    16    17    11    1
    17    18    17    1
    18    19    10    1
    19    20     1    1
    20    21    20    1
    21    22    21    1
    22    23    21    1
    23    24    23    1
    24    25    19    1
    25    26    25    1
    26    27     1    1
    27    28    27   ar
    28    29    28   ar
    29    30    29    1
    30    31    29   ar
    31    32    31    1
    32    33    31   ar
    33    34    33    1
    34    35    27   ar
    35    36    28    1
    36    37     1    1
    37    38    37    1
    38    39    38    1
    39    40    38    1
    40    41    40    1
    41    42    36    1
    42    43    42    1
    43    44    35    1
    44    45     1    1
    45    46    45    1
    46    47    46    1
    47    48    46    1
    48    49    48    1
    49    50    44    1
    50    51    50    1
    51     8    10   ar
    52    11    12    2
    53    15    17    2
    54    19    20    2
    55    23    25    2
    56    33    35   ar
    57    36    37    2
    58    40    42    2
    59    44    45    2
    60    48    50    2
    61    52    53    1
    62    54    52    1
    63    55    52    1
    64    56    52    1
    65    57    58    1
    66    59    57    1
    67    60    57    1
    68    61    57    1
    69    62    63    1
    70    64    62    1
    71    65    62    1
    72    66    62    1
    73    67    66    1
    74    68    66    1
    75    69    66    1
    76    70    69    1
    77    71    70    1
    78    72    70    1
    79    73    70    1
    80    74    73    1
    81    75    73    1
    82    76    73    1
    83    77    78    1
    84    79    77    1
    85    80    77    1
    86    81    77    1
    87    82    81    1
    88    83    81    1
    89    84    81    1
    90    85    84    1
    91    86    85    1
    92    87    85    1
    93    88    85    1
    94    89    88    1
    95    90    88    1
    96    91    88    1
    97    92    93    1
    98    94    92    1
    99    95    92    1
   100    96    92    1
   101    97    96    1
   102    98    96    1
   103    99    96    1
   104   100    99    1
   105   101   100    1
   106   102   100    1
   107   103   100    1
   108   104   103    1
   109   105   103    1
   110   106   103    1
@<TRIPOS>SUBSTRUCTURE
     1 RES1        1 GROUP             0 ****  ****    0  
     2 RES2       52 GROUP             0 ****  ****    0  
     3 RES3       57 GROUP             0 ****  ****    0  
     4 RES4       62 GROUP             0 ****  ****    0  
     5 RES5       77 GROUP             0 ****  ****    0  
     6 RES6       92 GROUP             0 ****  ****    0  
@<TRIPOS>CRYSIN
   23.9530    9.9620   36.5310   90.0000  103.2500   90.0000    15     1
