@<TRIPOS>MOLECULE
ODICAG01
   105   111     3     0     0
SMALL
USER_CHARGES
****
Generated from the CSD

@<TRIPOS>ATOM
     1 Fe1     21.3520   0.4969   4.5360   Fe        1 RES1   2.0000
     2 N1      19.4868   2.2800   7.8446   N.pl3     1 RES1   0.0000
     3 N2      20.4904   1.4042   6.0948   N.2       1 RES1   0.0000
     4 N3      22.9921   1.2207   5.4095   N.2       1 RES1   0.0000
     5 N4      26.0134   0.7707   7.3620   N.ar      1 RES1   0.0000
     6 N5      21.9048  -3.1291   6.5814   N.pl3     1 RES1   0.0000
     7 N6      21.6286  -1.2472   5.4906   N.2       1 RES1   0.0000
     8 N7      22.2823  -0.5119   3.0738   N.2       1 RES1   0.0000
     9 N8      22.1256  -2.8616  -0.6995   N.ar      1 RES1   0.0000
    10 N9      17.6795  -0.6546   2.9136   N.pl3     1 RES1   0.0000
    11 N10     19.6080  -0.0210   3.7266   N.2       1 RES1   0.0000
    12 N11     21.0572   2.1053   3.4022   N.2       1 RES1   0.0000
    13 N12     18.9775   5.1581   3.2198   N.ar      1 RES1   0.0000
    14 C1      17.9607   1.3014   6.1374   C.3       1 RES1   0.0000
    15 C2      19.3181   1.6409   6.6544   C.2       1 RES1   0.0000
    16 C3      20.8217   2.4657   8.0656   C.2       1 RES1   0.0000
    17 C4      21.4541   1.9228   6.9707   C.2       1 RES1   0.0000
    18 C5      22.7988   1.8200   6.5368   C.2       1 RES1   0.0000
    19 C6      24.3733   1.1544   4.9148   C.3       1 RES1   0.0000
    20 C7      25.0793  -0.1382   5.3142   C.3       1 RES1   0.0000
    21 C8      25.3365  -0.2399   6.8024   C.ar      1 RES1   0.0000
    22 C9      24.8902  -1.3268   7.5344   C.ar      1 RES1   0.0000
    23 C10     25.1502  -1.3932   8.8989   C.ar      1 RES1   0.0000
    24 C11     25.8280  -0.3472   9.4808   C.ar      1 RES1   0.0000
    25 C12     26.2334   0.6922   8.6901   C.ar      1 RES1   0.0000
    26 C13     20.8399  -1.3047   7.8953   C.3       1 RES1   0.0000
    27 C14     21.4322  -1.8543   6.6524   C.2       1 RES1   0.0000
    28 C15     22.4365  -3.3503   5.3467   C.2       1 RES1   0.0000
    29 C16     22.2604  -2.1804   4.6694   C.2       1 RES1   0.0000
    30 C17     22.5868  -1.7348   3.3434   C.2       1 RES1   0.0000
    31 C18     22.5173   0.0144   1.7153   C.3       1 RES1   0.0000
    32 C19     22.8329  -0.9730   0.6103   C.3       1 RES1   0.0000
    33 C20     21.7533  -1.9792   0.2534   C.ar      1 RES1   0.0000
    34 C21     20.5010  -2.0433   0.8313   C.ar      1 RES1   0.0000
    35 C22     19.6058  -3.0274   0.4440   C.ar      1 RES1   0.0000
    36 C23     19.9849  -3.9352  -0.5251   C.ar      1 RES1   0.0000
    37 C24     21.2511  -3.8036  -1.0624   C.ar      1 RES1   0.0000
    38 C25     18.7056  -2.2379   4.5478   C.3       1 RES1   0.0000
    39 C26     18.7031  -0.9785   3.7510   C.2       1 RES1   0.0000
    40 C27     17.9385   0.5529   2.3337   C.2       1 RES1   0.0000
    41 C28     19.1444   0.9498   2.8447   C.2       1 RES1   0.0000
    42 C29     19.9745   2.1075   2.6946   C.2       1 RES1   0.0000
    43 C30     21.9656   3.2707   3.3171   C.3       1 RES1   0.0000
    44 C31     21.3104   4.5909   2.9440   C.3       1 RES1   0.0000
    45 C32     20.1423   4.9336   3.8422   C.ar      1 RES1   0.0000
    46 C33     20.2753   4.9745   5.2209   C.ar      1 RES1   0.0000
    47 C34     19.1764   5.2808   5.9914   C.ar      1 RES1   0.0000
    48 C35     17.9777   5.5097   5.3771   C.ar      1 RES1   0.0000
    49 C36     17.9175   5.4389   4.0024   C.ar      1 RES1   0.0000
    50 H1      17.7076   0.4401   6.4436   H         1 RES1   0.0000
    51 H2      17.9748   1.3080   5.1865   H         1 RES1   0.0000
    52 H3      17.3391   1.9471   6.4476   H         1 RES1   0.0000
    53 H4      18.7881   2.5475   8.4265   H         1 RES1   0.0000
    54 H5      21.2298   2.8826   8.8158   H         1 RES1   0.0000
    55 H6      23.5192   2.1672   7.0498   H         1 RES1   0.0000
    56 H7      24.3620   1.2163   3.9659   H         1 RES1   0.0000
    57 H8      24.8659   1.8841   5.2737   H         1 RES1   0.0000
    58 H9      24.5242  -0.8658   5.0567   H         1 RES1   0.0000
    59 H10     25.9114  -0.1990   4.8621   H         1 RES1   0.0000
    60 H11     24.4152  -2.0279   7.1025   H         1 RES1   0.0000
    61 H12     24.8649  -2.1384   9.4139   H         1 RES1   0.0000
    62 H13     26.0083  -0.3472  10.4135   H         1 RES1   0.0000
    63 H14     26.7058   1.4065   9.1017   H         1 RES1   0.0000
    64 H15     19.9057  -1.4750   7.9054   H         1 RES1   0.0000
    65 H16     20.9916  -0.3671   7.9257   H         1 RES1   0.0000
    66 H17     21.2445  -1.7160   8.6495   H         1 RES1   0.0000
    67 H18     21.8695  -3.7638   7.2890   H         1 RES1   0.0000
    68 H19     22.8418  -4.1453   5.0222   H         1 RES1   0.0000
    69 H20     22.9949  -2.3087   2.7048   H         1 RES1   0.0000
    70 H21     21.7338   0.4821   1.4538   H         1 RES1   0.0000
    71 H22     23.2430   0.6247   1.7741   H         1 RES1   0.0000
    72 H23     23.0340  -0.4777  -0.1744   H         1 RES1   0.0000
    73 H24     23.6008  -1.4606   0.8840   H         1 RES1   0.0000
    74 H25     20.2564  -1.4065   1.4923   H         1 RES1   0.0000
    75 H26     18.7444  -3.0783   0.8374   H         1 RES1   0.0000
    76 H27     19.3965  -4.6229  -0.8130   H         1 RES1   0.0000
    77 H28     21.5193  -4.4217  -1.7315   H         1 RES1   0.0000
    78 H29     18.2875  -2.0854   5.3872   H         1 RES1   0.0000
    79 H30     19.6034  -2.5210   4.6877   H         1 RES1   0.0000
    80 H31     18.2297  -2.9113   4.0754   H         1 RES1   0.0000
    81 H32     16.9099  -1.1875   2.7554   H         1 RES1   0.0000
    82 H33     17.3959   1.0217   1.7092   H         1 RES1   0.0000
    83 H34     19.7442   2.8306   2.1228   H         1 RES1   0.0000
    84 H35     22.3804   3.3779   4.1646   H         1 RES1   0.0000
    85 H36     22.6260   3.0738   2.6642   H         1 RES1   0.0000
    86 H37     21.9566   5.2841   3.0109   H         1 RES1   0.0000
    87 H38     20.9989   4.5345   2.0478   H         1 RES1   0.0000
    88 H39     21.1135   4.7877   5.6265   H         1 RES1   0.0000
    89 H40     19.2499   5.3405   6.9383   H         1 RES1   0.0000
    90 H41     17.1966   5.7021   5.8840   H         1 RES1   0.0000
    91 H42     17.0846   5.6048   3.5786   H         1 RES1   0.0000
    92 P1      21.9171   2.8377  -1.3120   P.3       2 RES2  -1.0000
    93 F1      20.8427   3.2065  -2.4270   F         2 RES2   0.0000
    94 F2      22.9785   2.4171  -0.2433   F         2 RES2   0.0000
    95 F3      21.6004   4.1143  -0.4826   F         2 RES2   0.0000
    96 F4      20.7870   2.0035  -0.5535   F         2 RES2   0.0000
    97 F5      22.2010   1.5170  -2.1472   F         2 RES2   0.0000
    98 F6      23.0176   3.6311  -2.0904   F         2 RES2   0.0000
    99 P2      26.8242  -0.1762   1.5533   P.3       3 RES3  -1.0000
   100 F7      25.7595   0.0652   0.4284   F         3 RES3   0.0000
   101 F8      27.8552  -0.4290   2.7615   F         3 RES3   0.0000
   102 F9      26.1636   0.9542   2.4517   F         3 RES3   0.0000
   103 F10     25.8226  -1.2539   2.2263   F         3 RES3   0.0000
   104 F11     27.5050  -1.3025   0.6954   F         3 RES3   0.0000
   105 F12     27.7832   0.9376   0.9448   F         3 RES3   0.0000
@<TRIPOS>BOND
     1     1     3    1
     2     2    15    1
     3     3    15    2
     4     4     1    1
     5     5    21   ar
     6     6    27    1
     7     7     1    1
     8     8     1    1
     9     9    33   ar
    10    10    39    1
    11    11     1    1
    12    12     1    1
    13    13    45   ar
    14    14    15    1
    15    16     2    1
    16    17     3    1
    17    18     4    2
    18    19     4    1
    19    20    19    1
    20    21    20    1
    21    22    21   ar
    22    23    22   ar
    23    24    23   ar
    24    25     5   ar
    25    26    27    1
    26    27     7    2
    27    28     6    1
    28    29     7    1
    29    30     8    2
    30    31     8    1
    31    32    31    1
    32    33    32    1
    33    34    33   ar
    34    35    34   ar
    35    36    35   ar
    36    37     9   ar
    37    38    39    1
    38    39    11    2
    39    40    10    1
    40    41    11    1
    41    42    12    2
    42    43    12    1
    43    44    43    1
    44    45    44    1
    45    46    45   ar
    46    47    46   ar
    47    48    47   ar
    48    49    13   ar
    49    50    14    1
    50    51    14    1
    51    52    14    1
    52    53     2    1
    53    54    16    1
    54    55    18    1
    55    56    19    1
    56    57    19    1
    57    58    20    1
    58    59    20    1
    59    60    22    1
    60    61    23    1
    61    62    24    1
    62    63    25    1
    63    64    26    1
    64    65    26    1
    65    66    26    1
    66    67     6    1
    67    68    28    1
    68    69    30    1
    69    70    31    1
    70    71    31    1
    71    72    32    1
    72    73    32    1
    73    74    34    1
    74    75    35    1
    75    76    36    1
    76    77    37    1
    77    78    38    1
    78    79    38    1
    79    80    38    1
    80    81    10    1
    81    82    40    1
    82    83    42    1
    83    84    43    1
    84    85    43    1
    85    86    44    1
    86    87    44    1
    87    88    46    1
    88    89    47    1
    89    90    48    1
    90    91    49    1
    91    16    17    2
    92    17    18    1
    93    24    25   ar
    94    28    29    2
    95    29    30    1
    96    36    37   ar
    97    40    41    2
    98    41    42    1
    99    48    49   ar
   100    92    93    1
   101    94    92    1
   102    95    92    1
   103    96    92    1
   104    97    92    1
   105    98    92    1
   106    99   100    1
   107   101    99    1
   108   102    99    1
   109   103    99    1
   110   104    99    1
   111   105    99    1
@<TRIPOS>SUBSTRUCTURE
     1 RES1        1 GROUP             0 ****  ****    0  
     2 RES2       92 GROUP             0 ****  ****    0  
     3 RES3       99 GROUP             0 ****  ****    0  
@<TRIPOS>CRYSIN
   37.0200   11.0570   22.5730   90.0000  116.0750   90.0000    15     1
