@<TRIPOS>MOLECULE
ODIMOE
   113   121     2     0     0
SMALL
NO_CHARGES
****
Generated from the CSD

@<TRIPOS>ATOM
     1 Fe1     13.7407   4.5630  14.6512   Fe        1 RES1   0.0000
     2 C1      16.1573   4.0027  12.4004   C.ar      1 RES1   0.0000
     3 H1      16.3177   4.9189  12.4439   H         1 RES1   0.0000
     4 C2      16.9025   3.2321  11.5029   C.ar      1 RES1   0.0000
     5 H2      17.5646   3.6345  10.9900   H         1 RES1   0.0000
     6 C3      16.6762   1.9409  11.3790   C.ar      1 RES1   0.0000
     7 H3      17.1287   1.4491  10.7314   H         1 RES1   0.0000
     8 C4      15.7361   1.3035  12.2374   C.ar      1 RES1   0.0000
     9 C5      15.4777  -0.1236  12.2178   C.ar      1 RES1   0.0000
    10 C6      15.9283  -2.1717  11.3985   C.ar      1 RES1   0.0000
    11 H4      16.4007  -2.7390  10.8313   H         1 RES1   0.0000
    12 C7      14.9913  -2.7197  12.2570   C.ar      1 RES1   0.0000
    13 H5      14.8507  -3.6387  12.2352   H         1 RES1   0.0000
    14 C8      14.5345  -0.6607  13.0806   C.ar      1 RES1   0.0000
    15 C9      13.7642   0.1909  13.9716   C.ar      1 RES1   0.0000
    16 C10     12.7882  -0.2885  14.8344   C.ar      1 RES1   0.0000
    17 H6      12.6091  -1.2005  14.8692   H         1 RES1   0.0000
    18 C11     12.1021   0.5604  15.6211   C.ar      1 RES1   0.0000
    19 H7      11.4332   0.2445  16.1840   H         1 RES1   0.0000
    20 C12     12.4052   1.9066  15.5820   C.ar      1 RES1   0.0000
    21 H8      11.9277   2.4835  16.1318   H         1 RES1   0.0000
    22 C13     14.0232   1.5687  13.9803   C.ar      1 RES1   0.0000
    23 C14     15.0176   2.1305  13.1067   C.ar      1 RES1   0.0000
    24 C15     12.3004   5.9724  16.7012   C.ar      1 RES1   0.0000
    25 C16     12.1717   5.9422  18.1225   C.ar      1 RES1   0.0000
    26 C17     12.0795   7.1716  18.7766   C.ar      1 RES1   0.0000
    27 H9      12.0007   7.1620  19.7024   H         1 RES1   0.0000
    28 C18     12.0962   8.4078  18.1420   C.ar      1 RES1   0.0000
    29 C19     12.2260   8.4037  16.7577   C.ar      1 RES1   0.0000
    30 H10     12.2503   9.2127  16.2992   H         1 RES1   0.0000
    31 C20     12.3224   7.2128  16.0492   C.ar      1 RES1   0.0000
    32 C21     12.1130   4.6304  18.8831   C.3       1 RES1   0.0000
    33 C22     12.0629   4.8406  20.4022   C.3       1 RES1   0.0000
    34 H11     12.0261   3.9889  20.8434   H         1 RES1   0.0000
    35 H12     11.2823   5.3515  20.6304   H         1 RES1   0.0000
    36 H13     12.8478   5.3145  20.6869   H         1 RES1   0.0000
    37 C23     10.8497   3.8557  18.4767   C.3       1 RES1   0.0000
    38 H14     10.8138   3.0260  18.9592   H         1 RES1   0.0000
    39 H15     10.8711   3.6771  17.5357   H         1 RES1   0.0000
    40 H16     10.0731   4.3804  18.6853   H         1 RES1   0.0000
    41 C24     13.3653   3.7870  18.6115   C.3       1 RES1   0.0000
    42 H17     13.3082   2.9629  19.1004   H         1 RES1   0.0000
    43 H18     14.1459   4.2719  18.8918   H         1 RES1   0.0000
    44 H19     13.4268   3.5975  17.6726   H         1 RES1   0.0000
    45 C25     12.0265   9.7004  18.9744   C.3       1 RES1   0.0000
    46 C26     11.8889  10.9394  18.1138   C.3       1 RES1   0.0000
    47 H20     11.8475  11.7168  18.6767   H         1 RES1   0.0000
    48 H21     11.0829  10.8789  17.5944   H         1 RES1   0.0000
    49 H22     12.6440  11.0080  17.5270   H         1 RES1   0.0000
    50 C27     13.2777   9.8322  19.8350   C.3       1 RES1   0.0000
    51 H23     13.3679   9.0548  20.3892   H         1 RES1   0.0000
    52 H24     13.2055  10.6138  20.3870   H         1 RES1   0.0000
    53 H25     14.0497   9.9119  19.2678   H         1 RES1   0.0000
    54 C28     10.8226   9.6454  19.9219   C.3       1 RES1   0.0000
    55 H26     10.8945   8.8707  20.4848   H         1 RES1   0.0000
    56 H27     10.0133   9.5946  19.4090   H         1 RES1   0.0000
    57 H28     10.8075  10.4352  20.4674   H         1 RES1   0.0000
    58 C29     12.4316   7.2444  14.5410   C.3       1 RES1   0.0000
    59 H29     11.6947   6.7430  14.1607   H         1 RES1   0.0000
    60 H30     12.3542   8.1633  14.2389   H         1 RES1   0.0000
    61 C30     13.6820   6.6565  12.5656   C.3       1 RES1   0.0000
    62 H31     14.5890   6.6386  12.2222   H         1 RES1   0.0000
    63 H32     13.2554   7.4655  12.2417   H         1 RES1   0.0000
    64 C31     12.9336   5.4614  12.0570   C.2       1 RES1   0.0000
    65 C32     14.8775   7.4367  14.5475   C.3       1 RES1   0.0000
    66 H33     14.7252   7.6468  15.4820   H         1 RES1   0.0000
    67 H34     14.9329   8.2759  14.0629   H         1 RES1   0.0000
    68 C33     16.1834   6.7334  14.4258   C.ar      1 RES1   0.0000
    69 C34     17.2300   7.2540  13.6739   C.ar      1 RES1   0.0000
    70 H35     17.0993   8.0328  13.1828   H         1 RES1   0.0000
    71 C35     18.4672   6.6262  13.6456   C.ar      1 RES1   0.0000
    72 C36     18.6426   5.5329  14.4650   C.ar      1 RES1   0.0000
    73 H36     19.4890   5.1469  14.5019   H         1 RES1   0.0000
    74 C37     17.6324   4.9724  15.2364   C.ar      1 RES1   0.0000
    75 C38     16.3650   5.5356  15.1517   C.ar      1 RES1   0.0000
    76 C39     19.6105   7.0905  12.7155   C.3       1 RES1   0.0000
    77 C40     19.4220   8.5259  12.2504   C.3       1 RES1   0.0000
    78 H37     19.4034   9.1097  13.0132   H         1 RES1   0.0000
    79 H38     18.5946   8.6015  11.7702   H         1 RES1   0.0000
    80 H39     20.1497   8.7746  11.6745   H         1 RES1   0.0000
    81 C41     20.9424   7.0273  13.4522   C.3       1 RES1   0.0000
    82 H40     21.1005   6.1290  13.7500   H         1 RES1   0.0000
    83 H41     20.9166   7.6166  14.2107   H         1 RES1   0.0000
    84 H42     21.6485   7.2979  12.8611   H         1 RES1   0.0000
    85 C42     19.6298   6.1716  11.5181   C.3       1 RES1   0.0000
    86 H43     19.7537   5.2664  11.8136   H         1 RES1   0.0000
    87 H44     20.3504   6.4202  10.9356   H         1 RES1   0.0000
    88 H45     18.7975   6.2444  11.0465   H         1 RES1   0.0000
    89 C43     17.9444   3.7953  16.2166   C.3       1 RES1   0.0000
    90 C44     17.1678   2.5618  15.8558   C.3       1 RES1   0.0000
    91 H46     16.2294   2.7678  15.8406   H         1 RES1   0.0000
    92 H47     17.3352   1.8763  16.5078   H         1 RES1   0.0000
    93 H48     17.4404   2.2527  14.9887   H         1 RES1   0.0000
    94 C45     17.5978   4.2664  17.6422   C.3       1 RES1   0.0000
    95 H49     18.1077   5.0521  17.8508   H         1 RES1   0.0000
    96 H50     17.8082   3.5714  18.2681   H         1 RES1   0.0000
    97 H51     16.6607   4.4697  17.6922   H         1 RES1   0.0000
    98 C46     19.4486   3.4780  16.2448   C.3       1 RES1   0.0000
    99 H52     19.9374   4.2678  16.4882   H         1 RES1   0.0000
   100 H53     19.7302   3.1813  15.3777   H         1 RES1   0.0000
   101 H54     19.6178   2.7870  16.8903   H         1 RES1   0.0000
   102 N1      15.2327   3.4807  13.1893   N.ar      1 RES1   0.0000
   103 N2      13.3508   2.4244  14.7909   N.ar      1 RES1   0.0000
   104 N3      16.1797  -0.8736  11.3507   N.ar      1 RES1   0.0000
   105 N4      14.2967  -1.9958  13.0958   N.ar      1 RES1   0.0000
   106 N5      13.7162   6.6771  14.0386   N.3       1 RES1   0.0000
   107 O1      12.4037   4.8653  15.9725   O.3       1 RES1   0.0000
   108 O2      15.2667   4.9738  15.7159   O.3       1 RES1   0.0000
   109 O3      12.7231   4.5452  12.9335   O.co2     1 RES1   0.0000
   110 O4      12.6119   5.4106  10.8813   O.co2     1 RES1   0.0000
   111 C47     15.6506   7.1482  18.3094   C.3       2 RES2   0.0000
   112 C48     15.7835   6.6812  19.6850   C.1       2 RES2   0.0000
   113 N6      15.7970   6.3131  20.7934   N.1       2 RES2   0.0000
@<TRIPOS>BOND
     1     1   102    1
     2     2     3    1
     3     4     2   ar
     4     5     4    1
     5     6     4   ar
     6     7     6    1
     7     8     6   ar
     8     9     8   ar
     9    10    11    1
    10    12    10   ar
    11    13    12    1
    12    14     9   ar
    13    15    14   ar
    14    16    15   ar
    15    17    16    1
    16    18    16   ar
    17    19    18    1
    18    20    18   ar
    19    21    20    1
    20    22    15   ar
    21    23     8   ar
    22    24    25   ar
    23    25    26   ar
    24    26    27    1
    25    28    26   ar
    26    29    28   ar
    27    30    29    1
    28    31    24   ar
    29    32    25    1
    30    33    32    1
    31    34    33    1
    32    35    33    1
    33    36    33    1
    34    37    32    1
    35    38    37    1
    36    39    37    1
    37    40    37    1
    38    41    32    1
    39    42    41    1
    40    43    41    1
    41    44    41    1
    42    45    28    1
    43    46    45    1
    44    47    46    1
    45    48    46    1
    46    49    46    1
    47    50    45    1
    48    51    50    1
    49    52    50    1
    50    53    50    1
    51    54    45    1
    52    55    54    1
    53    56    54    1
    54    57    54    1
    55    58    31    1
    56    59    58    1
    57    60    58    1
    58    61    62    1
    59    63    61    1
    60    64    61    1
    61    65    66    1
    62    67    65    1
    63    68    65    1
    64    69    68   ar
    65    70    69    1
    66    71    69   ar
    67    72    71   ar
    68    73    72    1
    69    74    72   ar
    70    75    68   ar
    71    76    71    1
    72    77    76    1
    73    78    77    1
    74    79    77    1
    75    80    77    1
    76    81    76    1
    77    82    81    1
    78    83    81    1
    79    84    81    1
    80    85    76    1
    81    86    85    1
    82    87    85    1
    83    88    85    1
    84    89    74    1
    85    90    89    1
    86    91    90    1
    87    92    90    1
    88    93    90    1
    89    94    89    1
    90    95    94    1
    91    96    94    1
    92    97    94    1
    93    98    89    1
    94    99    98    1
    95   100    98    1
    96   101    98    1
    97   102     2   ar
    98   103     1    1
    99   104     9   ar
   100   105    12   ar
   101   106     1    1
   102   107     1    1
   103   108     1    1
   104   109     1    1
   105   110    64    2
   106    10   104   ar
   107    14   105   ar
   108    20   103   ar
   109    22    23   ar
   110    22   103   ar
   111    23   102   ar
   112    24   107    1
   113    29    31   ar
   114    58   106    1
   115    61   106    1
   116    64   109    1
   117    65   106    1
   118    74    75   ar
   119    75   108    1
   120   111   112    1
   121   112   113    3
@<TRIPOS>SUBSTRUCTURE
     1 RES1        1 GROUP             0 ****  ****    0  
     2 RES2      111 GROUP             0 ****  ****    0  
@<TRIPOS>CRYSIN
   14.9070   13.7360   21.7590   90.0000   92.8440   90.0000   231     1
