@<TRIPOS>MOLECULE
ODUWUI
   107   116     1     0     0
SMALL
NO_CHARGES
****
Generated from the CSD

@<TRIPOS>ATOM
     1 Fe1     -1.3563  12.9499   5.1384   Fe        1 RES1   0.0000
     2 N1      -2.2033  13.7452   3.5173   N.2       1 RES1   0.0000
     3 N2      -2.1034  11.1579   4.6274   N.2       1 RES1   0.0000
     4 N3       0.3377  12.5129   4.0736   N.ar      1 RES1   0.0000
     5 C1      -2.1829  15.0754   3.1386   C.2       1 RES1   0.0000
     6 C2      -2.9528  15.2845   1.9300   C.2       1 RES1   0.0000
     7 C3      -3.4292  14.0666   1.5508   C.2       1 RES1   0.0000
     8 C4      -2.9585  13.1147   2.5528   C.2       1 RES1   0.0000
     9 C5      -3.2514  11.7588   2.5569   C.2       1 RES1   0.0000
    10 H1      -3.7742  11.4291   1.8355   H         1 RES1   0.0000
    11 C6      -2.8564  10.8437   3.5096   C.2       1 RES1   0.0000
    12 C7      -3.1212   9.4111   3.4623   C.2       1 RES1   0.0000
    13 C8      -2.5001   8.8641   4.5434   C.2       1 RES1   0.0000
    14 C9      -0.8332  15.9409   5.0120   C.2       1 RES1   0.0000
    15 C10     -1.5541  16.0848   3.8456   C.2       1 RES1   0.0000
    16 H2      -1.6243  16.9630   3.4921   H         1 RES1   0.0000
    17 C11     -3.1887  16.6108   1.2702   C.3       1 RES1   0.0000
    18 H3      -3.4026  17.2790   1.9691   H         1 RES1   0.0000
    19 H4      -3.9771  16.5345   0.6772   H         1 RES1   0.0000
    20 C12     -2.0060  17.1240   0.4481   C.3       1 RES1   0.0000
    21 H5      -2.2463  17.9756   0.0277   H         1 RES1   0.0000
    22 H6      -1.7817  16.4688  -0.2456   H         1 RES1   0.0000
    23 H7      -1.2322  17.2561   1.0349   H         1 RES1   0.0000
    24 C13     -4.2362  13.7315   0.3402   C.3       1 RES1   0.0000
    25 H8      -4.7831  14.5178   0.0884   H         1 RES1   0.0000
    26 H9      -4.8539  12.9893   0.5580   H         1 RES1   0.0000
    27 C14     -3.3636  13.3231  -0.8550   C.3       1 RES1   0.0000
    28 H10     -3.9363  13.1323  -1.6268   H         1 RES1   0.0000
    29 H11     -2.8468  12.5231  -0.6248   H         1 RES1   0.0000
    30 H12     -2.7496  14.0548  -1.0770   H         1 RES1   0.0000
    31 C15     -3.9097   8.7190   2.3894   C.3       1 RES1   0.0000
    32 H13     -4.6355   9.3203   2.0862   H         1 RES1   0.0000
    33 H14     -4.3309   7.9092   2.7737   H         1 RES1   0.0000
    34 C16     -3.0673   8.3143   1.1839   C.3       1 RES1   0.0000
    35 H15     -3.6372   7.8729   0.5210   H         1 RES1   0.0000
    36 H16     -2.3609   7.6985   1.4706   H         1 RES1   0.0000
    37 H17     -2.6618   9.1136   0.7862   H         1 RES1   0.0000
    38 C17     -2.3555   7.4164   4.9010   C.3       1 RES1   0.0000
    39 H18     -3.0846   6.8990   4.4756   H         1 RES1   0.0000
    40 H19     -2.4390   7.3111   5.8825   H         1 RES1   0.0000
    41 C18     -1.0075   6.8580   4.4468   C.3       1 RES1   0.0000
    42 H20     -0.9234   5.9276   4.7418   H         1 RES1   0.0000
    43 H21     -0.2843   7.3909   4.8384   H         1 RES1   0.0000
    44 H22     -0.9513   6.8968   3.4695   H         1 RES1   0.0000
    45 C19      1.5107  13.1633   4.2947   C.ar      1 RES1   0.0000
    46 H23      1.5287  13.8483   4.9524   H         1 RES1   0.0000
    47 C20      2.6772  12.8783   3.6123   C.ar      1 RES1   0.0000
    48 H24      3.4649  13.3795   3.7881   H         1 RES1   0.0000
    49 C21      2.6976  11.8634   2.6730   C.ar      1 RES1   0.0000
    50 H25      3.4934  11.6379   2.2064   H         1 RES1   0.0000
    51 C22      1.5121  11.1880   2.4418   C.ar      1 RES1   0.0000
    52 H26      1.4801  10.4844   1.8046   H         1 RES1   0.0000
    53 C23      0.3767  11.5408   3.1386   C.ar      1 RES1   0.0000
    54 H27     -0.4271  11.0716   2.9495   H         1 RES1   0.0000
    55 N1A     -0.5093  12.1546   6.7596   N.2       1 RES1   0.0000
    56 N2A     -0.6092  14.7419   5.6495   N.2       1 RES1   0.0000
    57 C1A     -0.5296  10.8244   7.1383   C.2       1 RES1   0.0000
    58 C2A      0.2402  10.6153   8.3469   C.2       1 RES1   0.0000
    59 C3A      0.7167  11.8331   8.7261   C.2       1 RES1   0.0000
    60 C4A      0.2459  12.7851   7.7241   C.2       1 RES1   0.0000
    61 C5A      0.5388  14.1410   7.7200   C.2       1 RES1   0.0000
    62 H1A      1.0616  14.4706   8.4414   H         1 RES1   0.0000
    63 C6A      0.1438  15.0561   6.7673   C.2       1 RES1   0.0000
    64 C7A      0.4086  16.4887   6.8146   C.2       1 RES1   0.0000
    65 C8A     -0.2124  17.0356   5.7335   C.2       1 RES1   0.0000
    66 C9A     -1.8794   9.9589   5.2648   C.2       1 RES1   0.0000
    67 C10A    -1.1585   9.8150   6.4313   C.2       1 RES1   0.0000
    68 H2A     -1.0883   8.9368   6.7848   H         1 RES1   0.0000
    69 C11A     0.4761   9.2890   9.0067   C.3       1 RES1   0.0000
    70 H3A      0.6901   8.6208   8.3078   H         1 RES1   0.0000
    71 H4A      1.2645   9.3653   9.5996   H         1 RES1   0.0000
    72 C12A    -0.7065   8.7758   9.8288   C.3       1 RES1   0.0000
    73 H5A     -0.4662   7.9242  10.2491   H         1 RES1   0.0000
    74 H6A     -0.9309   9.4310  10.5225   H         1 RES1   0.0000
    75 H7A     -1.4803   8.6437   9.2420   H         1 RES1   0.0000
    76 C13A     1.5236  12.1683   9.9367   C.3       1 RES1   0.0000
    77 H8A      2.0706  11.3820  10.1885   H         1 RES1   0.0000
    78 H9A      2.1414  12.9104   9.7189   H         1 RES1   0.0000
    79 C14A     0.6510  12.5767  11.1319   C.3       1 RES1   0.0000
    80 H10A     1.2237  12.7674  11.9037   H         1 RES1   0.0000
    81 H11A     0.1342  13.3767  10.9017   H         1 RES1   0.0000
    82 H12A     0.0371  11.8449  11.3539   H         1 RES1   0.0000
    83 C15A     1.1972  17.1808   7.8875   C.3       1 RES1   0.0000
    84 H13A     1.9230  16.5795   8.1907   H         1 RES1   0.0000
    85 H14A     1.6183  17.9906   7.5032   H         1 RES1   0.0000
    86 C16A     0.3547  17.5854   9.0930   C.3       1 RES1   0.0000
    87 H15A     0.9247  18.0268   9.7558   H         1 RES1   0.0000
    88 H16A    -0.3516  18.2013   8.8063   H         1 RES1   0.0000
    89 H17A    -0.0508  16.7862   9.4907   H         1 RES1   0.0000
    90 C17A    -0.3571  18.4833   5.3758   C.3       1 RES1   0.0000
    91 H18A     0.3720  19.0007   5.8013   H         1 RES1   0.0000
    92 H19A    -0.2736  18.5886   4.3944   H         1 RES1   0.0000
    93 C18A    -1.7051  19.0418   5.8301   C.3       1 RES1   0.0000
    94 H20A    -1.7892  19.9722   5.5351   H         1 RES1   0.0000
    95 H21A    -2.4283  18.5088   5.4385   H         1 RES1   0.0000
    96 H22A    -1.7613  19.0030   6.8074   H         1 RES1   0.0000
    97 N3A     -3.0502  13.3869   6.2033   N.ar      1 RES1   0.0000
    98 C19A    -4.2233  12.7365   5.9822   C.ar      1 RES1   0.0000
    99 H23A    -4.2413  12.0515   5.3245   H         1 RES1   0.0000
   100 C20A    -5.3897  13.0215   6.6646   C.ar      1 RES1   0.0000
   101 H24A    -6.1775  12.5202   6.4888   H         1 RES1   0.0000
   102 C21A    -5.4101  14.0363   7.6039   C.ar      1 RES1   0.0000
   103 H25A    -6.2060  14.2618   8.0704   H         1 RES1   0.0000
   104 C22A    -4.2247  14.7117   7.8351   C.ar      1 RES1   0.0000
   105 H26A    -4.1926  15.4153   8.4723   H         1 RES1   0.0000
   106 C23A    -3.0893  14.3590   7.1383   C.ar      1 RES1   0.0000
   107 H27A    -2.2854  14.8282   7.3274   H         1 RES1   0.0000
@<TRIPOS>BOND
     1     1     2    1
     2     2     5    1
     3     3     1    1
     4     4     1    1
     5     5     6    1
     6     6     7    2
     7     7     8    1
     8     8     2    1
     9     9     8    2
    10    10     9    1
    11    11     3    2
    12    12    11    1
    13    13    12    2
    14    14    15    1
    15    15     5    2
    16    16    15    1
    17    17     6    1
    18    18    17    1
    19    19    17    1
    20    20    17    1
    21    21    20    1
    22    22    20    1
    23    23    20    1
    24    24     7    1
    25    25    24    1
    26    26    24    1
    27    27    24    1
    28    28    27    1
    29    29    27    1
    30    30    27    1
    31    31    12    1
    32    32    31    1
    33    33    31    1
    34    34    31    1
    35    35    34    1
    36    36    34    1
    37    37    34    1
    38    38    13    1
    39    39    38    1
    40    40    38    1
    41    41    38    1
    42    42    41    1
    43    43    41    1
    44    44    41    1
    45    45     4   ar
    46    46    45    1
    47    47    45   ar
    48    48    47    1
    49    49    47   ar
    50    50    49    1
    51    51    49   ar
    52    52    51    1
    53    53     4   ar
    54    54    53    1
    55    55     1    1
    56    56     1    1
    57    57    55    1
    58    58    57    2
    59    59    58    1
    60    60    55    1
    61    61    60    1
    62    62    61    1
    63    63    56    1
    64    64    63    1
    65    65    14    1
    66    66     3    1
    67    67    57    1
    68    68    67    1
    69    69    58    1
    70    70    69    1
    71    71    69    1
    72    72    69    1
    73    73    72    1
    74    74    72    1
    75    75    72    1
    76    76    59    1
    77    77    76    1
    78    78    76    1
    79    79    76    1
    80    80    79    1
    81    81    79    1
    82    82    79    1
    83    83    64    1
    84    84    83    1
    85    85    83    1
    86    86    83    1
    87    87    86    1
    88    88    86    1
    89    89    86    1
    90    90    65    1
    91    91    90    1
    92    92    90    1
    93    93    90    1
    94    94    93    1
    95    95    93    1
    96    96    93    1
    97    97     1    1
    98    98    97   ar
    99    99    98    1
   100   100    98   ar
   101   101   100    1
   102   102   100   ar
   103   103   102    1
   104   104   102   ar
   105   105   104    1
   106   106    97   ar
   107   107   106    1
   108     9    11    1
   109    13    66    1
   110    14    56    2
   111    51    53   ar
   112    59    60    2
   113    61    63    2
   114    64    65    2
   115    66    67    2
   116   104   106   ar
@<TRIPOS>SUBSTRUCTURE
     1 RES1        1 GROUP             0 ****  ****    0  
@<TRIPOS>CRYSIN
    9.7866   10.1481   10.4491   99.3530   90.3400  114.1120     2     1
