@<TRIPOS>MOLECULE
OGACII
   114   116     2     0     0
SMALL
USER_CHARGES
****
Generated from the CSD

@<TRIPOS>ATOM
     1 Fe1      0.0000   0.0000   0.0000   Fe        1 RES1   2.0000
     2 P1       0.2580   0.5172   2.2398   P.3       1 RES1   0.0000
     3 N1      -1.8569  -0.3768   0.2713   N.1       1 RES1   0.0000
     4 N2       0.4958  -1.8204   0.3667   N.1       1 RES1   0.0000
     5 C1      -2.9832  -0.5259   0.3986   C.1       1 RES1   0.0000
     6 C2      -4.4144  -0.7106   0.5561   C.3       1 RES1   0.0000
     7 H1      -4.6027  -1.0448   1.4576   H         1 RES1   0.0000
     8 H2      -4.7348  -1.3580  -0.1059   H         1 RES1   0.0000
     9 H3      -4.8703   0.1462   0.4223   H         1 RES1   0.0000
    10 C3       0.8509  -2.8983   0.5307   C.1       1 RES1   0.0000
    11 C4       1.2889  -4.2762   0.7166   C.3       1 RES1   0.0000
    12 H4       0.8929  -4.6373   1.5368   H         1 RES1   0.0000
    13 H5       2.2661  -4.3017   0.7876   H         1 RES1   0.0000
    14 H6       1.0026  -4.8156  -0.0500   H         1 RES1   0.0000
    15 C5      -1.0895  -0.0057   3.3619   C.3       1 RES1   0.0000
    16 H7      -0.9185   0.3676   4.2624   H         1 RES1   0.0000
    17 H8      -1.9438   0.3759   3.0351   H         1 RES1   0.0000
    18 C6      -1.2403  -1.5224   3.4779   C.3       1 RES1   0.0000
    19 H9      -1.9772  -1.7324   4.0903   H         1 RES1   0.0000
    20 H10     -0.4084  -1.9077   3.8239   H         1 RES1   0.0000
    21 H11     -1.4327  -1.9008   2.5942   H         1 RES1   0.0000
    22 C7       1.7685  -0.2064   2.9664   C.3       1 RES1   0.0000
    23 H12      1.7160  -1.1909   2.8781   H         1 RES1   0.0000
    24 H13      2.5457   0.0976   2.4348   H         1 RES1   0.0000
    25 C8       2.0302   0.1304   4.4347   C.3       1 RES1   0.0000
    26 H14      2.8593  -0.3012   4.7266   H         1 RES1   0.0000
    27 H15      1.2835  -0.1910   4.9814   H         1 RES1   0.0000
    28 H16      2.1139   1.1023   4.5370   H         1 RES1   0.0000
    29 C9       0.4056   2.3037   2.6145   C.3       1 RES1   0.0000
    30 H17     -0.4018   2.7653   2.2743   H         1 RES1   0.0000
    31 H18      0.4242   2.4195   3.5970   H         1 RES1   0.0000
    32 C10      1.6416   2.9814   2.0199   C.3       1 RES1   0.0000
    33 H19      1.6436   3.9302   2.2650   H         1 RES1   0.0000
    34 H20      1.6227   2.8968   1.0435   H         1 RES1   0.0000
    35 H21      2.4496   2.5522   2.3697   H         1 RES1   0.0000
    36 P1A     -0.2580  -0.5172  -2.2398   P.3       1 RES1   0.0000
    37 C5A      1.0895   0.0057  -3.3619   C.3       1 RES1   0.0000
    38 H7A      0.9185  -0.3676  -4.2624   H         1 RES1   0.0000
    39 H8A      1.9438  -0.3759  -3.0351   H         1 RES1   0.0000
    40 C6A      1.2403   1.5224  -3.4779   C.3       1 RES1   0.0000
    41 H9A      1.9772   1.7324  -4.0903   H         1 RES1   0.0000
    42 H10A     0.4084   1.9077  -3.8239   H         1 RES1   0.0000
    43 H11A     1.4327   1.9008  -2.5942   H         1 RES1   0.0000
    44 C7A     -1.7685   0.2064  -2.9664   C.3       1 RES1   0.0000
    45 H12A    -1.7160   1.1909  -2.8781   H         1 RES1   0.0000
    46 H13A    -2.5457  -0.0976  -2.4348   H         1 RES1   0.0000
    47 C8A     -2.0302  -0.1304  -4.4347   C.3       1 RES1   0.0000
    48 H14A    -2.8593   0.3012  -4.7266   H         1 RES1   0.0000
    49 H15A    -1.2835   0.1910  -4.9814   H         1 RES1   0.0000
    50 H16A    -2.1139  -1.1023  -4.5370   H         1 RES1   0.0000
    51 C9A     -0.4056  -2.3037  -2.6145   C.3       1 RES1   0.0000
    52 H17A     0.4018  -2.7653  -2.2743   H         1 RES1   0.0000
    53 H18A    -0.4242  -2.4195  -3.5970   H         1 RES1   0.0000
    54 C10A    -1.6416  -2.9814  -2.0199   C.3       1 RES1   0.0000
    55 H19A    -1.6436  -3.9302  -2.2650   H         1 RES1   0.0000
    56 H20A    -1.6227  -2.8968  -1.0435   H         1 RES1   0.0000
    57 H21A    -2.4496  -2.5522  -2.3697   H         1 RES1   0.0000
    58 N1A      1.8569   0.3768  -0.2713   N.1       1 RES1   0.0000
    59 C1A      2.9832   0.5259  -0.3986   C.1       1 RES1   0.0000
    60 C2A      4.4144   0.7106  -0.5561   C.3       1 RES1   0.0000
    61 H1A      4.6027   1.0448  -1.4576   H         1 RES1   0.0000
    62 H2A      4.7348   1.3580   0.1059   H         1 RES1   0.0000
    63 H3A      4.8703  -0.1462  -0.4223   H         1 RES1   0.0000
    64 N2A     -0.4958   1.8204  -0.3667   N.1       1 RES1   0.0000
    65 C3A     -0.8509   2.8983  -0.5307   C.1       1 RES1   0.0000
    66 C4A     -1.2889   4.2762  -0.7166   C.3       1 RES1   0.0000
    67 H4A     -0.8929   4.6373  -1.5368   H         1 RES1   0.0000
    68 H5A     -2.2661   4.3017  -0.7876   H         1 RES1   0.0000
    69 H6A     -1.0026   4.8156   0.0500   H         1 RES1   0.0000
    70 B1      -0.3663  -7.3097  -3.0160   B         2 RES2  -1.0000
    71 C11     -0.4306  -7.2348  -1.3503   C.ar      2 RES2   0.0000
    72 C12     -1.4709  -6.6595  -0.5941   C.ar      2 RES2   0.0000
    73 H22     -2.1819  -6.2297  -1.0551   H         2 RES2   0.0000
    74 C13     -1.5048  -6.6920   0.8026   C.ar      2 RES2   0.0000
    75 H23     -2.2334  -6.2961   1.2657   H         2 RES2   0.0000
    76 C14     -0.4863  -7.2963   1.5158   C.ar      2 RES2   0.0000
    77 H24     -0.5177  -7.3427   2.4639   H         2 RES2   0.0000
    78 C15      0.5827  -7.8331   0.8168   C.ar      2 RES2   0.0000
    79 H25      1.3025  -8.2345   1.2890   H         2 RES2   0.0000
    80 C16      0.6073  -7.7870  -0.5722   C.ar      2 RES2   0.0000
    81 H26      1.3642  -8.1463  -1.0214   H         2 RES2   0.0000
    82 C17      1.1363  -6.7793  -3.4298   C.ar      2 RES2   0.0000
    83 C18      1.5180  -5.4603  -3.1069   C.ar      2 RES2   0.0000
    84 H27      0.9160  -4.9230  -2.6070   H         2 RES2   0.0000
    85 C19      2.7326  -4.9124  -3.4857   C.ar      2 RES2   0.0000
    86 H28      2.9362  -4.0113  -3.2655   H         2 RES2   0.0000
    87 C20      3.6557  -5.6842  -4.1897   C.ar      2 RES2   0.0000
    88 H29      4.4917  -5.3163  -4.4520   H         2 RES2   0.0000
    89 C21      3.3325  -6.9986  -4.5015   C.ar      2 RES2   0.0000
    90 H30      3.9540  -7.5421  -4.9721   H         2 RES2   0.0000
    91 C22      2.0998  -7.5195  -4.1250   C.ar      2 RES2   0.0000
    92 H31      1.9008  -8.4204  -4.3508   H         2 RES2   0.0000
    93 C23     -1.5322  -6.3749  -3.7150   C.ar      2 RES2   0.0000
    94 C24     -1.2687  -5.3838  -4.6811   C.ar      2 RES2   0.0000
    95 H32     -0.3681  -5.2301  -4.9406   H         2 RES2   0.0000
    96 C25     -2.2732  -4.6183  -5.2721   C.ar      2 RES2   0.0000
    97 H33     -2.0458  -3.9584  -5.9167   H         2 RES2   0.0000
    98 C26     -3.5952  -4.8114  -4.9283   C.ar      2 RES2   0.0000
    99 H34     -4.2791  -4.2788  -5.3176   H         2 RES2   0.0000
   100 C27     -3.9087  -5.7980  -4.0046   C.ar      2 RES2   0.0000
   101 H35     -4.8146  -5.9578  -3.7680   H         2 RES2   0.0000
   102 C28     -2.8930  -6.5541  -3.4254   C.ar      2 RES2   0.0000
   103 H36     -3.1348  -7.2281  -2.8001   H         2 RES2   0.0000
   104 C29     -0.6139  -8.8914  -3.4868   C.ar      2 RES2   0.0000
   105 C30     -1.6088  -9.2782  -4.3948   C.ar      2 RES2   0.0000
   106 H37     -2.1305  -8.6004  -4.8080   H         2 RES2   0.0000
   107 C31     -1.8710 -10.6118  -4.7229   C.ar      2 RES2   0.0000
   108 H38     -2.5754 -10.8208  -5.3245   H         2 RES2   0.0000
   109 C32     -1.1106 -11.6242  -4.1761   C.ar      2 RES2   0.0000
   110 H39     -1.2959 -12.5330  -4.3811   H         2 RES2   0.0000
   111 C33     -0.0735 -11.2933  -3.3261   C.ar      2 RES2   0.0000
   112 H40      0.4833 -11.9750  -2.9688   H         2 RES2   0.0000
   113 C34      0.1585  -9.9589  -2.9911   C.ar      2 RES2   0.0000
   114 H41      0.8723  -9.7608  -2.3976   H         2 RES2   0.0000
@<TRIPOS>BOND
     1     1     2    1
     2     2    15    1
     3     3     1    1
     4     4     1    1
     5     5     3    3
     6     6     5    1
     7     7     6    1
     8     8     6    1
     9     9     6    1
    10    10     4    3
    11    11    10    1
    12    12    11    1
    13    13    11    1
    14    14    11    1
    15    15    16    1
    16    17    15    1
    17    18    15    1
    18    19    18    1
    19    20    18    1
    20    21    18    1
    21    22     2    1
    22    23    22    1
    23    24    22    1
    24    25    22    1
    25    26    25    1
    26    27    25    1
    27    28    25    1
    28    29     2    1
    29    30    29    1
    30    31    29    1
    31    32    29    1
    32    33    32    1
    33    34    32    1
    34    35    32    1
    35    36     1    1
    36    37    36    1
    37    38    37    1
    38    39    37    1
    39    40    37    1
    40    41    40    1
    41    42    40    1
    42    43    40    1
    43    44    36    1
    44    45    44    1
    45    46    44    1
    46    47    44    1
    47    48    47    1
    48    49    47    1
    49    50    47    1
    50    51    36    1
    51    52    51    1
    52    53    51    1
    53    54    51    1
    54    55    54    1
    55    56    54    1
    56    57    54    1
    57    58     1    1
    58    59    58    3
    59    60    59    1
    60    61    60    1
    61    62    60    1
    62    63    60    1
    63    64     1    1
    64    65    64    3
    65    66    65    1
    66    67    66    1
    67    68    66    1
    68    69    66    1
    69    70    71    1
    70    71    72   ar
    71    72    73    1
    72    74    72   ar
    73    75    74    1
    74    76    74   ar
    75    77    76    1
    76    78    76   ar
    77    79    78    1
    78    80    71   ar
    79    81    80    1
    80    82    70    1
    81    83    82   ar
    82    84    83    1
    83    85    83   ar
    84    86    85    1
    85    87    85   ar
    86    88    87    1
    87    89    87   ar
    88    90    89    1
    89    91    82   ar
    90    92    91    1
    91    93    70    1
    92    94    93   ar
    93    95    94    1
    94    96    94   ar
    95    97    96    1
    96    98    96   ar
    97    99    98    1
    98   100    98   ar
    99   101   100    1
   100   102    93   ar
   101   103   102    1
   102   104    70    1
   103   105   104   ar
   104   106   105    1
   105   107   105   ar
   106   108   107    1
   107   109   107   ar
   108   110   109    1
   109   111   109   ar
   110   112   111    1
   111   113   104   ar
   112   114   113    1
   113    78    80   ar
   114    89    91   ar
   115   100   102   ar
   116   111   113   ar
@<TRIPOS>SUBSTRUCTURE
     1 RES1        1 GROUP             0 ****  ****    0  
     2 RES2       70 GROUP             0 ****  ****    0  
@<TRIPOS>CRYSIN
   12.0756   12.2070   13.4024   93.2090  114.5760  116.6450     2     1
