@<TRIPOS>MOLECULE
OHOPUX
   116   123     4     0     0
SMALL
USER_CHARGES
****
Generated from the CSD

@<TRIPOS>ATOM
     1 Fe1      7.0974  14.0779  17.8802   Fe        1 RES1   1.0000
     2 N1       0.6878  14.2636  18.3582   N.2       1 RES1   0.0000
     3 N2       4.8776  14.1201  18.0219   N.ar      1 RES1   0.0000
     4 N3      -4.1572  14.0195  17.7143   N.ar      1 RES1   0.0000
     5 N4       0.0326  14.1739  17.2961   N.2       1 RES1   0.0000
     6 C1      -1.3814  14.1401  17.5024   C.ar      1 RES1   0.0000
     7 C2       2.1058  14.2401  18.1581   C.ar      1 RES1   0.0000
     8 C3       2.7329  14.0636  16.9314   C.ar      1 RES1   0.0000
     9 H1       2.2423  13.9872  16.1457   H         1 RES1   0.0000
    10 C5       4.1101  14.0034  16.9220   C.ar      1 RES1   0.0000
    11 H3       4.5353  13.8740  16.1051   H         1 RES1   0.0000
    12 O1       7.1488  15.6505  18.9580   O.3       1 RES1   0.0000
    13 O2       7.0509  14.6739  16.0920   O.3       1 RES1   0.0000
    14 N5       7.3763  12.9540  19.6403   N.2       1 RES1   0.0000
    15 C8       4.2541  14.3062  19.2001   C.ar      1 RES1   0.0000
    16 H6       4.7683  14.3930  19.9708   H         1 RES1   0.0000
    17 N6       6.8275  12.1107  17.1789   N.2       1 RES1   0.0000
    18 C9       7.4148  13.3962  20.8501   C.2       1 RES1   0.0000
    19 H7       7.5787  12.7846  21.5328   H         1 RES1   0.0000
    20 C10      7.1803  15.0869  22.5943   C.ar      1 RES1   0.0000
    21 H8       7.3107  14.4047  23.2121   H         1 RES1   0.0000
    22 C12     -3.3950  14.4180  18.7480   C.ar      1 RES1   0.0000
    23 H10     -3.8154  14.6664  19.5380   H         1 RES1   0.0000
    24 C13     -2.0130  14.4753  18.6898   C.ar      1 RES1   0.0000
    25 H11     -1.5184  14.7326  19.4343   H         1 RES1   0.0000
    26 C14      7.6147  11.5232  19.3775   C.3       1 RES1   0.0000
    27 H12      7.4258  10.9998  20.1714   H         1 RES1   0.0000
    28 H13      8.5398  11.3776  19.1255   H         1 RES1   0.0000
    29 C16     -2.1499  13.7226  16.4306   C.ar      1 RES1   0.0000
    30 H15     -1.7467  13.4829  15.6272   H         1 RES1   0.0000
    31 C17     -3.5303  13.6638  16.5712   C.ar      1 RES1   0.0000
    32 H16     -4.0417  13.3683  15.8526   H         1 RES1   0.0000
    33 C19      6.9556  16.3718  23.0446   C.ar      1 RES1   0.0000
    34 H17      6.9541  16.5585  23.9559   H         1 RES1   0.0000
    35 C20      6.7318  17.3848  22.1128   C.ar      1 RES1   0.0000
    36 H18      6.5520  18.2478  22.4119   H         1 RES1   0.0000
    37 C27      7.2173  14.7870  21.2143   C.ar      1 RES1   0.0000
    38 C28      2.8792  14.3739  19.3079   C.ar      1 RES1   0.0000
    39 H23      2.4769  14.5047  20.1353   H         1 RES1   0.0000
    40 C30      7.0521  15.8381  20.2775   C.ar      1 RES1   0.0000
    41 C33      6.6954  11.1130  18.2505   C.3       1 RES1   0.0000
    42 H27      6.9410  10.2339  17.9219   H         1 RES1   0.0000
    43 H28      5.7772  11.0777  18.5643   H         1 RES1   0.0000
    44 C34      7.0803  14.0328  14.9244   C.ar      1 RES1   0.0000
    45 C35      6.8965  12.6358  14.8104   C.ar      1 RES1   0.0000
    46 C36      6.7750  11.7467  15.9543   C.2       1 RES1   0.0000
    47 H29      6.6484  10.8410  15.7828   H         1 RES1   0.0000
    48 C39      7.2918  14.7796  13.7519   C.ar      1 RES1   0.0000
    49 H31      7.4168  15.6985  13.8082   H         1 RES1   0.0000
    50 C41      6.7713  17.1319  20.7556   C.ar      1 RES1   0.0000
    51 H33      6.6120  17.8214  20.1534   H         1 RES1   0.0000
    52 C45      6.8767  12.0392  13.5373   C.ar      1 RES1   0.0000
    53 H37      6.7191  11.1262  13.4611   H         1 RES1   0.0000
    54 C46      7.3146  14.1577  12.5151   C.ar      1 RES1   0.0000
    55 H39      7.4833  14.6620  11.7526   H         1 RES1   0.0000
    56 C47      7.0891  12.7905  12.3999   C.ar      1 RES1   0.0000
    57 H40      7.0798  12.3862  11.5632   H         1 RES1   0.0000
    58 Fe1     -6.3924  14.0779  17.8802   Fe        1 RES1   1.0000
    59 N3       9.3326  14.0195  17.7143   N.3       1 RES1   0.0000
    60 C4       3.6011  13.9813  13.3806   C.ar      2 RES2   0.0000
    61 H2       4.3744  13.4697  13.3146   H         2 RES2   0.0000
    62 C6       1.2328  14.1989  13.3556   C.ar      2 RES2   0.0000
    63 H4       0.3846  13.8240  13.2898   H         2 RES2   0.0000
    64 C7       3.7177  15.3589  13.6193   C.ar      2 RES2   0.0000
    65 H5       4.5601  15.7411  13.7203   H         2 RES2   0.0000
    66 C11      3.2751  10.8998  15.3665   C.ar      2 RES2   0.0000
    67 H9       4.0963  10.9719  14.9353   H         2 RES2   0.0000
    68 C15      5.3920   9.6855  10.6968   C.ar      2 RES2   0.0000
    69 H14      6.0366   9.2488  10.1905   H         2 RES2   0.0000
    70 C18      3.4220  11.0316  12.2672   C.ar      2 RES2   0.0000
    71 C21      2.5883  16.1528  13.7066   C.ar      2 RES2   0.0000
    72 H19      2.6661  17.0672  13.8578   H         2 RES2   0.0000
    73 C22      2.1032  11.1821  14.6332   C.ar      2 RES2   0.0000
    74 B1       2.1890  11.7334  13.0824   B         2 RES2  -1.0000
    75 C23      4.0018  11.6041  11.1259   C.ar      2 RES2   0.0000
    76 H20      3.7377  12.4612  10.8802   H         2 RES2   0.0000
    77 C24      2.3551  13.3536  13.2393   C.ar      2 RES2   0.0000
    78 C25      4.8507   9.0798  11.8213   C.ar      2 RES2   0.0000
    79 H21      5.1381   8.2330  12.0749   H         2 RES2   0.0000
    80 C26      3.8794   9.7369  12.5730   C.ar      2 RES2   0.0000
    81 H22      3.5157   9.2988  13.3101   H         2 RES2   0.0000
    82 C29      3.2571  10.5220  16.7033   C.ar      2 RES2   0.0000
    83 H24      4.0537  10.3279  17.1420   H         2 RES2   0.0000
    84 C31      1.3396  15.5706  13.5653   C.ar      2 RES2   0.0000
    85 H25      0.5731  16.0954  13.6099   H         2 RES2   0.0000
    86 C32      4.9544  10.9498  10.3415   C.ar      2 RES2   0.0000
    87 H26      5.2954  11.3629   9.5819   H         2 RES2   0.0000
    88 C37      0.8800  11.3453  12.1655   C.ar      2 RES2   0.0000
    89 C38      0.5140  12.1113  11.0576   C.ar      2 RES2   0.0000
    90 H30      0.9562  12.9169  10.9118   H         2 RES2   0.0000
    91 C40      0.1742  10.1368  12.3262   C.ar      2 RES2   0.0000
    92 H32      0.3819   9.5870  13.0464   H         2 RES2   0.0000
    93 C42      0.9118  11.1042  15.3653   C.ar      2 RES2   0.0000
    94 H34      0.1076  11.3085  14.9443   H         2 RES2   0.0000
    95 C43      2.0625  10.4338  17.3759   C.ar      2 RES2   0.0000
    96 H35      2.0417  10.1780  18.2690   H         2 RES2   0.0000
    97 C44      0.8948  10.7308  16.7054   C.ar      2 RES2   0.0000
    98 H36      0.0833  10.6823  17.1555   H         2 RES2   0.0000
    99 C48     -1.1509  10.5338  10.3508   C.ar      2 RES2   0.0000
   100 H42     -1.8129  10.2677   9.7555   H         2 RES2   0.0000
   101 C49     -0.4817  11.7275  10.1596   C.ar      2 RES2   0.0000
   102 H43     -0.6929  12.2730   9.4354   H         2 RES2   0.0000
   103 C50     -0.8282   9.7355  11.4383   C.ar      2 RES2   0.0000
   104 H44     -1.2775   8.9342  11.5767   H         2 RES2   0.0000
   105 O3      11.3085  12.4891  13.3861   O.3       3 RES3   0.0000
   106 H38     11.5664  11.8937  12.8863   H         3 RES3   0.0000
   107 C51     10.8918  13.5976  12.6226   C.3       3 RES3   0.0000
   108 H45     10.2408  14.1019  13.1162   H         3 RES3   0.0000
   109 H46     10.5016  13.2918  11.7999   H         3 RES3   0.0000
   110 H47     11.6480  14.1563  12.4265   H         3 RES3   0.0000
   111 O4       6.4996  17.8288  17.1933   O.3       4 RES4   0.0000
   112 H41      6.7072  17.2480  17.7348   H         4 RES4   0.0000
   113 C52      5.2268  17.5627  16.6912   C.3       4 RES4   0.0000
   114 H48      4.6438  17.3142  17.4124   H         4 RES4   0.0000
   115 H49      5.2765  16.8423  16.0578   H         4 RES4   0.0000
   116 H50      4.8830  18.3463  16.2561   H         4 RES4   0.0000
@<TRIPOS>BOND
     1     1     3    1
     2     2     5    2
     3     3    10   ar
     4     4    22   ar
     5     5     6    1
     6     6    24   ar
     7     7     2    1
     8     8     7   ar
     9     9     8    1
    10    10     8   ar
    11    11    10    1
    12    12     1    1
    13    13     1    1
    14    14     1    1
    15    15     3   ar
    16    16    15    1
    17    17     1    1
    18    18    14    2
    19    19    18    1
    20    20    21    1
    21    22    23    1
    22    24    22   ar
    23    25    24    1
    24    26    14    1
    25    27    26    1
    26    28    26    1
    27    29     6   ar
    28    30    29    1
    29    31     4   ar
    30    32    31    1
    31    33    20   ar
    32    34    33    1
    33    35    33   ar
    34    36    35    1
    35    37    18    1
    36    38     7   ar
    37    39    38    1
    38    40    12    1
    39    41    17    1
    40    42    41    1
    41    43    41    1
    42    44    13    1
    43    45    44   ar
    44    46    17    2
    45    47    46    1
    46    48    44   ar
    47    49    48    1
    48    50    35   ar
    49    51    50    1
    50    52    45   ar
    51    53    52    1
    52    54    48   ar
    53    55    54    1
    54    56    52   ar
    55    57    56    1
    56    58     4   un
    57    59     1   un
    58    15    38   ar
    59    20    37   ar
    60    26    41    1
    61    29    31   ar
    62    37    40   ar
    63    40    50   ar
    64    45    46    1
    65    54    56   ar
    66    60    61    1
    67    62    63    1
    68    64    60   ar
    69    65    64    1
    70    66    67    1
    71    68    69    1
    72    70    74    1
    73    71    64   ar
    74    72    71    1
    75    73    66   ar
    76    74    73    1
    77    75    70   ar
    78    76    75    1
    79    77    60   ar
    80    78    68   ar
    81    79    78    1
    82    80    70   ar
    83    81    80    1
    84    82    66   ar
    85    83    82    1
    86    84    62   ar
    87    85    84    1
    88    86    68   ar
    89    87    86    1
    90    88    74    1
    91    89    88   ar
    92    90    89    1
    93    91    88   ar
    94    92    91    1
    95    93    73   ar
    96    94    93    1
    97    95    82   ar
    98    96    95    1
    99    97    93   ar
   100    98    97    1
   101    99   100    1
   102   101    89   ar
   103   102   101    1
   104   103    91   ar
   105   104   103    1
   106    62    77   ar
   107    71    84   ar
   108    74    77    1
   109    75    86   ar
   110    78    80   ar
   111    95    97   ar
   112    99   101   ar
   113    99   103   ar
   114   105   106    1
   115   107   105    1
   116   108   107    1
   117   109   107    1
   118   110   107    1
   119   111   112    1
   120   113   111    1
   121   114   113    1
   122   115   113    1
   123   116   113    1
@<TRIPOS>SUBSTRUCTURE
     1 RES1        1 GROUP             0 ****  ****    0  
     2 RES2       60 GROUP             0 ****  ****    0  
     3 RES3      105 GROUP             0 ****  ****    0  
     4 RES4      111 GROUP             0 ****  ****    0  
@<TRIPOS>CRYSIN
   13.4898   14.7017   22.7228   90.0000   97.2650   90.0000   231     1
