@<TRIPOS>MOLECULE
OHOQAE
   118   125     4     0     0
SMALL
USER_CHARGES
****
Generated from the CSD

@<TRIPOS>ATOM
     1 Fe1      7.3425  13.9924  17.8448   Fe        1 RES1   1.0000
     2 N1       5.1569  14.0292  18.0143   N.ar      1 RES1   0.0000
     3 N2      -4.2345  13.9634  17.6555   N.ar      1 RES1   0.0000
     4 C1       0.9041  14.3961  18.2272   C.2       1 RES1   0.0000
     5 H1       0.5616  14.7337  19.0232   H         1 RES1   0.0000
     6 C2       3.0282  14.1008  16.8915   C.ar      1 RES1   0.0000
     7 H2       2.5547  14.0643  16.0913   H         1 RES1   0.0000
     8 O1       7.4012  15.5672  18.9258   O.3       1 RES1   0.0000
     9 O2       7.2746  14.5754  16.0518   O.3       1 RES1   0.0000
    10 C3       7.2942  13.9342  14.8869   C.ar      1 RES1   0.0000
    11 C4       2.3587  14.2967  18.1137   C.ar      1 RES1   0.0000
    12 C5       4.5174  14.2455  19.1722   C.ar      1 RES1   0.0000
    13 H3       5.0224  14.3142  19.9517   H         1 RES1   0.0000
    14 C6       4.3836  13.9664  16.9003   C.ar      1 RES1   0.0000
    15 H4       4.8096  13.8216  16.0868   H         1 RES1   0.0000
    16 C7       7.6827  13.3188  20.8077   C.2       1 RES1   0.0000
    17 H5       7.8432  12.7064  21.4896   H         1 RES1   0.0000
    18 N3       7.6453  12.8733  19.6005   N.2       1 RES1   0.0000
    19 C8       7.8832  11.4523  19.3483   C.3       1 RES1   0.0000
    20 H6       7.6973  10.9348  20.1473   H         1 RES1   0.0000
    21 H7       8.8095  11.3076  19.0974   H         1 RES1   0.0000
    22 C9       6.9652  11.0225  18.2239   C.3       1 RES1   0.0000
    23 H8       7.2237  10.1470  17.8945   H         1 RES1   0.0000
    24 H9       6.0488  10.9743  18.5398   H         1 RES1   0.0000
    25 N4       7.0817  12.0228  17.1530   N.2       1 RES1   0.0000
    26 C10      7.5003  14.0467  12.4841   C.ar      1 RES1   0.0000
    27 H10      7.6546  14.5525  11.7183   H         1 RES1   0.0000
    28 C11     -1.4236  14.0497  17.4208   C.ar      1 RES1   0.0000
    29 C12      7.4439  15.0056  22.5537   C.ar      1 RES1   0.0000
    30 H11      7.5721  14.3259  23.1736   H         1 RES1   0.0000
    31 C15      7.0733  11.9361  13.5048   C.ar      1 RES1   0.0000
    32 H13      6.9116  11.0240  13.4316   H         1 RES1   0.0000
    33 C17     -2.2326  13.5922  16.3836   C.ar      1 RES1   0.0000
    34 H15     -1.8498  13.3057  15.5855   H         1 RES1   0.0000
    35 C21      7.5032  14.6577  13.7133   C.ar      1 RES1   0.0000
    36 H19      7.6484  15.5757  13.7643   H         1 RES1   0.0000
    37 C22      7.0276  17.0373  20.7267   C.ar      1 RES1   0.0000
    38 H20      6.8583  17.7273  20.1271   H         1 RES1   0.0000
    39 C23     -3.4533  14.3873  18.6619   C.ar      1 RES1   0.0000
    40 H21     -3.8638  14.6621  19.4503   H         1 RES1   0.0000
    41 C26      7.2705  12.6815  12.3717   C.ar      1 RES1   0.0000
    42 H24      7.2505  12.2767  11.5340   H         1 RES1   0.0000
    43 C27      3.1592  14.3698  19.2635   C.ar      1 RES1   0.0000
    44 H25      2.7615  14.5043  20.0934   H         1 RES1   0.0000
    45 C29      7.2122  16.2802  23.0005   C.ar      1 RES1   0.0000
    46 H26      7.2024  16.4644  23.9110   H         1 RES1   0.0000
    47 C30      7.0016  11.6584  15.9234   C.2       1 RES1   0.0000
    48 H27      6.8629  10.7550  15.7541   H         1 RES1   0.0000
    49 C31      7.1094  12.5368  14.7776   C.ar      1 RES1   0.0000
    50 C32     -3.5961  13.5659  16.5405   C.ar      1 RES1   0.0000
    51 H28     -4.1112  13.2545  15.8305   H         1 RES1   0.0000
    52 C33      6.9921  17.2931  22.0780   C.ar      1 RES1   0.0000
    53 H29      6.8185  18.1555  22.3777   H         1 RES1   0.0000
    54 C34      0.0329  14.0482  17.2922   C.2       1 RES1   0.0000
    55 H30      0.3824  13.7763  16.4735   H         1 RES1   0.0000
    56 C35      7.3126  15.7584  20.2400   C.ar      1 RES1   0.0000
    57 C43      7.4935  14.6987  21.1782   C.ar      1 RES1   0.0000
    58 C52     -2.0893  14.4356  18.5904   C.ar      1 RES1   0.0000
    59 H46     -1.5994  14.7279  19.3244   H         1 RES1   0.0000
    60 Fe1     -6.4286  13.9924  17.8448   Fe        1 RES1   1.0000
    61 N2       9.5366  13.9634  17.6555   N.3       1 RES1   0.0000
    62 C13      9.6108  10.3999  22.3262   C.ar      2 RES2   0.0000
    63 H12      9.3336   9.5535  22.0629   H         2 RES2   0.0000
    64 C14      6.4854  10.6366  23.3746   C.ar      2 RES2   0.0000
    65 C16     11.0194  12.3000  21.9399   C.ar      2 RES2   0.0000
    66 H14     11.6749  12.7327  21.4401   H         2 RES2   0.0000
    67 C18      9.5186  12.2401  23.8006   C.ar      2 RES2   0.0000
    68 H16      9.1698  12.6713  24.5473   H         2 RES2   0.0000
    69 C19     10.4912  12.8891  23.0551   C.ar      2 RES2   0.0000
    70 H17     10.7852  13.7325  23.3152   H         2 RES2   0.0000
    71 C20      6.1078   9.8576  22.2677   C.ar      2 RES2   0.0000
    72 H18      6.5521   9.0551  22.1169   H         2 RES2   0.0000
    73 C24      5.0964  10.2361  21.3850   C.ar      2 RES2   0.0000
    74 H22      4.8813   9.6866  20.6667   H         2 RES2   0.0000
    75 C25      4.4178  11.4143  21.5714   C.ar      2 RES2   0.0000
    76 H23      3.7447  11.6686  20.9815   H         2 RES2   0.0000
    77 C28      9.0404  10.9670  23.4823   C.ar      2 RES2   0.0000
    78 B1       7.7878  10.2581  24.2872   B         2 RES2  -1.0000
    79 C36      5.7612  11.8308  23.5178   C.ar      2 RES2   0.0000
    80 H31      5.9674  12.3936  24.2303   H         2 RES2   0.0000
    81 C37      6.8621   7.7893  24.5669   C.ar      2 RES2   0.0000
    82 H32      6.0083   8.1518  24.5001   H         2 RES2   0.0000
    83 C38      8.8659  11.0094  26.5845   C.ar      2 RES2   0.0000
    84 H33      9.6884  10.9173  26.1594   H         2 RES2   0.0000
    85 C39      7.9665   8.6429  24.4448   C.ar      2 RES2   0.0000
    86 C40      7.6985  10.7945  25.8383   C.ar      2 RES2   0.0000
    87 C41      9.2201   8.0246  24.5858   C.ar      2 RES2   0.0000
    88 H34      9.9867   8.5479  24.5226   H         2 RES2   0.0000
    89 C42      6.5055  10.9378  26.5510   C.ar      2 RES2   0.0000
    90 H35      5.6968  10.8091  26.1099   H         2 RES2   0.0000
    91 C44     10.5627  11.0488  21.5694   C.ar      2 RES2   0.0000
    92 H36     10.9001  10.6410  20.8038   H         2 RES2   0.0000
    93 C45      6.9896   6.4299  24.7816   C.ar      2 RES2   0.0000
    94 H37      6.2272   5.8993  24.8441   H         2 RES2   0.0000
    95 C46      4.7476  12.2123  22.6416   C.ar      2 RES2   0.0000
    96 H38      4.2908  13.0104  22.7824   H         2 RES2   0.0000
    97 C47      9.3579   6.6594  24.8176   C.ar      2 RES2   0.0000
    98 H39     10.2050   6.2896  24.9160   H         2 RES2   0.0000
    99 C48      8.2387   5.8496  24.9035   C.ar      2 RES2   0.0000
   100 H40      8.3250   4.9346  25.0397   H         2 RES2   0.0000
   101 C49      8.8488  11.3514  27.9311   C.ar      2 RES2   0.0000
   102 H41      9.6478  11.4976  28.3830   H         2 RES2   0.0000
   103 C50      6.4920  11.2681  27.9021   C.ar      2 RES2   0.0000
   104 H42      5.6782  11.3485  28.3448   H         2 RES2   0.0000
   105 C51      7.6568  11.4742  28.5918   C.ar      2 RES2   0.0000
   106 H43      7.6382  11.6949  29.4959   H         2 RES2   0.0000
   107 O3       3.3801   9.5141  24.5718   O.3       3 RES3   0.0000
   108 H44      3.6693  10.0871  24.0617   H         3 RES3   0.0000
   109 C53      2.9150   8.4193  23.8256   C.3       3 RES3   0.0000
   110 H47      3.6496   7.8361  23.6210   H         3 RES3   0.0000
   111 H48      2.5179   8.7321  23.0095   H         3 RES3   0.0000
   112 H49      2.2578   7.9398  24.3382   H         3 RES3   0.0000
   113 O4       6.7383  17.7156  17.1566   O.3       4 RES4   0.0000
   114 H45      7.0111  17.0534  17.5550   H         4 RES4   0.0000
   115 C54      5.4827  17.4495  16.6219   C.3       4 RES4   0.0000
   116 H50      4.8993  17.1367  17.3167   H         4 RES4   0.0000
   117 H51      5.5601  16.7757  15.9429   H         4 RES4   0.0000
   118 H52      5.1214  18.2520  16.2375   H         4 RES4   0.0000
@<TRIPOS>BOND
     1     1     2    1
     2     2    12   ar
     3     3    39   ar
     4     4     5    1
     5     6     7    1
     6     8     1    1
     7     9     1    1
     8    10     9    1
     9    11     4    1
    10    12    13    1
    11    14     2   ar
    12    15    14    1
    13    16    17    1
    14    18     1    1
    15    19    18    1
    16    20    19    1
    17    21    19    1
    18    22    19    1
    19    23    22    1
    20    24    22    1
    21    25     1    1
    22    26    27    1
    23    28    33   ar
    24    29    30    1
    25    31    32    1
    26    33    34    1
    27    35    10   ar
    28    36    35    1
    29    37    38    1
    30    39    40    1
    31    41    26   ar
    32    42    41    1
    33    43    11   ar
    34    44    43    1
    35    45    29   ar
    36    46    45    1
    37    47    25    2
    38    48    47    1
    39    49    10   ar
    40    50     3   ar
    41    51    50    1
    42    52    37   ar
    43    53    52    1
    44    54     4    2
    45    55    54    1
    46    56     8    1
    47    57    16    1
    48    58    28   ar
    49    59    58    1
    50    60     3   un
    51    61     1   un
    52     6    11   ar
    53     6    14   ar
    54    12    43   ar
    55    16    18    2
    56    22    25    1
    57    26    35   ar
    58    28    54    1
    59    29    57   ar
    60    31    41   ar
    61    31    49   ar
    62    33    50   ar
    63    37    56   ar
    64    39    58   ar
    65    45    52   ar
    66    47    49    1
    67    56    57   ar
    68    62    63    1
    69    64    71   ar
    70    65    66    1
    71    67    68    1
    72    69    65   ar
    73    70    69    1
    74    71    72    1
    75    73    71   ar
    76    74    73    1
    77    75    73   ar
    78    76    75    1
    79    77    62   ar
    80    78    64    1
    81    79    64   ar
    82    80    79    1
    83    81    82    1
    84    83    84    1
    85    85    78    1
    86    86    78    1
    87    87    85   ar
    88    88    87    1
    89    89    86   ar
    90    90    89    1
    91    91    62   ar
    92    92    91    1
    93    93    81   ar
    94    94    93    1
    95    95    75   ar
    96    96    95    1
    97    97    87   ar
    98    98    97    1
    99    99    93   ar
   100   100    99    1
   101   101    83   ar
   102   102   101    1
   103   103    89   ar
   104   104   103    1
   105   105   101   ar
   106   106   105    1
   107    65    91   ar
   108    67    69   ar
   109    67    77   ar
   110    77    78    1
   111    79    95   ar
   112    81    85   ar
   113    83    86   ar
   114    97    99   ar
   115   103   105   ar
   116   107   108    1
   117   109   107    1
   118   110   109    1
   119   111   109    1
   120   112   109    1
   121   113   114    1
   122   115   113    1
   123   116   115    1
   124   117   115    1
   125   118   115    1
@<TRIPOS>SUBSTRUCTURE
     1 RES1        1 GROUP             0 ****  ****    0  
     2 RES2       62 GROUP             0 ****  ****    0  
     3 RES3      107 GROUP             0 ****  ****    0  
     4 RES4      113 GROUP             0 ****  ****    0  
@<TRIPOS>CRYSIN
   13.7711   14.6168   22.6560   90.0000   97.0780   90.0000   231     1
