@<TRIPOS>MOLECULE
OHOQEI
   120   127     4     0     0
SMALL
USER_CHARGES
****
Generated from the CSD

@<TRIPOS>ATOM
     1 Fe1      7.4564   6.7159  17.8249   Fe        1 RES1   1.0000
     2 N1       5.2681   6.7683  18.0051   N.ar      1 RES1   0.0000
     3 N2      -4.1034   6.6978  17.6158   N.ar      1 RES1   0.0000
     4 O1       7.5202   8.3089  18.8909   O.3       1 RES1   0.0000
     5 N3       7.7687   5.6143  19.5968   N.2       1 RES1   0.0000
     6 C2       7.3871   6.6302  14.8796   C.ar      1 RES1   0.0000
     7 C4       3.1237   6.9330  16.9373   C.ar      1 RES1   0.0000
     8 H3       2.6364   6.9389  16.1444   H         1 RES1   0.0000
     9 O2       7.3725   7.2852  16.0290   O.3       1 RES1   0.0000
    10 C7       4.4858   6.7639  16.9090   C.ar      1 RES1   0.0000
    11 H6       4.8936   6.6375  16.0814   H         1 RES1   0.0000
    12 C8       2.4768   7.0962  18.1560   C.ar      1 RES1   0.0000
    13 C9       4.6395   6.9359  19.1844   C.ar      1 RES1   0.0000
    14 H7       5.1507   6.9448  19.9607   H         1 RES1   0.0000
    15 C10      8.0168   4.1957  19.3424   C.3       1 RES1   0.0000
    16 H8       7.8483   3.6767  20.1451   H         1 RES1   0.0000
    17 H9       8.9400   4.0604  19.0769   H         1 RES1   0.0000
    18 C13      7.0762   3.7590  18.2234   C.3       1 RES1   0.0000
    19 H11      7.3269   2.8799  17.8985   H         1 RES1   0.0000
    20 H12      6.1637   3.7179  18.5506   H         1 RES1   0.0000
    21 N4       7.1835   4.7425  17.1523   N.2       1 RES1   0.0000
    22 C14      7.6032   6.7286  12.4743   C.ar      1 RES1   0.0000
    23 H13      7.7705   7.2241  11.7052   H         1 RES1   0.0000
    24 C15      7.8494   6.0745  20.7788   C.2       1 RES1   0.0000
    25 H14      8.0582   5.4732  21.4584   H         1 RES1   0.0000
    26 C16      7.6272   7.7798  22.5221   C.ar      1 RES1   0.0000
    27 H15      7.7860   7.1094  23.1473   H         1 RES1   0.0000
    28 C19      7.6044   7.3593  13.6898   C.ar      1 RES1   0.0000
    29 H17      7.7522   8.2767  13.7314   H         1 RES1   0.0000
    30 C22      7.6422   7.4681  21.1552   C.ar      1 RES1   0.0000
    31 C23      7.0921   4.3647  15.9204   C.2       1 RES1   0.0000
    32 H20      6.9445   3.4606  15.7576   H         1 RES1   0.0000
    33 C24      0.1698   6.9653  17.0664   C.3       1 RES1   0.0000
    34 H21      0.3539   7.6239  16.3783   H         1 RES1   0.0000
    35 H22      0.4674   6.1053  16.7291   H         1 RES1   0.0000
    36 C26      7.1685   4.6411  13.5103   C.ar      1 RES1   0.0000
    37 H24      7.0167   3.7267  13.4435   H         1 RES1   0.0000
    38 C27      7.1990   5.2365  14.7816   C.ar      1 RES1   0.0000
    39 C29      3.2913   7.0947  19.2950   C.ar      1 RES1   0.0000
    40 H25      2.9069   7.2050  20.1338   H         1 RES1   0.0000
    41 C30      0.9989   7.3108  18.2943   C.3       1 RES1   0.0000
    42 H26      0.8441   8.2414  18.5147   H         1 RES1   0.0000
    43 H27      0.6804   6.7772  19.0386   H         1 RES1   0.0000
    44 C34      7.3571   5.3717  12.3663   C.ar      1 RES1   0.0000
    45 H30      7.3216   4.9631  11.5320   H         1 RES1   0.0000
    46 C36      7.4441   8.5119  20.2038   C.ar      1 RES1   0.0000
    47 C37     -1.3130   6.9006  17.2710   C.ar      1 RES1   0.0000
    48 C38      7.1530   9.7982  20.6758   C.ar      1 RES1   0.0000
    49 H32      6.9682  10.4818  20.0731   H         1 RES1   0.0000
    50 C39      7.3817   9.0632  22.9561   C.ar      1 RES1   0.0000
    51 H33      7.3812   9.2602  23.8646   H         1 RES1   0.0000
    52 C40      7.1395  10.0540  22.0296   C.ar      1 RES1   0.0000
    53 H34      6.9622  10.9170  22.3264   H         1 RES1   0.0000
    54 C41     -3.4852   6.2288  16.5154   C.ar      1 RES1   0.0000
    55 H35     -4.0049   5.8436  15.8475   H         1 RES1   0.0000
    56 C42     -2.1258   6.2920  16.3310   C.ar      1 RES1   0.0000
    57 H36     -1.7472   5.9201  15.5664   H         1 RES1   0.0000
    58 C48     -1.9468   7.3608  18.4112   C.ar      1 RES1   0.0000
    59 H42     -1.4495   7.7474  19.0949   H         1 RES1   0.0000
    60 C52     -3.3223   7.2476  18.5326   C.ar      1 RES1   0.0000
    61 H46     -3.7212   7.5754  19.3062   H         1 RES1   0.0000
    62 Fe1     -6.2964   6.7159  17.8249   Fe        1 RES1   1.0000
    63 N2       9.6494   6.6978  17.6158   N.3       1 RES1   0.0000
    64 C1       3.8225   6.6360  13.3311   C.ar      2 RES2   0.0000
    65 H1       4.5879   6.1112  13.2659   H         2 RES2   0.0000
    66 C3       3.9679   7.9915  13.5605   C.ar      2 RES2   0.0000
    67 H2       4.8185   8.3546  13.6504   H         2 RES2   0.0000
    68 C5       1.4638   6.8815  13.3205   C.ar      2 RES2   0.0000
    69 H4       0.6067   6.5228  13.2636   H         2 RES2   0.0000
    70 C6       2.8591   8.8132  13.6592   C.ar      2 RES2   0.0000
    71 H5       2.9571   9.7247  13.8101   H         2 RES2   0.0000
    72 C11      2.5694   6.0156  13.1910   C.ar      2 RES2   0.0000
    73 C12      1.6017   8.2531  13.5312   C.ar      2 RES2   0.0000
    74 H10      0.8473   8.7927  13.5852   H         2 RES2   0.0000
    75 C17      1.0724   3.7032  15.2786   C.ar      2 RES2   0.0000
    76 H16      0.2698   3.8120  14.8221   H         2 RES2   0.0000
    77 C18      2.2750   3.8722  14.5956   C.ar      2 RES2   0.0000
    78 C20      3.4296   3.7164  15.3505   C.ar      2 RES2   0.0000
    79 H18      4.2497   3.8340  14.9300   H         2 RES2   0.0000
    80 C21      3.4251   3.3945  16.6976   C.ar      2 RES2   0.0000
    81 H19      4.2259   3.2916  17.1586   H         2 RES2   0.0000
    82 C25      4.2063   4.2442  11.0823   C.ar      2 RES2   0.0000
    83 H23      3.9493   5.0983  10.8191   H         2 RES2   0.0000
    84 C28      3.6222   3.6870  12.2325   C.ar      2 RES2   0.0000
    85 C31      1.0716   4.0457  12.0974   C.ar      2 RES2   0.0000
    86 C32      1.0559   3.3709  16.6346   C.ar      2 RES2   0.0000
    87 H28      0.2402   3.2460  17.0642   H         2 RES2   0.0000
    88 C33      0.3728   2.8211  12.2292   C.ar      2 RES2   0.0000
    89 H29      0.5929   2.2522  12.9308   H         2 RES2   0.0000
    90 C35      4.0718   2.4095  12.5552   C.ar      2 RES2   0.0000
    91 H31      3.7065   1.9876  13.2996   H         2 RES2   0.0000
    92 C43      5.5726   2.3213  10.6955   C.ar      2 RES2   0.0000
    93 H37      6.2165   1.8744  10.1940   H         2 RES2   0.0000
    94 C44      5.0383   1.7303  11.8199   C.ar      2 RES2   0.0000
    95 H38      5.3226   0.8850  12.0852   H         2 RES2   0.0000
    96 C45     -0.9777   3.2607  10.3019   C.ar      2 RES2   0.0000
    97 H39     -1.6523   3.0064   9.7127   H         2 RES2   0.0000
    98 C46      5.1540   3.5679  10.3199   C.ar      2 RES2   0.0000
    99 H40      5.5036   3.9649   9.5553   H         2 RES2   0.0000
   100 C47     -0.3198   4.4632  10.1310   C.ar      2 RES2   0.0000
   101 H41     -0.5548   5.0233   9.4271   H         2 RES2   0.0000
   102 C49      2.2250   3.2269  17.3475   C.ar      2 RES2   0.0000
   103 H43      2.2028   3.0196  18.2538   H         2 RES2   0.0000
   104 C50     -0.6241   2.4448  11.3476   C.ar      2 RES2   0.0000
   105 H44     -1.0596   1.6303  11.4623   H         2 RES2   0.0000
   106 C51      0.6936   4.8410  11.0125   C.ar      2 RES2   0.0000
   107 H45      1.1333   5.6496  10.8731   H         2 RES2   0.0000
   108 B1       2.3787   4.4118  13.0320   B         2 RES2  -1.0000
   109 O3      -2.0222   5.1159  13.2821   O.3       3 RES3   0.0000
   110 H47     -1.6334   4.6132  12.7621   H         3 RES3   0.0000
   111 C53     -2.4782   6.2479  12.5867   C.3       3 RES3   0.0000
   112 H49     -3.2088   6.6463  13.0657   H         3 RES3   0.0000
   113 H50     -2.7743   5.9892  11.7097   H         3 RES3   0.0000
   114 H51     -1.7633   6.8845  12.5058   H         3 RES3   0.0000
   115 O4       6.9287  10.4451  17.1312   O.3       4 RES4   0.0000
   116 H48      7.0467   9.9687  17.7883   H         4 RES4   0.0000
   117 C54      5.6632  10.1981  16.5986   C.3       4 RES4   0.0000
   118 H52      5.0855   9.8644  17.2890   H         4 RES4   0.0000
   119 H53      5.7333   9.5468  15.8970   H         4 RES4   0.0000
   120 H54      5.3010  11.0125  16.2456   H         4 RES4   0.0000
@<TRIPOS>BOND
     1     1     2    1
     2     2    10   ar
     3     3    54   ar
     4     4     1    1
     5     5     1    1
     6     6     9    1
     7     7     8    1
     8     9     1    1
     9    10     7   ar
    10    11    10    1
    11    12     7   ar
    12    13     2   ar
    13    14    13    1
    14    15     5    1
    15    16    15    1
    16    17    15    1
    17    18    15    1
    18    19    18    1
    19    20    18    1
    20    21     1    1
    21    22    23    1
    22    24     5    2
    23    25    24    1
    24    26    27    1
    25    28     6   ar
    26    29    28    1
    27    30    24    1
    28    31    21    2
    29    32    31    1
    30    33    34    1
    31    35    33    1
    32    36    37    1
    33    38     6   ar
    34    39    12   ar
    35    40    39    1
    36    41    12    1
    37    42    41    1
    38    43    41    1
    39    44    22   ar
    40    45    44    1
    41    46     4    1
    42    47    33    1
    43    48    46   ar
    44    49    48    1
    45    50    26   ar
    46    51    50    1
    47    52    48   ar
    48    53    52    1
    49    54    55    1
    50    56    47   ar
    51    57    56    1
    52    58    47   ar
    53    59    58    1
    54    60     3   ar
    55    61    60    1
    56    62     3   un
    57    63     1   un
    58    13    39   ar
    59    18    21    1
    60    22    28   ar
    61    26    30   ar
    62    30    46   ar
    63    31    38    1
    64    33    41    1
    65    36    38   ar
    66    36    44   ar
    67    50    52   ar
    68    54    56   ar
    69    58    60   ar
    70    64    65    1
    71    66    64   ar
    72    67    66    1
    73    68    69    1
    74    70    66   ar
    75    71    70    1
    76    72    64   ar
    77    73    68   ar
    78    74    73    1
    79    75    76    1
    80    77    75   ar
    81    78    77   ar
    82    79    78    1
    83    80    78   ar
    84    81    80    1
    85    82    83    1
    86    84    82   ar
    87    85    88   ar
    88    86    75   ar
    89    87    86    1
    90    88    89    1
    91    90    84   ar
    92    91    90    1
    93    92    93    1
    94    94    90   ar
    95    95    94    1
    96    96    97    1
    97    98    82   ar
    98    99    98    1
    99   100    96   ar
   100   101   100    1
   101   102    80   ar
   102   103   102    1
   103   104    88   ar
   104   105   104    1
   105   106    85   ar
   106   107   106    1
   107   108    72    1
   108    68    72   ar
   109    70    73   ar
   110    77   108    1
   111    84   108    1
   112    85   108    1
   113    86   102   ar
   114    92    94   ar
   115    92    98   ar
   116    96   104   ar
   117   100   106   ar
   118   109   110    1
   119   111   109    1
   120   112   111    1
   121   113   111    1
   122   114   111    1
   123   115   116    1
   124   117   115    1
   125   118   117    1
   126   119   117    1
   127   120   117    1
@<TRIPOS>SUBSTRUCTURE
     1 RES1        1 GROUP             0 ****  ****    0  
     2 RES2       64 GROUP             0 ****  ****    0  
     3 RES3      109 GROUP             0 ****  ****    0  
     4 RES4      115 GROUP             0 ****  ****    0  
@<TRIPOS>CRYSIN
   13.7528   14.7010   22.6381   90.0000   96.5940   90.0000   231     1
