@<TRIPOS>MOLECULE
OHOQIM
   114   123     2     0     0
SMALL
USER_CHARGES
****
Generated from the CSD

@<TRIPOS>ATOM
     1 Fe1      0.7572  -0.9385   9.1851   Fe        1 RES1   1.0000
     2 N1      -2.6814  -7.2174   8.5340   N.2       1 RES1   0.0000
     3 C1       3.7459  -2.5430   9.3921   C.ar      1 RES1   0.0000
     4 C2      -1.7077  -4.5936   8.4956   C.ar      1 RES1   0.0000
     5 H1      -2.4748  -4.7745   7.9646   H         1 RES1   0.0000
     6 C3      -6.4254 -10.0970   9.0135   C.ar      1 RES1   0.0000
     7 H2      -6.9928  -9.3399   9.0997   H         1 RES1   0.0000
     8 O1       2.0489  -1.6149   7.9548   O.3       1 RES1   0.0000
     9 N2      -6.2072 -12.4844   9.0500   N.ar      1 RES1   0.0000
    10 O2      -0.7293  -0.2809   8.2198   O.3       1 RES1   0.0000
    11 N3      -0.0886  -2.9903   9.2572   N.ar      1 RES1   0.0000
    12 C8      -1.1256  -5.6033   9.2536   C.ar      1 RES1   0.0000
    13 C9      -4.4867  -8.5728   8.6228   C.2       1 RES1   0.0000
    14 C10     -0.0020  -5.2648  10.0106   C.ar      1 RES1   0.0000
    15 H7       0.4290  -5.9206  10.5464   H         1 RES1   0.0000
    16 N4       2.1624  -1.2801  10.7245   N.2       1 RES1   0.0000
    17 N5      -3.1983  -8.5143   8.6294   N.2       1 RES1   0.0000
    18 C12     -1.1602  -3.3195   8.5209   C.ar      1 RES1   0.0000
    19 H9      -1.5654  -2.6452   7.9895   H         1 RES1   0.0000
    20 C13     -4.8933 -12.3193   8.8034   C.ar      1 RES1   0.0000
    21 H10     -4.3494 -13.0938   8.7246   H         1 RES1   0.0000
    22 C15     -5.0779  -9.9319   8.7509   C.ar      1 RES1   0.0000
    23 C17     -5.3974  -7.3977   8.5480   C.3       1 RES1   0.0000
    24 H12     -4.8665  -6.5780   8.4667   H         1 RES1   0.0000
    25 H13     -5.9429  -7.3544   9.3603   H         1 RES1   0.0000
    26 H14     -5.9809  -7.4865   7.7660   H         1 RES1   0.0000
    27 C19      3.2751  -1.9175  10.6030   C.2       1 RES1   0.0000
    28 H15      3.8289  -1.9815  11.3725   H         1 RES1   0.0000
    29 C20     -1.0769  -7.9639  10.2568   C.3       1 RES1   0.0000
    30 H16     -1.5370  -8.8253  10.1782   H         1 RES1   0.0000
    31 H17     -1.1705  -7.6250  11.1712   H         1 RES1   0.0000
    32 H18     -0.1263  -8.0808  10.0472   H         1 RES1   0.0000
    33 C21     -4.2974 -11.0892   8.6596   C.ar      1 RES1   0.0000
    34 H19     -3.3630 -11.0259   8.4998   H         1 RES1   0.0000
    35 C22      0.4770  -3.9775   9.9743   C.ar      1 RES1   0.0000
    36 H20      1.2516  -3.7725  10.4844   H         1 RES1   0.0000
    37 C23     -1.6826  -6.9831   9.2959   C.2       1 RES1   0.0000
    38 N6      -0.3643  -0.5864  10.9504   N.2       1 RES1   0.0000
    39 C26     -2.3409   0.3272   9.8988   C.ar      1 RES1   0.0000
    40 C27     -6.9421 -11.3772   9.1511   C.ar      1 RES1   0.0000
    41 H22     -7.8706 -11.4697   9.3272   H         1 RES1   0.0000
    42 C28      1.7763  -0.7301  12.0202   C.3       1 RES1   0.0000
    43 H23      1.9421   0.2460  12.0442   H         1 RES1   0.0000
    44 H24      2.2984  -1.1566  12.7448   H         1 RES1   0.0000
    45 C30      3.1112  -2.3885   8.1387   C.ar      1 RES1   0.0000
    46 C32     -1.8777   0.2865   8.5617   C.ar      1 RES1   0.0000
    47 C35      3.6568  -3.0608   7.0378   C.ar      1 RES1   0.0000
    48 H29      3.2467  -2.9763   6.1841   H         1 RES1   0.0000
    49 C38     -2.6785   0.8725   7.5714   C.ar      1 RES1   0.0000
    50 H31     -2.3808   0.8742   6.6696   H         1 RES1   0.0000
    51 C40     -1.5633  -0.1413  11.0232   C.2       1 RES1   0.0000
    52 H33     -1.9716  -0.1165  11.8801   H         1 RES1   0.0000
    53 C41     -3.8993   1.4498   7.8904   C.ar      1 RES1   0.0000
    54 H34     -4.4173   1.8552   7.2047   H         1 RES1   0.0000
    55 C42     -3.5972   0.8886  10.1829   C.ar      1 RES1   0.0000
    56 H35     -3.9162   0.8835  11.0774   H         1 RES1   0.0000
    57 C43      0.3041  -1.0172  12.1918   C.3       1 RES1   0.0000
    58 H36      0.1582  -1.9854  12.3435   H         1 RES1   0.0000
    59 H37     -0.0560  -0.5191  12.9682   H         1 RES1   0.0000
    60 C46     -4.3761   1.4457   9.1932   C.ar      1 RES1   0.0000
    61 H40     -5.2242   1.8211   9.3990   H         1 RES1   0.0000
    62 C49      4.9039  -3.3452   9.5024   C.ar      1 RES1   0.0000
    63 H43      5.3300  -3.4409  10.3451   H         1 RES1   0.0000
    64 C50      5.4182  -3.9850   8.4060   C.ar      1 RES1   0.0000
    65 H44      6.1993  -4.5190   8.4873   H         1 RES1   0.0000
    66 C51      4.7916  -3.8483   7.1799   C.ar      1 RES1   0.0000
    67 H45      5.1436  -4.3030   6.4227   H         1 RES1   0.0000
    68 Fe1     -7.1298 -14.4772   9.1851   Fe        1 RES1   1.0000
    69 N2       1.6798   1.0542   9.0500   N.3       1 RES1   0.0000
    70 C4       2.1540  -9.4382   9.5519   C.ar      2 RES2   0.0000
    71 H3       1.7441 -10.1985   9.1562   H         2 RES2   0.0000
    72 C5       1.7828  -6.8365  16.1701   C.ar      2 RES2   0.0000
    73 H4       1.9286  -6.7693  17.1071   H         2 RES2   0.0000
    74 B1       3.7042  -8.3759  13.0729   B         2 RES2  -1.0000
    75 C6       2.5949  -9.5012  10.8718   C.ar      2 RES2   0.0000
    76 H5       2.4831 -10.3120  11.3532   H         2 RES2   0.0000
    77 C7       2.8867  -7.1748   9.4054   C.ar      2 RES2   0.0000
    78 H6       2.9895  -6.3676   8.9149   H         2 RES2   0.0000
    79 C11      2.7088  -7.4927  15.3757   C.ar      2 RES2   0.0000
    80 H8       3.4742  -7.8766  15.7886   H         2 RES2   0.0000
    81 C14      0.6502  -6.2804  15.6134   C.ar      2 RES2   0.0000
    82 H11      0.0190  -5.8221  16.1568   H         2 RES2   0.0000
    83 C16      3.9081  -9.8737  13.7334   C.ar      2 RES2   0.0000
    84 C18      2.5621  -7.6129  13.9815   C.ar      2 RES2   0.0000
    85 C24      2.3064  -8.2764   8.8109   C.ar      2 RES2   0.0000
    86 H21      2.0150  -8.2397   7.9067   H         2 RES2   0.0000
    87 C25      3.1990  -8.4116  11.5151   C.ar      2 RES2   0.0000
    88 C29      1.3931  -7.0488  13.4636   C.ar      2 RES2   0.0000
    89 H25      1.2353  -7.1090  12.5283   H         2 RES2   0.0000
    90 C31      5.1402 -10.3633  14.1594   C.ar      2 RES2   0.0000
    91 H26      5.9146  -9.8357  14.0054   H         2 RES2   0.0000
    92 C33      3.3237  -7.2502  10.7289   C.ar      2 RES2   0.0000
    93 H27      3.7252  -6.4816  11.1174   H         2 RES2   0.0000
    94 C34      2.8222 -10.7211  13.9928   C.ar      2 RES2   0.0000
    95 H28      1.9535 -10.4418  13.7254   H         2 RES2   0.0000
    96 C36      0.4511  -6.4028  14.2577   C.ar      2 RES2   0.0000
    97 H30     -0.3339  -6.0430  13.8605   H         2 RES2   0.0000
    98 C37      5.1417  -7.5686  13.0621   C.ar      2 RES2   0.0000
    99 C39      6.1692  -8.0446  12.2380   C.ar      2 RES2   0.0000
   100 H32      6.0190  -8.8344  11.7339   H         2 RES2   0.0000
   101 C44      5.4312  -6.4062  13.7655   C.ar      2 RES2   0.0000
   102 H38      4.7664  -6.0397  14.3363   H         2 RES2   0.0000
   103 C45      2.9594 -11.9528  14.6254   C.ar      2 RES2   0.0000
   104 H39      2.1947 -12.4978  14.7749   H         2 RES2   0.0000
   105 C47      4.1989 -12.3829  15.0341   C.ar      2 RES2   0.0000
   106 H41      4.2975 -13.2189  15.4742   H         2 RES2   0.0000
   107 C48      5.2904 -11.5870  14.7997   C.ar      2 RES2   0.0000
   108 H42      6.1529 -11.8744  15.0756   H         2 RES2   0.0000
   109 C52      7.3992  -7.4093  12.1256   C.ar      2 RES2   0.0000
   110 H46      8.0667  -7.7684  11.5532   H         2 RES2   0.0000
   111 C53      6.6668  -5.7530  13.6647   C.ar      2 RES2   0.0000
   112 H47      6.8254  -4.9602  14.1640   H         2 RES2   0.0000
   113 C54      7.6553  -6.2592  12.8441   C.ar      2 RES2   0.0000
   114 H48      8.4970  -5.8242  12.7751   H         2 RES2   0.0000
@<TRIPOS>BOND
     1     1     8    1
     2     2    17    1
     3     3    27    1
     4     4     5    1
     5     6     7    1
     6     8    45    1
     7     9    20   ar
     8    10     1    1
     9    11     1    1
    10    12     4   ar
    11    13    17    2
    12    14    12   ar
    13    15    14    1
    14    16     1    1
    15    18     4   ar
    16    19    18    1
    17    20    21    1
    18    22     6   ar
    19    23    13    1
    20    24    23    1
    21    25    23    1
    22    26    23    1
    23    27    16    2
    24    28    27    1
    25    29    30    1
    26    31    29    1
    27    32    29    1
    28    33    20   ar
    29    34    33    1
    30    35    11   ar
    31    36    35    1
    32    37     2    2
    33    38     1    1
    34    39    46   ar
    35    40     6   ar
    36    41    40    1
    37    42    16    1
    38    43    42    1
    39    44    42    1
    40    45     3   ar
    41    46    10    1
    42    47    45   ar
    43    48    47    1
    44    49    46   ar
    45    50    49    1
    46    51    38    2
    47    52    51    1
    48    53    49   ar
    49    54    53    1
    50    55    39   ar
    51    56    55    1
    52    57    38    1
    53    58    57    1
    54    59    57    1
    55    60    53   ar
    56    61    60    1
    57    62     3   ar
    58    63    62    1
    59    64    62   ar
    60    65    64    1
    61    66    47   ar
    62    67    66    1
    63    68     9   un
    64    69     1   un
    65     9    40   ar
    66    11    18   ar
    67    12    37    1
    68    13    22    1
    69    14    35   ar
    70    22    33   ar
    71    29    37    1
    72    39    51    1
    73    42    57    1
    74    55    60   ar
    75    64    66   ar
    76    70    71    1
    77    72    73    1
    78    74    83    1
    79    75    70   ar
    80    76    75    1
    81    77    78    1
    82    79    72   ar
    83    80    79    1
    84    81    72   ar
    85    82    81    1
    86    83    90   ar
    87    84    74    1
    88    85    70   ar
    89    86    85    1
    90    87    74    1
    91    88    84   ar
    92    89    88    1
    93    90    91    1
    94    92    77   ar
    95    93    92    1
    96    94    83   ar
    97    95    94    1
    98    96    81   ar
    99    97    96    1
   100    98    74    1
   101    99    98   ar
   102   100    99    1
   103   101    98   ar
   104   102   101    1
   105   103    94   ar
   106   104   103    1
   107   105   103   ar
   108   106   105    1
   109   107    90   ar
   110   108   107    1
   111   109    99   ar
   112   110   109    1
   113   111   101   ar
   114   112   111    1
   115   113   109   ar
   116   114   113    1
   117    75    87   ar
   118    77    85   ar
   119    79    84   ar
   120    87    92   ar
   121    88    96   ar
   122   105   107   ar
   123   111   113   ar
@<TRIPOS>SUBSTRUCTURE
     1 RES1        1 GROUP             0 ****  ****    0  
     2 RES2       70 GROUP             0 ****  ****    0  
@<TRIPOS>CRYSIN
   11.9331   14.1303   14.6055  106.6760   94.1480  106.6390     2     1
