@<TRIPOS>MOLECULE
OHOROT
   118   125     4     0     0
SMALL
USER_CHARGES
****
Generated from the CSD

@<TRIPOS>ATOM
     1 Fe1      7.5627   6.4987  17.9593   Fe        1 RES1   1.0000
     2 N1       5.3455   6.5009  18.0958   N.ar      1 RES1   0.0000
     3 N2      -3.9553   6.5270  17.8071   N.ar      1 RES1   0.0000
     4 O1       7.5335   8.0859  19.0140   O.3       1 RES1   0.0000
     5 C2       3.1809   6.6256  17.0747   C.ar      1 RES1   0.0000
     6 H2       2.6619   6.6285  16.2781   H         1 RES1   0.0000
     7 N3       0.2759   6.6619  17.5978   N.am      1 RES1   0.0000
     8 H3       0.6274   6.4675  16.8145   H         1 RES1   0.0000
     9 C3       4.5696   6.4820  17.0107   C.ar      1 RES1   0.0000
    10 H4       4.9778   6.3646  16.1594   H         1 RES1   0.0000
    11 C4       1.0993   6.9461  18.5970   C.2       1 RES1   0.0000
    12 C5       3.3835   6.7895  19.4369   C.ar      1 RES1   0.0000
    13 H5       3.0004   6.9011  20.2974   H         1 RES1   0.0000
    14 N4       7.8393   5.4017  19.7400   N.2       1 RES1   0.0000
    15 C8       4.7457   6.6488  19.2886   C.ar      1 RES1   0.0000
    16 H8       5.2869   6.6546  20.0692   H         1 RES1   0.0000
    17 C9       2.5762   6.7634  18.3003   C.ar      1 RES1   0.0000
    18 C10     -3.2467   7.0447  18.8161   C.ar      1 RES1   0.0000
    19 H9      -3.7159   7.3797  19.5716   H         1 RES1   0.0000
    20 C11     -3.2490   6.0789  16.7460   C.ar      1 RES1   0.0000
    21 H10     -3.7269   5.7048  16.0133   H         1 RES1   0.0000
    22 C12     -1.8704   6.1369  16.6615   C.ar      1 RES1   0.0000
    23 H11     -1.4223   5.8222  15.8855   H         1 RES1   0.0000
    24 C15     -1.1541   6.6517  17.7137   C.ar      1 RES1   0.0000
    25 C16     -1.8473   7.1186  18.8184   C.ar      1 RES1   0.0000
    26 H13     -1.3816   7.4812  19.5625   H         1 RES1   0.0000
    27 O2       7.5008   7.0780  16.1804   O.3       1 RES1   0.0000
    28 C17      7.8960   5.8701  20.9347   C.2       1 RES1   0.0000
    29 H14      8.0974   5.2625  21.6372   H         1 RES1   0.0000
    30 C18      7.5122   6.4327  15.0036   C.ar      1 RES1   0.0000
    31 O3       0.7120   7.2346  19.7394   O.2       1 RES1   0.0000
    32 C20      8.0978   3.9864  19.4906   C.3       1 RES1   0.0000
    33 H15      7.9059   3.4600  20.3065   H         1 RES1   0.0000
    34 H16      9.0491   3.8544  19.2498   H         1 RES1   0.0000
    35 C22      7.3172   5.0305  14.9169   C.ar      1 RES1   0.0000
    36 C24      7.6766   7.2550  21.2921   C.ar      1 RES1   0.0000
    37 C25      7.2370   4.1546  16.0585   C.2       1 RES1   0.0000
    38 H19      7.1082   3.2294  15.8924   H         1 RES1   0.0000
    39 N5       7.3273   4.5287  17.2849   N.2       1 RES1   0.0000
    40 C27      7.2118   3.5267  18.3587   C.3       1 RES1   0.0000
    41 H20      7.5032   2.6378  18.0333   H         1 RES1   0.0000
    42 H21      6.2729   3.4571  18.6632   H         1 RES1   0.0000
    43 C29      7.2569   4.4403  13.6417   C.ar      1 RES1   0.0000
    44 H23      7.0919   3.5078  13.5689   H         1 RES1   0.0000
    45 C31      7.6820   7.1737  13.8314   C.ar      1 RES1   0.0000
    46 H25      7.8080   8.1134  13.8839   H         1 RES1   0.0000
    47 C34      7.1546   9.5809  20.8041   C.ar      1 RES1   0.0000
    48 H28      6.9365  10.2639  20.1810   H         1 RES1   0.0000
    49 C35      7.4578   8.2947  20.3431   C.ar      1 RES1   0.0000
    50 C37      7.6682   6.5545  12.5952   C.ar      1 RES1   0.0000
    51 H30      7.8187   7.0650  11.8069   H         1 RES1   0.0000
    52 C38      7.4492   8.8747  23.0888   C.ar      1 RES1   0.0000
    53 H31      7.4730   9.0850  24.0154   H         1 RES1   0.0000
    54 C40      7.1684   9.8666  22.1553   C.ar      1 RES1   0.0000
    55 H32      6.9846  10.7497  22.4497   H         1 RES1   0.0000
    56 C42      7.4330   5.1842  12.5007   C.ar      1 RES1   0.0000
    57 H34      7.3942   4.7651  11.6494   H         1 RES1   0.0000
    58 C43      7.6933   7.5899  22.6670   C.ar      1 RES1   0.0000
    59 H35      7.8764   6.9142  23.3102   H         1 RES1   0.0000
    60 Fe1     -6.1465   6.4987  17.9593   Fe        1 RES1   1.0000
    61 N2       9.7539   6.5270  17.8071   N.3       1 RES1   0.0000
    62 C1       3.9004   6.5429  13.5057   C.ar      2 RES2   0.0000
    63 H1       4.6745   5.9977  13.4205   H         2 RES2   0.0000
    64 C6       4.0633   7.9017  13.7627   C.ar      2 RES2   0.0000
    65 H6       4.9356   8.2613  13.8610   H         2 RES2   0.0000
    66 C7       1.5470   6.8127  13.5141   C.ar      2 RES2   0.0000
    67 H7       0.6705   6.4516  13.4548   H         2 RES2   0.0000
    68 C13      2.9587   8.7312  13.8747   C.ar      2 RES2   0.0000
    69 H12      3.0687   9.6621  14.0368   H         2 RES2   0.0000
    70 C14      2.6417   5.9469  13.3671   C.ar      2 RES2   0.0000
    71 C19      1.1357   3.9603  12.3022   C.ar      2 RES2   0.0000
    72 C21      1.2187   3.7051  15.4838   C.ar      2 RES2   0.0000
    73 H17      0.3941   3.9066  15.0570   H         2 RES2   0.0000
    74 C23      3.5697   3.5194  15.4724   C.ar      2 RES2   0.0000
    75 H18      4.4058   3.6006  15.0273   H         2 RES2   0.0000
    76 C26      2.4029   3.7863  14.7466   C.ar      2 RES2   0.0000
    77 C28      3.5654   3.1453  16.8008   C.ar      2 RES2   0.0000
    78 H22      4.3863   2.9524  17.2367   H         2 RES2   0.0000
    79 C30      0.7403   4.7346  11.2112   C.ar      2 RES2   0.0000
    80 H24      1.1838   5.5583  11.0514   H         2 RES2   0.0000
    81 C32     -0.2910   4.3431  10.3347   C.ar      2 RES2   0.0000
    82 H26     -0.5349   4.9014   9.6066   H         2 RES2   0.0000
    83 B1       2.4615   4.3330  13.1946   B         2 RES2  -1.0000
    84 C33      0.4498   2.7364  12.4596   C.ar      2 RES2   0.0000
    85 H27      0.6952   2.1592  13.1740   H         2 RES2   0.0000
    86 C36      1.6917   8.1845  13.7492   C.ar      2 RES2   0.0000
    87 H29      0.9232   8.7399  13.8200   H         2 RES2   0.0000
    88 C39      3.6826   3.6311  12.3432   C.ar      2 RES2   0.0000
    89 C41      4.1516   2.3463  12.6354   C.ar      2 RES2   0.0000
    90 H33      3.7926   1.8881  13.3863   H         2 RES2   0.0000
    91 C44     -0.9394   3.1555  10.5379   C.ar      2 RES2   0.0000
    92 H36     -1.6374   2.8843   9.9536   H         2 RES2   0.0000
    93 C45     -0.5700   2.3506  11.6037   C.ar      2 RES2   0.0000
    94 H37     -1.0189   1.5270  11.7498   H         2 RES2   0.0000
    95 C46      4.2322   4.2068  11.1838   C.ar      2 RES2   0.0000
    96 H38      3.9458   5.0769  10.9281   H         2 RES2   0.0000
    97 C47      2.3771   3.0482  17.4992   C.ar      2 RES2   0.0000
    98 H39      2.3706   2.7915  18.4144   H         2 RES2   0.0000
    99 C48      1.2176   3.3295  16.8464   C.ar      2 RES2   0.0000
   100 H40      0.3927   3.2729  17.3143   H         2 RES2   0.0000
   101 C49      5.1696   3.5658  10.3963   C.ar      2 RES2   0.0000
   102 H42      5.5005   3.9922   9.6135   H         2 RES2   0.0000
   103 C50      5.1240   1.7140  11.8662   C.ar      2 RES2   0.0000
   104 H43      5.4445   0.8585  12.1241   H         2 RES2   0.0000
   105 C51      5.6282   2.3144  10.7341   C.ar      2 RES2   0.0000
   106 H44      6.2778   1.8750  10.2001   H         2 RES2   0.0000
   107 O4      -1.8773   5.0870  13.5876   O.3       3 RES3   0.0000
   108 H41     -1.3143   4.6621  13.1329   H         3 RES3   0.0000
   109 C52     -2.3500   6.1790  12.8454   C.3       3 RES3   0.0000
   110 H46     -2.9304   6.7300  13.4114   H         3 RES3   0.0000
   111 H47     -2.8593   5.8527  12.0739   H         3 RES3   0.0000
   112 H48     -1.5914   6.7155  12.5350   H         3 RES3   0.0000
   113 O5       6.8555  10.2451  17.3250   O.3       4 RES4   0.0000
   114 H45      6.9582   9.7593  18.0013   H         4 RES4   0.0000
   115 C53      5.6503   9.9391  16.7140   C.3       4 RES4   0.0000
   116 H49      4.9973   9.6738  17.3942   H         4 RES4   0.0000
   117 H50      5.7813   9.2010  16.0818   H         4 RES4   0.0000
   118 H51      5.3182  10.7265  16.2325   H         4 RES4   0.0000
@<TRIPOS>BOND
     1     1     2    1
     2     2     9   ar
     3     3    18   ar
     4     4     1    1
     5     5     6    1
     6     7     8    1
     7     9     5   ar
     8    10     9    1
     9    11     7   am
    10    12    13    1
    11    14     1    1
    12    15     2   ar
    13    16    15    1
    14    17     5   ar
    15    18    19    1
    16    20     3   ar
    17    21    20    1
    18    22    20   ar
    19    23    22    1
    20    24     7    1
    21    25    18   ar
    22    26    25    1
    23    27     1    1
    24    28    14    2
    25    29    28    1
    26    30    27    1
    27    31    11    2
    28    32    14    1
    29    33    32    1
    30    34    32    1
    31    35    30   ar
    32    36    28    1
    33    37    35    1
    34    38    37    1
    35    39     1    1
    36    40    32    1
    37    41    40    1
    38    42    40    1
    39    43    35   ar
    40    44    43    1
    41    45    30   ar
    42    46    45    1
    43    47    48    1
    44    49     4    1
    45    50    45   ar
    46    51    50    1
    47    52    53    1
    48    54    47   ar
    49    55    54    1
    50    56    43   ar
    51    57    56    1
    52    58    36   ar
    53    59    58    1
    54    60     3   un
    55    61     1   un
    56    11    17    1
    57    12    15   ar
    58    12    17   ar
    59    22    24   ar
    60    24    25   ar
    61    36    49   ar
    62    37    39    2
    63    39    40    1
    64    47    49   ar
    65    50    56   ar
    66    52    54   ar
    67    52    58   ar
    68    62    63    1
    69    64    62   ar
    70    65    64    1
    71    66    67    1
    72    68    64   ar
    73    69    68    1
    74    70    62   ar
    75    71    79   ar
    76    72    73    1
    77    74    75    1
    78    76    72   ar
    79    77    74   ar
    80    78    77    1
    81    79    80    1
    82    81    79   ar
    83    82    81    1
    84    83    70    1
    85    84    71   ar
    86    85    84    1
    87    86    66   ar
    88    87    86    1
    89    88    83    1
    90    89    88   ar
    91    90    89    1
    92    91    81   ar
    93    92    91    1
    94    93    84   ar
    95    94    93    1
    96    95    88   ar
    97    96    95    1
    98    97    77   ar
    99    98    97    1
   100    99    72   ar
   101   100    99    1
   102   101    95   ar
   103   102   101    1
   104   103    89   ar
   105   104   103    1
   106   105   101   ar
   107   106   105    1
   108    66    70   ar
   109    68    86   ar
   110    71    83    1
   111    74    76   ar
   112    76    83    1
   113    91    93   ar
   114    97    99   ar
   115   103   105   ar
   116   107   108    1
   117   109   107    1
   118   110   109    1
   119   111   109    1
   120   112   109    1
   121   113   114    1
   122   115   113    1
   123   116   115    1
   124   117   115    1
   125   118   115    1
@<TRIPOS>SUBSTRUCTURE
     1 RES1        1 GROUP             0 ****  ****    0  
     2 RES2       62 GROUP             0 ****  ****    0  
     3 RES3      107 GROUP             0 ****  ****    0  
     4 RES4      113 GROUP             0 ****  ****    0  
@<TRIPOS>CRYSIN
   13.7092   14.5012   22.9555   90.0000   96.1350   90.0000   231     1
