@<TRIPOS>MOLECULE
OJACOU
   213   223     3     0     0
SMALL
NO_CHARGES
****
Generated from the CSD

@<TRIPOS>ATOM
     1 Fe1     17.8096   7.8504  10.9079   Fe        1 RES1   0.0000
     2 K1      16.3667   5.0200  12.6133   K         1 RES1   0.0000
     3 O1      16.5135   6.5857  10.1874   O.3       1 RES1   0.0000
     4 O2      18.9931   9.1892  11.6210   O.3       1 RES1   0.0000
     5 O3      18.5829   8.1071   9.1959   O.3       1 RES1   0.0000
     6 O4      17.1957   7.4487  12.7245   O.3       1 RES1   0.0000
     7 O5      17.5539   2.7522  13.4037   O.3       1 RES1   0.0000
     8 N1      15.1339   9.0237  10.9283   N.pl3     1 RES1   0.0000
     9 N2      16.6909  10.5430  10.7530   N.pl3     1 RES1   0.0000
    10 N3      19.6764   5.6857  10.2474   N.pl3     1 RES1   0.0000
    11 N4      19.6915   6.1800  12.3826   N.pl3     1 RES1   0.0000
    12 C1      16.4718   9.2042  10.7831   C.3       1 RES1   0.0000
    13 C2      14.4725  10.2716  10.9696   C.ar      1 RES1   0.0000
    14 C3      15.4774  11.2327  10.9129   C.ar      1 RES1   0.0000
    15 C4      15.1928  12.5912  11.0426   C.ar      1 RES1   0.0000
    16 H1      15.8853  13.2409  11.0764   H         1 RES1   0.0000
    17 C5      13.8600  12.9532  11.1197   C.ar      1 RES1   0.0000
    18 H2      13.6318  13.8701  11.2181   H         1 RES1   0.0000
    19 C6      12.8444  12.0004  11.0559   C.ar      1 RES1   0.0000
    20 H3      11.9381  12.2853  11.0539   H         1 RES1   0.0000
    21 C7      13.1314  10.6439  10.9953   C.ar      1 RES1   0.0000
    22 H4      12.4388   9.9941  10.9725   H         1 RES1   0.0000
    23 C8      14.5228   7.7271  10.9752   C.ar      1 RES1   0.0000
    24 C9      15.2076   6.6168  10.4107   C.ar      1 RES1   0.0000
    25 C10     14.4078   5.4581  10.1444   C.ar      1 RES1   0.0000
    26 C11     13.1339   5.3732  10.7081   C.ar      1 RES1   0.0000
    27 H5      12.6237   4.5871  10.5521   H         1 RES1   0.0000
    28 C12     12.5695   6.3850  11.4901   C.ar      1 RES1   0.0000
    29 C13     13.2841   7.5749  11.5747   C.ar      1 RES1   0.0000
    30 H6      12.9122   8.3036  12.0573   H         1 RES1   0.0000
    31 C14     17.9992  11.0919  10.5408   C.ar      1 RES1   0.0000
    32 C15     19.1059  10.3721  11.0213   C.ar      1 RES1   0.0000
    33 C16     20.3894  10.9703  10.8458   C.ar      1 RES1   0.0000
    34 C17     20.4655  12.1813  10.1638   C.ar      1 RES1   0.0000
    35 H7      21.3201  12.5855  10.0706   H         1 RES1   0.0000
    36 C18     19.3670  12.8407   9.6075   C.ar      1 RES1   0.0000
    37 C19     18.1202  12.2708   9.8085   C.ar      1 RES1   0.0000
    38 H8      17.3458  12.6849   9.4459   H         1 RES1   0.0000
    39 C20     14.9363   4.3791   9.1726   C.3       1 RES1   0.0000
    40 C21     15.3545   5.0542   7.8538   C.3       1 RES1   0.0000
    41 H9      14.5835   5.5187   7.4658   H         1 RES1   0.0000
    42 H10     15.6757   4.3739   7.2260   H         1 RES1   0.0000
    43 H11     16.0700   5.7002   8.0300   H         1 RES1   0.0000
    44 C22     16.1413   3.6186   9.7468   C.3       1 RES1   0.0000
    45 H12     16.4481   2.9535   9.0957   H         1 RES1   0.0000
    46 H13     15.8778   3.1672  10.5757   H         1 RES1   0.0000
    47 H14     16.8665   4.2503   9.9350   H         1 RES1   0.0000
    48 C23     13.8524   3.3384   8.8436   C.3       1 RES1   0.0000
    49 H15     13.0620   3.7924   8.4840   H         1 RES1   0.0000
    50 H16     13.6076   2.8529   9.6591   H         1 RES1   0.0000
    51 H17     14.1974   2.7066   8.1786   H         1 RES1   0.0000
    52 C24     11.2087   6.2650  12.2029   C.3       1 RES1   0.0000
    53 C25     11.4175   6.3334  13.7208   C.3       1 RES1   0.0000
    54 H18     11.9844   5.5867  14.0067   H         1 RES1   0.0000
    55 H19     10.5498   6.2764  14.1729   H         1 RES1   0.0000
    56 H20     11.8517   7.1807  13.9531   H         1 RES1   0.0000
    57 C26     10.5037   4.9484  11.8593   C.3       1 RES1   0.0000
    58 H21     10.3640   4.8958  10.8907   H         1 RES1   0.0000
    59 H22      9.6378   4.9125  12.3167   H         1 RES1   0.0000
    60 H23     11.0587   4.1950  12.1506   H         1 RES1   0.0000
    61 C27     10.2889   7.4192  11.7734   C.3       1 RES1   0.0000
    62 H24     10.6841   8.2722  12.0499   H         1 RES1   0.0000
    63 H25      9.4117   7.3128  12.1974   H         1 RES1   0.0000
    64 H26     10.1842   7.4082  10.7990   H         1 RES1   0.0000
    65 C28     21.6463  10.2616  11.3687   C.3       1 RES1   0.0000
    66 C29     21.8273   8.9466  10.5835   C.3       1 RES1   0.0000
    67 H27     21.0437   8.3740  10.7201   H         1 RES1   0.0000
    68 H28     22.6299   8.4833  10.9027   H         1 RES1   0.0000
    69 H29     21.9235   9.1465   9.6290   H         1 RES1   0.0000
    70 C30     21.5360   9.9737  12.8750   C.3       1 RES1   0.0000
    71 H30     21.4876  10.8200  13.3668   H         1 RES1   0.0000
    72 H31     22.3229   9.4693  13.1698   H         1 RES1   0.0000
    73 H32     20.7273   9.4481  13.0489   H         1 RES1   0.0000
    74 C31     22.9208  11.0946  11.1645   C.3       1 RES1   0.0000
    75 H33     23.0684  11.2363  10.2062   H         1 RES1   0.0000
    76 H34     23.6872  10.6180  11.5463   H         1 RES1   0.0000
    77 H35     22.8196  11.9611  11.6111   H         1 RES1   0.0000
    78 C32     19.5652  14.1506   8.8231   C.3       1 RES1   0.0000
    79 C33     18.2722  14.6344   8.1590   C.3       1 RES1   0.0000
    80 H36     17.9414  13.9444   7.5468   H         1 RES1   0.0000
    81 H37     18.4505  15.4575   7.6580   H         1 RES1   0.0000
    82 H38     17.5975  14.8109   8.8476   H         1 RES1   0.0000
    83 C34     20.0777  15.2462   9.7727   C.3       1 RES1   0.0000
    84 H39     20.2133  16.0767   9.2703   H         1 RES1   0.0000
    85 H40     20.9276  14.9625  10.1701   H         1 RES1   0.0000
    86 H41     19.4195  15.3975  10.4827   H         1 RES1   0.0000
    87 C35     20.5973  13.9337   7.7084   C.3       1 RES1   0.0000
    88 H42     20.2776  13.2367   7.0982   H         1 RES1   0.0000
    89 H43     21.4506  13.6562   8.1029   H         1 RES1   0.0000
    90 H44     20.7232  14.7695   7.2125   H         1 RES1   0.0000
    91 C36     19.1217   6.4917  11.1918   C.3       1 RES1   0.0000
    92 C37     20.6381   4.8432  10.8433   C.ar      1 RES1   0.0000
    93 C38     20.6266   5.1378  12.2107   C.ar      1 RES1   0.0000
    94 C39     21.4053   4.4141  13.1198   C.ar      1 RES1   0.0000
    95 H45     21.3611   4.5835  14.0535   H         1 RES1   0.0000
    96 C40     22.2449   3.4397  12.6022   C.ar      1 RES1   0.0000
    97 H46     22.7894   2.9329  13.1930   H         1 RES1   0.0000
    98 C41     22.3055   3.1887  11.2320   C.ar      1 RES1   0.0000
    99 H47     22.9125   2.5347  10.9067   H         1 RES1   0.0000
   100 C42     21.5014   3.8705  10.3345   C.ar      1 RES1   0.0000
   101 H48     21.5356   3.6830   9.4038   H         1 RES1   0.0000
   102 C43     19.3294   5.8288   8.8585   C.ar      1 RES1   0.0000
   103 C44     18.8581   7.0823   8.4011   C.ar      1 RES1   0.0000
   104 C45     18.6944   7.2377   6.9986   C.ar      1 RES1   0.0000
   105 C46     18.8876   6.1376   6.1749   C.ar      1 RES1   0.0000
   106 H49     18.7776   6.2550   5.2386   H         1 RES1   0.0000
   107 C47     19.2360   4.8638   6.6439   C.ar      1 RES1   0.0000
   108 C48     19.4559   4.7356   8.0005   C.ar      1 RES1   0.0000
   109 H50     19.6973   3.8885   8.3563   H         1 RES1   0.0000
   110 C49     19.3595   6.8615  13.6046   C.ar      1 RES1   0.0000
   111 C50     18.0667   7.4300  13.7321   C.ar      1 RES1   0.0000
   112 C51     17.7036   7.9401  15.0102   C.ar      1 RES1   0.0000
   113 C52     18.6609   7.9472  16.0191   C.ar      1 RES1   0.0000
   114 H51     18.4053   8.2726  16.8742   H         1 RES1   0.0000
   115 C53     19.9733   7.5053  15.8518   C.ar      1 RES1   0.0000
   116 C54     20.3027   6.9663  14.6113   C.ar      1 RES1   0.0000
   117 H52     21.1899   6.6653  14.4533   H         1 RES1   0.0000
   118 C55     18.3267   8.6239   6.4334   C.3       1 RES1   0.0000
   119 C56     18.2607   8.6091   4.8991   C.3       1 RES1   0.0000
   120 H53     19.1345   8.3512   4.5372   H         1 RES1   0.0000
   121 H54     18.0234   9.5023   4.5736   H         1 RES1   0.0000
   122 H55     17.5832   7.9641   4.6073   H         1 RES1   0.0000
   123 C57     16.9456   9.0638   6.9603   C.3       1 RES1   0.0000
   124 H56     16.2797   8.3783   6.7434   H         1 RES1   0.0000
   125 H57     16.6905   9.9116   6.5401   H         1 RES1   0.0000
   126 H58     16.9889   9.1810   7.9324   H         1 RES1   0.0000
   127 C58     19.3932   9.6549   6.8409   C.3       1 RES1   0.0000
   128 H59     19.4446   9.7028   7.8184   H         1 RES1   0.0000
   129 H60     19.1507  10.5345   6.4830   H         1 RES1   0.0000
   130 H61     20.2635   9.3843   6.4809   H         1 RES1   0.0000
   131 C59     19.3236   3.6757   5.6733   C.3       1 RES1   0.0000
   132 C60     20.1454   2.5292   6.2595   C.3       1 RES1   0.0000
   133 H62     21.0353   2.8575   6.5060   H         1 RES1   0.0000
   134 H63     20.2335   1.8161   5.5930   H         1 RES1   0.0000
   135 H64     19.6947   2.1780   7.0558   H         1 RES1   0.0000
   136 C61     20.0014   4.0916   4.3600   C.3       1 RES1   0.0000
   137 H65     19.4614   4.7794   3.9175   H         1 RES1   0.0000
   138 H66     20.0816   3.3113   3.7726   H         1 RES1   0.0000
   139 H67     20.8933   4.4494   4.5517   H         1 RES1   0.0000
   140 C62     17.9114   3.1785   5.3485   C.3       1 RES1   0.0000
   141 H68     17.4824   2.8553   6.1682   H         1 RES1   0.0000
   142 H69     17.9638   2.4481   4.6973   H         1 RES1   0.0000
   143 H70     17.3845   3.9143   4.9724   H         1 RES1   0.0000
   144 C63     16.2854   8.4911  15.2346   C.3       1 RES1   0.0000
   145 C64     15.2108   7.4732  14.8008   C.3       1 RES1   0.0000
   146 H71     15.2240   7.3798  13.8253   H         1 RES1   0.0000
   147 H72     14.3280   7.7885  15.0867   H         1 RES1   0.0000
   148 H73     15.3973   6.6048  15.2148   H         1 RES1   0.0000
   149 C65     16.1089   9.7908  14.4291   C.3       1 RES1   0.0000
   150 H74     16.6984  10.4837  14.7936   H         1 RES1   0.0000
   151 H75     15.1774  10.0890  14.4902   H         1 RES1   0.0000
   152 H76     16.3386   9.6272  13.4905   H         1 RES1   0.0000
   153 C66     16.0198   8.8011  16.7212   C.3       1 RES1   0.0000
   154 H77     16.1420   7.9860  17.2517   H         1 RES1   0.0000
   155 H78     15.1014   9.1257  16.8282   H         1 RES1   0.0000
   156 H79     16.6472   9.4881  17.0290   H         1 RES1   0.0000
   157 C67     21.0328   7.5678  16.9569   C.3       1 RES1   0.0000
   158 C68     22.2305   8.4103  16.4945   C.3       1 RES1   0.0000
   159 H80     22.5928   8.0355  15.6646   H         1 RES1   0.0000
   160 H81     22.9238   8.4004  17.1873   H         1 RES1   0.0000
   161 H82     21.9397   9.3328  16.3367   H         1 RES1   0.0000
   162 C69     20.4937   8.1806  18.2576   C.3       1 RES1   0.0000
   163 H83     20.2231   9.1083  18.0942   H         1 RES1   0.0000
   164 H84     21.1938   8.1605  18.9431   H         1 RES1   0.0000
   165 H85     19.7198   7.6642  18.5659   H         1 RES1   0.0000
   166 C70     21.5184   6.1443  17.2649   C.3       1 RES1   0.0000
   167 H86     20.7561   5.5903  17.5343   H         1 RES1   0.0000
   168 H87     22.1743   6.1732  17.9925   H         1 RES1   0.0000
   169 H88     21.9345   5.7607  16.4649   H         1 RES1   0.0000
   170 C71     18.8348   1.9089  11.5013   C.3       1 RES1   0.0000
   171 H89     18.6124   2.7144  10.9893   H         1 RES1   0.0000
   172 H90     18.9083   1.1446  10.8922   H         1 RES1   0.0000
   173 H91     19.6883   2.0411  11.9641   H         1 RES1   0.0000
   174 C72     17.7472   1.6413  12.5165   C.3       1 RES1   0.0000
   175 H92     16.8990   1.4513  12.0427   H         1 RES1   0.0000
   176 H93     17.9862   0.8394  13.0459   H         1 RES1   0.0000
   177 C73     18.4552   2.7349  14.5272   C.3       1 RES1   0.0000
   178 H94     19.3899   2.8186  14.2117   H         1 RES1   0.0000
   179 H95     18.3676   1.8791  15.0173   H         1 RES1   0.0000
   180 C74     18.1174   3.8788  15.4331   C.3       1 RES1   0.0000
   181 H96     18.2660   4.7245  14.9605   H         1 RES1   0.0000
   182 H97     18.6883   3.8448  16.2290   H         1 RES1   0.0000
   183 H98     17.1774   3.8158  15.7023   H         1 RES1   0.0000
   184 O6      12.4978   1.8839  12.4969   O.3       2 RES2   0.0000
   185 C75     10.9690   0.7984  11.0586   C.3       2 RES2   0.0000
   186 H99     10.1981   0.8529  11.6616   H         2 RES2   0.0000
   187 H100    10.8839   0.0062  10.4894   H         2 RES2   0.0000
   188 H101    11.0011   1.6022  10.4976   H         2 RES2   0.0000
   189 C76     12.1807   0.7060  11.8339   C.3       2 RES2   0.0000
   190 H102    12.0805  -0.0194  12.5003   H         2 RES2   0.0000
   191 H103    12.9288   0.4641  11.2336   H         2 RES2   0.0000
   192 C77     13.6646   1.9292  13.2284   C.3       2 RES2   0.0000
   193 H104    14.4302   1.7878  12.6180   H         2 RES2   0.0000
   194 H105    13.6597   1.1856  13.8825   H         2 RES2   0.0000
   195 C78     13.8589   3.1673  13.9371   C.3       2 RES2   0.0000
   196 H106    13.8049   3.9160  13.3070   H         2 RES2   0.0000
   197 H107    14.7400   3.1637  14.3656   H         2 RES2   0.0000
   198 H108    13.1635   3.2653  14.6208   H         2 RES2   0.0000
   199 O7       8.8947   1.1752  14.2876   O.3       3 RES3   0.0000
   200 C79     10.7399   1.0462  15.7773   C.3       3 RES3   0.0000
   201 H109    10.2189   0.4784  16.3850   H         3 RES3   0.0000
   202 H110    11.3847   1.5712  16.2952   H         3 RES3   0.0000
   203 H111    11.2175   0.4823  15.1344   H         3 RES3   0.0000
   204 C80      9.8097   1.9764  15.0401   C.3       3 RES3   0.0000
   205 H112     9.3171   2.5455  15.6813   H         3 RES3   0.0000
   206 H113    10.3274   2.5626  14.4325   H         3 RES3   0.0000
   207 C79A     7.0495   1.0462  12.7979   C.3       3 RES3   0.0000
   208 H109A    7.5704   0.4784  12.1902   H         3 RES3   0.0000
   209 H110A    6.4047   1.5712  12.2800   H         3 RES3   0.0000
   210 H111A    6.5719   0.4823  13.4408   H         3 RES3   0.0000
   211 C80A     7.9796   1.9764  13.5351   C.3       3 RES3   0.0000
   212 H112A    8.4723   2.5455  12.8939   H         3 RES3   0.0000
   213 H113A    7.4620   2.5626  14.1427   H         3 RES3   0.0000
@<TRIPOS>BOND
     1     1     3    1
     2     2     3    1
     3     3    24    1
     4     4     1    1
     5     5     1    1
     6     6     1    1
     7     7     2    1
     8     8    12    1
     9     9    12    1
    10    10    91    1
    11    11    91    1
    12    12     1    1
    13    13     8    1
    14    14     9    1
    15    15    14   ar
    16    16    15    1
    17    17    15   ar
    18    18    17    1
    19    19    17   ar
    20    20    19    1
    21    21    13   ar
    22    22    21    1
    23    23     8    1
    24    24    23   ar
    25    25    24   ar
    26    26    25   ar
    27    27    26    1
    28    28    26   ar
    29    29    23   ar
    30    30    29    1
    31    31     9    1
    32    32     4    1
    33    33    32   ar
    34    34    33   ar
    35    35    34    1
    36    36    34   ar
    37    37    31   ar
    38    38    37    1
    39    39    25    1
    40    40    39    1
    41    41    40    1
    42    42    40    1
    43    43    40    1
    44    44    39    1
    45    45    44    1
    46    46    44    1
    47    47    44    1
    48    48    39    1
    49    49    48    1
    50    50    48    1
    51    51    48    1
    52    52    28    1
    53    53    52    1
    54    54    53    1
    55    55    53    1
    56    56    53    1
    57    57    52    1
    58    58    57    1
    59    59    57    1
    60    60    57    1
    61    61    52    1
    62    62    61    1
    63    63    61    1
    64    64    61    1
    65    65    33    1
    66    66    65    1
    67    67    66    1
    68    68    66    1
    69    69    66    1
    70    70    65    1
    71    71    70    1
    72    72    70    1
    73    73    70    1
    74    74    65    1
    75    75    74    1
    76    76    74    1
    77    77    74    1
    78    78    36    1
    79    79    78    1
    80    80    79    1
    81    81    79    1
    82    82    79    1
    83    83    78    1
    84    84    83    1
    85    85    83    1
    86    86    83    1
    87    87    78    1
    88    88    87    1
    89    89    87    1
    90    90    87    1
    91    91     1    1
    92    92    10    1
    93    93    11    1
    94    94    93   ar
    95    95    94    1
    96    96    94   ar
    97    97    96    1
    98    98    96   ar
    99    99    98    1
   100   100    92   ar
   101   101   100    1
   102   102    10    1
   103   103     5    1
   104   104   103   ar
   105   105   104   ar
   106   106   105    1
   107   107   105   ar
   108   108   102   ar
   109   109   108    1
   110   110    11    1
   111   111     6    1
   112   112   111   ar
   113   113   112   ar
   114   114   113    1
   115   115   113   ar
   116   116   110   ar
   117   117   116    1
   118   118   104    1
   119   119   118    1
   120   120   119    1
   121   121   119    1
   122   122   119    1
   123   123   118    1
   124   124   123    1
   125   125   123    1
   126   126   123    1
   127   127   118    1
   128   128   127    1
   129   129   127    1
   130   130   127    1
   131   131   107    1
   132   132   131    1
   133   133   132    1
   134   134   132    1
   135   135   132    1
   136   136   131    1
   137   137   136    1
   138   138   136    1
   139   139   136    1
   140   140   131    1
   141   141   140    1
   142   142   140    1
   143   143   140    1
   144   144   112    1
   145   145   144    1
   146   146   145    1
   147   147   145    1
   148   148   145    1
   149   149   144    1
   150   150   149    1
   151   151   149    1
   152   152   149    1
   153   153   144    1
   154   154   153    1
   155   155   153    1
   156   156   153    1
   157   157   115    1
   158   158   157    1
   159   159   158    1
   160   160   158    1
   161   161   158    1
   162   162   157    1
   163   163   162    1
   164   164   162    1
   165   165   162    1
   166   166   157    1
   167   167   166    1
   168   168   166    1
   169   169   166    1
   170   170   171    1
   171   172   170    1
   172   173   170    1
   173   174     7    1
   174   175   174    1
   175   176   174    1
   176   177     7    1
   177   178   177    1
   178   179   177    1
   179   180   177    1
   180   181   180    1
   181   182   180    1
   182   183   180    1
   183     2     6    1
   184    13    14   ar
   185    19    21   ar
   186    28    29   ar
   187    31    32   ar
   188    36    37   ar
   189    92    93   ar
   190    98   100   ar
   191   102   103   ar
   192   107   108   ar
   193   110   111   ar
   194   115   116   ar
   195   170   174    1
   196   184   189    1
   197   185   186    1
   198   187   185    1
   199   188   185    1
   200   189   185    1
   201   190   189    1
   202   191   189    1
   203   192   184    1
   204   193   192    1
   205   194   192    1
   206   195   192    1
   207   196   195    1
   208   197   195    1
   209   198   195    1
   210   199   204    1
   211   200   201    1
   212   202   200    1
   213   203   200    1
   214   204   200    1
   215   205   204    1
   216   206   204    1
   217   207   208    1
   218   209   207    1
   219   210   207    1
   220   211   199    1
   221   212   211    1
   222   213   211    1
   223   207   211    1
@<TRIPOS>SUBSTRUCTURE
     1 RES1        1 GROUP             0 ****  ****    0  
     2 RES2      184 GROUP             0 ****  ****    0  
     3 RES3      199 GROUP             0 ****  ****    0  
@<TRIPOS>CRYSIN
   39.4980   19.6654   23.9240   90.0000  127.2240   90.0000    15     1
