@<TRIPOS>MOLECULE
OKEHIY
   105   112     1     0     0
SMALL
NO_CHARGES
****
Generated from the CSD

@<TRIPOS>ATOM
     1 Fe1      0.0143   0.7352   5.4268   Fe        1 RES1   0.0000
     2 S1      -0.3140  -1.5911   6.1158   S.3       1 RES1   0.0000
     3 C1       0.5933   4.1900   9.5393   C.3       1 RES1   0.0000
     4 H1       0.3054   4.0002   8.6221   H         1 RES1   0.0000
     5 H2       1.4628   4.6422   9.5218   H         1 RES1   0.0000
     6 H3      -0.0665   4.7674   9.9764   H         1 RES1   0.0000
     7 C2       1.1482   3.1636  11.7575   C.3       1 RES1   0.0000
     8 H4       1.9972   3.6533  11.7573   H         1 RES1   0.0000
     9 H5       1.2612   2.3142  12.2328   H         1 RES1   0.0000
    10 H6       0.4619   3.7004  12.2065   H         1 RES1   0.0000
    11 C3      -0.6352   2.1678  10.3475   C.3       1 RES1   0.0000
    12 H7      -1.3043   2.7504  10.7642   H         1 RES1   0.0000
    13 H8      -0.5518   1.3418  10.8680   H         1 RES1   0.0000
    14 H9      -0.9149   1.9513   9.4335   H         1 RES1   0.0000
    15 C4       0.7167   2.8874  10.3110   C.3       1 RES1   0.0000
    16 C5       1.7824   2.0040   9.6993   C.3       1 RES1   0.0000
    17 H10      2.6601   2.4534   9.7842   H         1 RES1   0.0000
    18 H11      1.8272   1.1556  10.2082   H         1 RES1   0.0000
    19 C6       2.3784   0.9129   7.5904   C.ar      1 RES1   0.0000
    20 C7       3.5979   0.4511   8.1469   C.ar      1 RES1   0.0000
    21 H12      3.8279   0.6610   9.0442   H         1 RES1   0.0000
    22 C8       4.4357  -0.2991   7.3762   C.ar      1 RES1   0.0000
    23 H13      5.2481  -0.6250   7.7454   H         1 RES1   0.0000
    24 C9       4.1127  -0.5938   6.0511   C.ar      1 RES1   0.0000
    25 H14      4.7140  -1.0709   5.4911   H         1 RES1   0.0000
    26 C10      2.8919  -0.1687   5.5872   C.ar      1 RES1   0.0000
    27 C11      2.3961  -0.6119   4.2303   C.3       1 RES1   0.0000
    28 H15      3.1553  -0.6526   3.5959   H         1 RES1   0.0000
    29 H16      2.0037  -1.5183   4.2996   H         1 RES1   0.0000
    30 C12      2.0575   1.5683   3.2742   C.3       1 RES1   0.0000
    31 H17      2.2084   1.5021   2.2979   H         1 RES1   0.0000
    32 H18      2.9457   1.6152   3.7095   H         1 RES1   0.0000
    33 C13      1.3220   2.8461   3.5561   C.ar      1 RES1   0.0000
    34 C14      1.6003   3.9565   2.8009   C.ar      1 RES1   0.0000
    35 H19      2.1796   3.9000   2.0502   H         1 RES1   0.0000
    36 C15      1.0177   5.1651   3.1561   C.ar      1 RES1   0.0000
    37 H20      1.2314   5.9583   2.6784   H         1 RES1   0.0000
    38 C16      0.1362   5.2071   4.1957   C.ar      1 RES1   0.0000
    39 H21     -0.2538   6.0314   4.4619   H         1 RES1   0.0000
    40 C17     -0.1904   4.0090   4.8734   C.ar      1 RES1   0.0000
    41 C18     -2.0834   5.0879   5.9982   C.3       1 RES1   0.0000
    42 H22     -2.2718   5.5177   5.1268   H         1 RES1   0.0000
    43 H23     -1.6441   5.7592   6.5779   H         1 RES1   0.0000
    44 C19     -3.3979   4.6692   6.6364   C.3       1 RES1   0.0000
    45 C20     -4.3041   5.8886   6.6710   C.3       1 RES1   0.0000
    46 H24     -3.8861   6.5910   7.2123   H         1 RES1   0.0000
    47 H25     -5.1673   5.6436   7.0641   H         1 RES1   0.0000
    48 H26     -4.4423   6.2191   5.7586   H         1 RES1   0.0000
    49 C21     -3.1792   4.1612   8.0518   C.3       1 RES1   0.0000
    50 H27     -2.6253   3.3529   8.0270   H         1 RES1   0.0000
    51 H28     -4.0443   3.9519   8.4612   H         1 RES1   0.0000
    52 H29     -2.7259   4.8512   8.5801   H         1 RES1   0.0000
    53 C22     -4.0749   3.5768   5.8010   C.3       1 RES1   0.0000
    54 H30     -4.1564   3.8794   4.8725   H         1 RES1   0.0000
    55 H31     -4.9664   3.3936   6.1644   H         1 RES1   0.0000
    56 H32     -3.5350   2.7598   5.8323   H         1 RES1   0.0000
    57 C23      0.5199  -0.3046   2.6978   C.3       1 RES1   0.0000
    58 H33      0.5134  -1.2841   2.8385   H         1 RES1   0.0000
    59 H34      0.9004  -0.1277   1.8011   H         1 RES1   0.0000
    60 C24     -0.9420   0.2317   2.7496   C.3       1 RES1   0.0000
    61 C25     -1.8537  -0.8889   2.1791   C.ar      1 RES1   0.0000
    62 C26     -2.0082  -2.0496   2.9344   C.ar      1 RES1   0.0000
    63 H35     -1.5649  -2.1217   3.7718   H         1 RES1   0.0000
    64 C27     -2.7924  -3.1017   2.4913   C.ar      1 RES1   0.0000
    65 H36     -2.8829  -3.8848   3.0208   H         1 RES1   0.0000
    66 C28     -3.4433  -3.0071   1.2744   C.ar      1 RES1   0.0000
    67 H37     -3.9655  -3.7330   0.9547   H         1 RES1   0.0000
    68 C29     -3.3298  -1.8608   0.5330   C.ar      1 RES1   0.0000
    69 H38     -3.7926  -1.7865  -0.2934   H         1 RES1   0.0000
    70 C30     -2.5431  -0.8029   0.9810   C.ar      1 RES1   0.0000
    71 H39     -2.4783  -0.0117   0.4584   H         1 RES1   0.0000
    72 C31     -1.1545   1.5385   1.9775   C.ar      1 RES1   0.0000
    73 C32     -0.5273   1.8179   0.7602   C.ar      1 RES1   0.0000
    74 H40      0.0890   1.1922   0.3979   H         1 RES1   0.0000
    75 C33     -0.7903   2.9899   0.0742   C.ar      1 RES1   0.0000
    76 H41     -0.3588   3.1588  -0.7554   H         1 RES1   0.0000
    77 C34     -1.6718   3.9135   0.5869   C.ar      1 RES1   0.0000
    78 H42     -1.8439   4.7228   0.1202   H         1 RES1   0.0000
    79 C35     -2.3059   3.6518   1.7868   C.ar      1 RES1   0.0000
    80 H43     -2.9214   4.2825   2.1425   H         1 RES1   0.0000
    81 C36     -2.0492   2.4787   2.4737   C.ar      1 RES1   0.0000
    82 H44     -2.4926   2.3130   3.2976   H         1 RES1   0.0000
    83 C37      0.5173  -1.8264   7.6523   C.ar      1 RES1   0.0000
    84 C38      0.0289  -1.2489   8.8218   C.ar      1 RES1   0.0000
    85 H45     -0.7724  -0.7394   8.7899   H         1 RES1   0.0000
    86 C39      0.6841  -1.4019  10.0234   C.ar      1 RES1   0.0000
    87 H46      0.3471  -0.9937  10.8124   H         1 RES1   0.0000
    88 C40      1.8250  -2.1483  10.0627   C.ar      1 RES1   0.0000
    89 C41      2.3340  -2.7480   8.9424   C.ar      1 RES1   0.0000
    90 H47      3.1279  -3.2673   8.9938   H         1 RES1   0.0000
    91 C42      1.6775  -2.5872   7.7326   C.ar      1 RES1   0.0000
    92 H48      2.0234  -3.0019   6.9507   H         1 RES1   0.0000
    93 N1       1.5404   1.6983   8.2897   N.pl3     1 RES1   0.0000
    94 H49      0.7271   1.7504   7.9928   H         1 RES1   0.0000
    95 N2       2.0195   0.5698   6.3233   N.ar      1 RES1   0.0000
    96 N3       1.3798   0.3317   3.7275   N.3       1 RES1   0.0000
    97 N4       0.4606   2.8414   4.6008   N.ar      1 RES1   0.0000
    98 N5      -1.1686   3.9741   5.7879   N.pl3     1 RES1   0.0000
    99 H50     -1.2434   3.2545   6.2902   H         1 RES1   0.0000
   100 N6       2.5281  -2.2963  11.3477   N.pl3     1 RES1   0.0000
   101 O1      -1.2762   0.4175   4.0966   O.3       1 RES1   0.0000
   102 O2      -0.9086   1.5274   6.8909   O.3       1 RES1   0.0000
   103 H51     -1.4593   1.0759   7.1310   H         1 RES1   0.0000
   104 O3       2.1874  -1.5776  12.2767   O.2       1 RES1   0.0000
   105 O4       3.4105  -3.1369  11.4227   O.2       1 RES1   0.0000
@<TRIPOS>BOND
     1     1     2    1
     2     2    83    1
     3     3     4    1
     4     5     3    1
     5     6     3    1
     6     7     8    1
     7     9     7    1
     8    10     7    1
     9    11    12    1
    10    13    11    1
    11    14    11    1
    12    15     3    1
    13    16    15    1
    14    17    16    1
    15    18    16    1
    16    19    20   ar
    17    20    21    1
    18    22    20   ar
    19    23    22    1
    20    24    22   ar
    21    25    24    1
    22    26    24   ar
    23    27    26    1
    24    28    27    1
    25    29    27    1
    26    30    31    1
    27    32    30    1
    28    33    30    1
    29    34    33   ar
    30    35    34    1
    31    36    34   ar
    32    37    36    1
    33    38    36   ar
    34    39    38    1
    35    40    38   ar
    36    41    42    1
    37    43    41    1
    38    44    41    1
    39    45    44    1
    40    46    45    1
    41    47    45    1
    42    48    45    1
    43    49    44    1
    44    50    49    1
    45    51    49    1
    46    52    49    1
    47    53    44    1
    48    54    53    1
    49    55    53    1
    50    56    53    1
    51    57    58    1
    52    59    57    1
    53    60    57    1
    54    61    60    1
    55    62    61   ar
    56    63    62    1
    57    64    62   ar
    58    65    64    1
    59    66    64   ar
    60    67    66    1
    61    68    66   ar
    62    69    68    1
    63    70    61   ar
    64    71    70    1
    65    72    60    1
    66    73    72   ar
    67    74    73    1
    68    75    73   ar
    69    76    75    1
    70    77    75   ar
    71    78    77    1
    72    79    77   ar
    73    80    79    1
    74    81    72   ar
    75    82    81    1
    76    83    84   ar
    77    84    85    1
    78    86    84   ar
    79    87    86    1
    80    88    86   ar
    81    89    88   ar
    82    90    89    1
    83    91    83   ar
    84    92    91    1
    85    93    16    1
    86    94    93    1
    87    95     1    1
    88    96     1    1
    89    97     1    1
    90    98    40    1
    91    99    98    1
    92   100    88    1
    93   101     1    1
    94   102     1    1
    95   103   102    1
    96   104   100    2
    97   105   100    2
    98     7    15    1
    99    11    15    1
   100    19    93    1
   101    19    95   ar
   102    26    95   ar
   103    27    96    1
   104    30    96    1
   105    33    97   ar
   106    40    97   ar
   107    41    98    1
   108    57    96    1
   109    60   101    1
   110    68    70   ar
   111    79    81   ar
   112    89    91   ar
@<TRIPOS>SUBSTRUCTURE
     1 RES1        1 GROUP             0 ****  ****    0  
@<TRIPOS>CRYSIN
    8.0638   10.3249   23.4957   94.0940   91.7490   95.9660     2     1
