@<TRIPOS>MOLECULE
OKUHUY01
   101   105     5     0     0
SMALL
USER_CHARGES
****
Generated from the CSD

@<TRIPOS>ATOM
     1 Fe1      3.9809   5.3698   5.2659   Fe        1 RES1   2.0000
     2 N1       7.5810   5.7697   2.9395   N.pl3     1 RES1   0.0000
     3 N2       5.7993   5.6374   4.1782   N.2       1 RES1   0.0000
     4 N3       5.5503   5.2026   6.8548   N.2       1 RES1   0.0000
     5 N4       0.5379   5.3708   7.9401   N.pl3     1 RES1   0.0000
     6 N5       2.2902   5.3407   6.6198   N.2       1 RES1   0.0000
     7 N6       3.5899   7.5099   5.4029   N.2       1 RES1   0.0000
     8 N7       1.0714   4.6932   2.0751   N.pl3     1 RES1   0.0000
     9 N8       2.5861   5.0460   3.5907   N.2       1 RES1   0.0000
    10 N9       3.9780   3.1776   5.0405   N.2       1 RES1   0.0000
    11 C1       5.4045   6.0263   1.7724   C.3       1 RES1   0.0000
    12 C2       6.2271   5.8138   2.9554   C.2       1 RES1   0.0000
    13 C3       8.0222   5.5773   4.2061   C.2       1 RES1   0.0000
    14 C4       6.9173   5.4790   4.9768   C.2       1 RES1   0.0000
    15 C5       6.7493   5.2525   6.3808   C.2       1 RES1   0.0000
    16 C6       5.3969   4.9237   8.2807   C.3       1 RES1   0.0000
    17 C7       5.1510   6.1727   9.0872   C.ar      1 RES1   0.0000
    18 C8       6.2181   6.9445   9.5214   C.ar      1 RES1   0.0000
    19 C9       5.9757   8.0712  10.2682   C.ar      1 RES1   0.0000
    20 C10      4.7225   8.4381  10.5968   C.ar      1 RES1   0.0000
    21 C11      3.6857   7.7144  10.1666   C.ar      1 RES1   0.0000
    22 C12      3.8695   6.5456   9.4158   C.ar      1 RES1   0.0000
    23 C13      1.5678   3.1535   7.5558   C.3       1 RES1   0.0000
    24 C14      1.4867   4.6511   7.3526   C.2       1 RES1   0.0000
    25 C15      0.7321   6.6839   7.5617   C.2       1 RES1   0.0000
    26 C16      1.8013   6.6839   6.7612   C.2       1 RES1   0.0000
    27 C17      2.5236   7.7504   6.0840   C.2       1 RES1   0.0000
    28 C18      4.2033   8.5864   4.7099   C.3       1 RES1   0.0000
    29 C19      5.6725   8.7288   5.1241   C.ar      1 RES1   0.0000
    30 C20      6.0202   8.7388   6.4106   C.ar      1 RES1   0.0000
    31 C21      7.3357   8.9553   6.7353   C.ar      1 RES1   0.0000
    32 C22      8.2890   9.1778   5.8749   C.ar      1 RES1   0.0000
    33 C23      7.9791   9.1578   4.4869   C.ar      1 RES1   0.0000
    34 C24      6.5900   8.9272   4.1523   C.ar      1 RES1   0.0000
    35 C25      1.5481   7.1089   2.5312   C.3       1 RES1   0.0000
    36 C26      1.7420   5.6114   2.7582   C.2       1 RES1   0.0000
    37 C27      1.4224   3.4923   2.4575   C.2       1 RES1   0.0000
    38 C28      2.3902   3.6808   3.4075   C.2       1 RES1   0.0000
    39 C29      3.1619   2.7465   4.1762   C.2       1 RES1   0.0000
    40 C30      4.7527   2.1932   5.8092   C.3       1 RES1   0.0000
    41 C31      6.1885   2.0970   5.4189   C.ar      1 RES1   0.0000
    42 C32      6.5973   2.1892   4.1005   C.ar      1 RES1   0.0000
    43 C33      7.8865   2.0088   3.7878   C.ar      1 RES1   0.0000
    44 C34      8.8100   1.7361   4.7278   C.ar      1 RES1   0.0000
    45 C35      8.4743   1.5798   5.9944   C.ar      1 RES1   0.0000
    46 C36      7.1386   1.7802   6.4286   C.ar      1 RES1   0.0000
    47 H1       8.1032   5.8720   2.1707   H         1 RES1   0.0000
    48 H2      -0.1378   5.0240   8.4858   H         1 RES1   0.0000
    49 H3       0.4118   4.8997   1.4399   H         1 RES1   0.0000
    50 H4       4.7673   5.2766   1.6788   H         1 RES1   0.0000
    51 H5       4.9063   6.8744   1.8760   H         1 RES1   0.0000
    52 H6       5.9680   6.0785   0.9659   H         1 RES1   0.0000
    53 H7       8.9193   5.5231   4.4729   H         1 RES1   0.0000
    54 H8       7.4843   5.1382   6.9503   H         1 RES1   0.0000
    55 H9       4.6256   4.3163   8.3822   H         1 RES1   0.0000
    56 H10      6.2182   4.4646   8.5834   H         1 RES1   0.0000
    57 H11      7.0804   6.6598   9.2924   H         1 RES1   0.0000
    58 H12      6.7195   8.5664  10.5550   H         1 RES1   0.0000
    59 H13      4.6073   9.1959  11.1405   H         1 RES1   0.0000
    60 H14      2.8246   8.0091  10.3837   H         1 RES1   0.0000
    61 H15      3.1163   6.0584   9.1390   H         1 RES1   0.0000
    62 H16      2.4751   2.9129   7.8605   H         1 RES1   0.0000
    63 H17      1.3779   2.7024   6.6974   H         1 RES1   0.0000
    64 H18      0.9094   2.8648   8.2289   H         1 RES1   0.0000
    65 H19      0.2177   7.4176   7.8346   H         1 RES1   0.0000
    66 H20      2.2289   8.6386   6.1796   H         1 RES1   0.0000
    67 H21      4.1159   8.3499   3.7540   H         1 RES1   0.0000
    68 H22      3.6751   9.4044   4.8871   H         1 RES1   0.0000
    69 H23      5.3701   8.6085   7.0698   H         1 RES1   0.0000
    70 H24      7.5679   8.9353   7.6434   H         1 RES1   0.0000
    71 H25      9.1695   9.3342   6.1557   H         1 RES1   0.0000
    72 H26      8.6251   9.3122   3.8297   H         1 RES1   0.0000
    73 H27      6.3160   8.9132   3.2561   H         1 RES1   0.0000
    74 H28      2.3940   7.5901   2.6965   H         1 RES1   0.0000
    75 H29      0.8797   7.3856   3.1984   H         1 RES1   0.0000
    76 H30      1.2157   7.3254   1.6251   H         1 RES1   0.0000
    77 H31      1.1064   2.6864   2.0931   H         1 RES1   0.0000
    78 H32      3.0864   1.8203   4.0348   H         1 RES1   0.0000
    79 H33      4.2726   1.3332   5.7076   H         1 RES1   0.0000
    80 H34      4.6879   2.4959   6.7452   H         1 RES1   0.0000
    81 H35      5.9678   2.3837   3.4314   H         1 RES1   0.0000
    82 H36      8.1587   2.0910   2.8956   H         1 RES1   0.0000
    83 H37      9.7012   1.5978   4.4789   H         1 RES1   0.0000
    84 H38      9.1245   1.3853   6.6417   H         1 RES1   0.0000
    85 H39      6.8644   1.7141   7.3208   H         1 RES1   0.0000
    86 Cl1      8.9843   5.8644   0.0882   Cl        2 RES2  -1.0000
    87 P1       0.0000   0.0000   0.0000   P.3       3 RES3  -1.0000
    88 F1      -1.1746  -0.5734  -0.8046   F         3 RES3   0.0000
    89 F2      -0.8599  -0.2005   1.2726   F         3 RES3   0.0000
    90 F3      -0.5639   1.4751  -0.1932   F         3 RES3   0.0000
    91 F1B      1.1746   0.5734   0.8046   F         3 RES3   0.0000
    92 F2B      0.8599   0.2005  -1.2726   F         3 RES3   0.0000
    93 F3B      0.5639  -1.4751   0.1932   F         3 RES3   0.0000
    94 P2       5.0583  10.0239   0.0000   P.3       4 RES4  -1.0000
    95 F4       4.4651   8.9393  -0.7886   F         4 RES4   0.0000
    96 F5       6.1601   9.0956   0.2509   F         4 RES4   0.0000
    97 F6       5.7601  10.5732  -1.2606   F         4 RES4   0.0000
    98 F4B      5.6515  11.1084   0.7886   F         4 RES4   0.0000
    99 F5B      3.9565  10.9521  -0.2509   F         4 RES4   0.0000
   100 F6B      4.3565   9.4745   1.2606   F         4 RES4   0.0000
   101 O1       9.1139   9.5026   0.8962   O.3       5 RES5   0.0000
@<TRIPOS>BOND
     1     1     3    1
     2     2    12    1
     3     3    12    2
     4     4     1    1
     5     5    24    1
     6     6     1    1
     7     7     1    1
     8     8    36    1
     9     9     1    1
    10    10     1    1
    11    11    12    1
    12    13     2    1
    13    14     3    1
    14    15     4    2
    15    16     4    1
    16    17    16    1
    17    18    17   ar
    18    19    18   ar
    19    20    19   ar
    20    21    20   ar
    21    22    17   ar
    22    23    24    1
    23    24     6    2
    24    25     5    1
    25    26     6    1
    26    27     7    2
    27    28     7    1
    28    29    28    1
    29    30    29   ar
    30    31    30   ar
    31    32    31   ar
    32    33    32   ar
    33    34    29   ar
    34    35    36    1
    35    36     9    2
    36    37     8    1
    37    38     9    1
    38    39    10    2
    39    40    10    1
    40    41    40    1
    41    42    41   ar
    42    43    42   ar
    43    44    43   ar
    44    45    44   ar
    45    46    41   ar
    46    47     2    1
    47    48     5    1
    48    49     8    1
    49    50    11    1
    50    51    11    1
    51    52    11    1
    52    53    13    1
    53    54    15    1
    54    55    16    1
    55    56    16    1
    56    57    18    1
    57    58    19    1
    58    59    20    1
    59    60    21    1
    60    61    22    1
    61    62    23    1
    62    63    23    1
    63    64    23    1
    64    65    25    1
    65    66    27    1
    66    67    28    1
    67    68    28    1
    68    69    30    1
    69    70    31    1
    70    71    32    1
    71    72    33    1
    72    73    34    1
    73    74    35    1
    74    75    35    1
    75    76    35    1
    76    77    37    1
    77    78    39    1
    78    79    40    1
    79    80    40    1
    80    81    42    1
    81    82    43    1
    82    83    44    1
    83    84    45    1
    84    85    46    1
    85    13    14    2
    86    14    15    1
    87    21    22   ar
    88    25    26    2
    89    26    27    1
    90    33    34   ar
    91    37    38    2
    92    38    39    1
    93    45    46   ar
    94    87    88    1
    95    89    87    1
    96    90    87    1
    97    91    87    1
    98    92    87    1
    99    93    87    1
   100    94    95    1
   101    96    94    1
   102    97    94    1
   103    98    94    1
   104    99    94    1
   105   100    94    1
@<TRIPOS>SUBSTRUCTURE
     1 RES1        1 GROUP             0 ****  ****    0  
     2 RES2       86 GROUP             0 ****  ****    0  
     3 RES3       87 GROUP             0 ****  ****    0  
     4 RES4       94 GROUP             0 ****  ****    0  
     5 RES5      101 GROUP             0 ****  ****    0  
@<TRIPOS>CRYSIN
   10.1166   20.0477   19.9207   90.0000   91.3670   90.0000    14     1
