@<TRIPOS>MOLECULE
OKUHUY
   101   105     5     0     0
SMALL
USER_CHARGES
****
Generated from the CSD

@<TRIPOS>ATOM
     1 Fe1      9.0637   4.6802   5.2894   Fe        1 RES1   2.0000
     2 N1      12.6706   4.2973   2.9428   N.pl3     1 RES1   0.0000
     3 N2      10.8801   4.4324   4.1939   N.2       1 RES1   0.0000
     4 N3      10.6533   4.8440   6.8624   N.2       1 RES1   0.0000
     5 N4       5.6446   4.6927   7.9875   N.pl3     1 RES1   0.0000
     6 N5       7.3790   4.7310   6.6462   N.2       1 RES1   0.0000
     7 N6       8.6994   2.5461   5.4171   N.2       1 RES1   0.0000
     8 N7       6.1453   5.3726   2.1080   N.pl3     1 RES1   0.0000
     9 N8       7.6596   4.9852   3.6234   N.2       1 RES1   0.0000
    10 N9       9.0718   6.8756   5.0828   N.2       1 RES1   0.0000
    11 C1      10.4892   4.0330   1.7697   C.3       1 RES1   0.0000
    12 C2      11.3140   4.2468   2.9648   C.2       1 RES1   0.0000
    13 C3      13.1074   4.4789   4.2100   C.2       1 RES1   0.0000
    14 C4      12.0135   4.5797   4.9927   C.2       1 RES1   0.0000
    15 C5      11.8265   4.8017   6.3960   C.2       1 RES1   0.0000
    16 C6      10.5068   5.1366   8.3198   C.3       1 RES1   0.0000
    17 C7      10.2639   3.8817   9.1146   C.ar      1 RES1   0.0000
    18 C8      11.3211   3.0948   9.5370   C.ar      1 RES1   0.0000
    19 C9      11.0728   1.9630  10.2917   C.ar      1 RES1   0.0000
    20 C10      9.8015   1.6120  10.6360   C.ar      1 RES1   0.0000
    21 C11      8.7870   2.3585  10.2056   C.ar      1 RES1   0.0000
    22 C12      8.9937   3.4762   9.4569   C.ar      1 RES1   0.0000
    23 C13      6.6713   6.8716   7.6232   C.3       1 RES1   0.0000
    24 C14      6.5711   5.3645   7.3929   C.2       1 RES1   0.0000
    25 C15      5.8305   3.3329   7.6091   C.2       1 RES1   0.0000
    26 C16      6.8881   3.3551   6.8164   C.2       1 RES1   0.0000
    27 C17      7.6277   2.3000   6.0917   C.2       1 RES1   0.0000
    28 C18      9.2886   1.4667   4.7304   C.3       1 RES1   0.0000
    29 C19     10.7668   1.2932   5.1508   C.ar      1 RES1   0.0000
    30 C20     11.6567   1.1177   4.1759   C.ar      1 RES1   0.0000
    31 C21     13.0886   0.8595   4.4722   C.ar      1 RES1   0.0000
    32 C22     13.3682   0.8433   5.8755   C.ar      1 RES1   0.0000
    33 C23     12.4220   1.0632   6.7163   C.ar      1 RES1   0.0000
    34 C24     11.0681   1.2670   6.4180   C.ar      1 RES1   0.0000
    35 C25      6.5829   2.9334   2.5944   C.3       1 RES1   0.0000
    36 C26      6.8060   4.4526   2.7966   C.2       1 RES1   0.0000
    37 C27      6.5128   6.5508   2.4983   C.2       1 RES1   0.0000
    38 C28      7.4592   6.3854   3.4012   C.2       1 RES1   0.0000
    39 C29      8.2514   7.3094   4.2100   C.2       1 RES1   0.0000
    40 C30      9.8438   7.8804   5.8335   C.3       1 RES1   0.0000
    41 C31     11.2571   7.9853   5.4131   C.ar      1 RES1   0.0000
    42 C32     12.1918   8.2859   6.4000   C.ar      1 RES1   0.0000
    43 C33     13.5283   8.4876   5.9736   C.ar      1 RES1   0.0000
    44 C34     13.8325   8.3504   4.6984   C.ar      1 RES1   0.0000
    45 C35     12.9222   8.0660   3.8136   C.ar      1 RES1   0.0000
    46 C36     11.6608   7.9106   4.1179   C.ar      1 RES1   0.0000
    47 H1      10.2840   4.8662   1.3593   H         1 RES1   0.0000
    48 H2       9.6840   3.6012   2.0299   H         1 RES1   0.0000
    49 H3      10.9577   3.4842   1.1531   H         1 RES1   0.0000
    50 H4      13.2077   4.2025   2.1640   H         1 RES1   0.0000
    51 H5      14.0123   4.5474   4.4922   H         1 RES1   0.0000
    52 H6      12.5796   4.9247   6.9625   H         1 RES1   0.0000
    53 H7      12.2086   3.3511   9.3168   H         1 RES1   0.0000
    54 H8      11.8024   1.4264  10.5799   H         1 RES1   0.0000
    55 H9       9.6454   0.8332  11.1585   H         1 RES1   0.0000
    56 H10      7.9005   2.0962  10.4278   H         1 RES1   0.0000
    57 H11      8.2528   3.9987   9.1746   H         1 RES1   0.0000
    58 H12     11.3049   5.5461   8.6321   H         1 RES1   0.0000
    59 H13      9.7769   5.7337   8.4419   H         1 RES1   0.0000
    60 H14      6.1466   7.3094   6.9625   H         1 RES1   0.0000
    61 H15      7.5754   7.1520   7.5451   H         1 RES1   0.0000
    62 H16      6.3431   7.0935   8.4860   H         1 RES1   0.0000
    63 H17      4.9774   5.0458   8.5640   H         1 RES1   0.0000
    64 H18      5.3206   2.5784   7.8774   H         1 RES1   0.0000
    65 H19      7.3137   1.4062   6.1618   H         1 RES1   0.0000
    66 H20     11.3560   1.1338   3.2751   H         1 RES1   0.0000
    67 H21     13.7393   0.7223   3.7956   H         1 RES1   0.0000
    68 H22     14.2639   0.7021   6.1598   H         1 RES1   0.0000
    69 H23     12.6556   1.0632   7.6372   H         1 RES1   0.0000
    70 H24     10.4054   1.3880   7.0867   H         1 RES1   0.0000
    71 H25      8.8077   0.6678   4.9106   H         1 RES1   0.0000
    72 H26      9.2495   1.6584   3.7996   H         1 RES1   0.0000
    73 H27      5.9182   2.6328   3.2030   H         1 RES1   0.0000
    74 H28      7.3957   2.4714   2.7606   H         1 RES1   0.0000
    75 H29      6.2982   2.7680   1.7036   H         1 RES1   0.0000
    76 H30      5.4901   5.1930   1.4454   H         1 RES1   0.0000
    77 H31      6.1631   7.3780   2.1861   H         1 RES1   0.0000
    78 H32      8.1777   8.2475   4.0858   H         1 RES1   0.0000
    79 H33     11.9317   8.3686   7.3089   H         1 RES1   0.0000
    80 H34     14.2022   8.6974   6.6102   H         1 RES1   0.0000
    81 H35     14.7341   8.4715   4.4242   H         1 RES1   0.0000
    82 H36     13.1713   7.9711   2.9027   H         1 RES1   0.0000
    83 H37     11.0108   7.7290   3.4492   H         1 RES1   0.0000
    84 H38      9.4278   8.7257   5.7194   H         1 RES1   0.0000
    85 H39      9.8263   7.6403   6.7523   H         1 RES1   0.0000
    86 Cl1     14.0729   4.2267   0.1089   Cl        2 RES2  -1.0000
    87 P1       4.8818   0.0000  10.0094   P.3       3 RES3  -1.0000
    88 F1       4.0162  -0.2058  11.2666   F         3 RES3   0.0000
    89 F2       6.0439   0.5427  10.7901   F         3 RES3   0.0000
    90 F3       4.3610   1.4566   9.8112   F         3 RES3   0.0000
    91 F1B      5.7473   0.2058   8.7522   F         3 RES3   0.0000
    92 F2B      3.7196  -0.5427   9.2287   F         3 RES3   0.0000
    93 F3B      5.4025  -1.4566  10.2076   F         3 RES3   0.0000
    94 P2       0.0000   0.0000   0.0000   P.3       4 RES4  -1.0000
    95 F4      -0.7333   0.5407   1.2231   F         4 RES4   0.0000
    96 F5       1.1531   0.8958   0.2663   F         4 RES4   0.0000
    97 F6      -0.5323   1.1459  -0.7967   F         4 RES4   0.0000
    98 F4B      0.7333  -0.5407  -1.2231   F         4 RES4   0.0000
    99 F5B     -1.1531  -0.8958  -0.2663   F         4 RES4   0.0000
   100 F6B      0.5323  -1.1459   0.7967   F         4 RES4   0.0000
   101 O1       5.0605   0.0000   0.0000   O.3       5 RES5   0.0000
@<TRIPOS>BOND
     1     1     3    1
     2     2    12    1
     3     3    12    2
     4     4     1    1
     5     5    24    1
     6     6     1    1
     7     7     1    1
     8     8    36    1
     9     9     1    1
    10    10     1    1
    11    11    12    1
    12    13     2    1
    13    14     3    1
    14    15     4    2
    15    16     4    1
    16    17    16    1
    17    18    17   ar
    18    19    18   ar
    19    20    19   ar
    20    21    20   ar
    21    22    17   ar
    22    23    24    1
    23    24     6    2
    24    25     5    1
    25    26     6    1
    26    27     7    2
    27    28     7    1
    28    29    28    1
    29    30    29   ar
    30    31    30   ar
    31    32    31   ar
    32    33    32   ar
    33    34    29   ar
    34    35    36    1
    35    36     9    2
    36    37     8    1
    37    38     9    1
    38    39    10    2
    39    40    10    1
    40    41    40    1
    41    42    41   ar
    42    43    42   ar
    43    44    43   ar
    44    45    44   ar
    45    46    41   ar
    46    47    11    1
    47    48    11    1
    48    49    11    1
    49    50     2    1
    50    51    13    1
    51    52    15    1
    52    53    18    1
    53    54    19    1
    54    55    20    1
    55    56    21    1
    56    57    22    1
    57    58    16    1
    58    59    16    1
    59    60    23    1
    60    61    23    1
    61    62    23    1
    62    63     5    1
    63    64    25    1
    64    65    27    1
    65    66    30    1
    66    67    31    1
    67    68    32    1
    68    69    33    1
    69    70    34    1
    70    71    28    1
    71    72    28    1
    72    73    35    1
    73    74    35    1
    74    75    35    1
    75    76     8    1
    76    77    37    1
    77    78    39    1
    78    79    42    1
    79    80    43    1
    80    81    44    1
    81    82    45    1
    82    83    46    1
    83    84    40    1
    84    85    40    1
    85    13    14    2
    86    14    15    1
    87    21    22   ar
    88    25    26    2
    89    26    27    1
    90    33    34   ar
    91    37    38    2
    92    38    39    1
    93    45    46   ar
    94    87    88    1
    95    89    87    1
    96    90    87    1
    97    91    87    1
    98    92    87    1
    99    93    87    1
   100    94    95    1
   101    96    94    1
   102    97    94    1
   103    98    94    1
   104    99    94    1
   105   100    94    1
@<TRIPOS>SUBSTRUCTURE
     1 RES1        1 GROUP             0 ****  ****    0  
     2 RES2       86 GROUP             0 ****  ****    0  
     3 RES3       87 GROUP             0 ****  ****    0  
     4 RES4       94 GROUP             0 ****  ****    0  
     5 RES5      101 GROUP             0 ****  ****    0  
@<TRIPOS>CRYSIN
   10.1210   20.1750   20.0220   90.0000   91.0230   90.0000    14     1
