@<TRIPOS>MOLECULE
OLASUR
   103   115     1     0     0
SMALL
NO_CHARGES
****
Generated from the CSD

@<TRIPOS>ATOM
     1 Fe1     -4.3415   4.0125  10.6807   Fe        1 RES1   0.0000
     2 F1      -3.4162   1.9270   6.9913   F         1 RES1   0.0000
     3 F2      -5.3098   6.1283  14.3299   F         1 RES1   0.0000
     4 O1      -5.9358   4.3253  13.0538   O.3       1 RES1   0.0000
     5 O2      -4.0049   1.5723   9.1904   O.3       1 RES1   0.0000
     6 O3      -3.5883   5.0432  13.2431   O.3       1 RES1   0.0000
     7 O4      -5.2205   6.4428  12.0437   O.3       1 RES1   0.0000
     8 O5      -2.5635   3.4334   8.4957   O.3       1 RES1   0.0000
     9 O6      -4.9339   3.4260   7.8755   O.3       1 RES1   0.0000
    10 N1      -5.0335   5.8107  10.8197   N.2       1 RES1   0.0000
    11 N2      -3.1309   4.5502  12.0413   N.2       1 RES1   0.0000
    12 N3      -5.1984   4.2535   8.9654   N.2       1 RES1   0.0000
    13 N4      -4.5061   2.1529  10.3367   N.2       1 RES1   0.0000
    14 C1      -1.6013   4.3785  10.3465   C.2       1 RES1   0.0000
    15 N5      -5.5972   3.5094  12.0062   N.2       1 RES1   0.0000
    16 N6      -2.7031   4.0284   9.7260   N.2       1 RES1   0.0000
    17 N7      -5.8035   5.8468   7.3528   N.pl3     1 RES1   0.0000
    18 H1      -6.1015   5.2629   6.7653   H         1 RES1   0.0000
    19 N8      -6.5643   7.3820   9.9368   N.pl3     1 RES1   0.0000
    20 H2      -6.2892   8.1014  10.3623   H         1 RES1   0.0000
    21 C2      -6.9387   1.7194  13.0792   C.ar      1 RES1   0.0000
    22 C3      -5.9061   0.1344  10.5827   C.ar      1 RES1   0.0000
    23 C4      -6.7070   0.4573  13.6400   C.ar      1 RES1   0.0000
    24 H3      -5.9479  -0.0448  13.3695   H         1 RES1   0.0000
    25 C5      -1.8828   4.7958  11.7161   C.2       1 RES1   0.0000
    26 C6      -8.4395   8.7426   9.0415   C.3       1 RES1   0.0000
    27 H4      -8.5119   9.2499   9.8886   H         1 RES1   0.0000
    28 H5      -7.8256   9.2304   8.4384   H         1 RES1   0.0000
    29 N9      -6.5445   9.7003   5.5091   N.ar      1 RES1   0.0000
    30 C7      -7.5632  -0.0606  14.5743   C.ar      1 RES1   0.0000
    31 H6      -7.3612  -0.8852  14.9991   H         1 RES1   0.0000
    32 C8      -5.0656  -0.9703  10.6473   C.ar      1 RES1   0.0000
    33 H7      -4.1706  -0.8701  10.9495   H         1 RES1   0.0000
    34 C9      -5.6488   8.8227   5.0485   C.ar      1 RES1   0.0000
    35 C10     -0.0579   6.4480  12.1133   C.ar      1 RES1   0.0000
    36 H8      -0.1987   6.7986  11.2411   H         1 RES1   0.0000
    37 C11     -5.5876   5.4528   8.6350   C.2       1 RES1   0.0000
    38 C12     -8.7439   0.6322  14.9041   C.ar      1 RES1   0.0000
    39 H9      -9.3684   0.2492  15.5085   H         1 RES1   0.0000
    40 C13     -5.4342   1.4778  10.9851   C.2       1 RES1   0.0000
    41 C14     -6.0115   2.2559  12.0632   C.2       1 RES1   0.0000
    42 C15      2.0524   3.5561   9.9110   C.ar      1 RES1   0.0000
    43 H10      2.7661   3.1837  10.4151   H         1 RES1   0.0000
    44 C16     -5.7585   6.2872   9.8464   C.2       1 RES1   0.0000
    45 C17     -0.6625   4.9177  13.8696   C.ar      1 RES1   0.0000
    46 H11     -1.2223   4.2270  14.2074   H         1 RES1   0.0000
    47 C18     -0.8672   5.4191  12.5963   C.ar      1 RES1   0.0000
    48 C19     -8.0714   2.4293  13.4606   C.ar      1 RES1   0.0000
    49 H12     -8.2216   3.3017  13.1149   H         1 RES1   0.0000
    50 C20     -5.8810   7.3838   5.4602   C.3       1 RES1   0.0000
    51 H13     -5.3072   6.7834   4.9205   H         1 RES1   0.0000
    52 H14     -6.8255   7.1365   5.2993   H         1 RES1   0.0000
    53 C21     -0.2516   4.2573   9.7566   C.ar      1 RES1   0.0000
    54 C22     -6.3665  10.9856   5.2148   C.ar      1 RES1   0.0000
    55 H15     -6.9735  11.6182   5.5777   H         1 RES1   0.0000
    56 C23     -6.8296  -2.3686   9.8055   C.ar      1 RES1   0.0000
    57 H16     -7.1360  -3.2221   9.5218   H         1 RES1   0.0000
    58 C24     -7.8969   7.3498   9.3172   C.3       1 RES1   0.0000
    59 H17     -8.5229   6.8706   9.9176   H         1 RES1   0.0000
    60 H18     -7.8482   6.8475   8.4661   H         1 RES1   0.0000
    61 C25     -0.0123   4.6845   8.4477   C.ar      1 RES1   0.0000
    62 H19     -0.7150   5.0726   7.9410   H         1 RES1   0.0000
    63 C26     -5.5496   7.2249   6.9315   C.3       1 RES1   0.0000
    64 H20     -4.5986   7.4510   7.0859   H         1 RES1   0.0000
    65 H21     -6.1050   7.8453   7.4659   H         1 RES1   0.0000
    66 C27      0.3660   5.4291  14.6548   C.ar      1 RES1   0.0000
    67 H22      0.5118   5.0821  15.5256   H         1 RES1   0.0000
    68 C28     -7.6763  -1.2756   9.7553   C.ar      1 RES1   0.0000
    69 H23     -8.5699  -1.3838   9.4518   H         1 RES1   0.0000
    70 C29     -8.9901   1.8692  14.3473   C.ar      1 RES1   0.0000
    71 H24     -9.7851   2.3390  14.5677   H         1 RES1   0.0000
    72 B1      -5.0144   5.4867  13.1610   B         1 RES1   0.0000
    73 C30     -7.2320  -0.0296  10.1419   C.ar      1 RES1   0.0000
    74 H25     -7.8203   0.7167  10.1116   H         1 RES1   0.0000
    75 C31      0.7892   3.7060  10.4956   C.ar      1 RES1   0.0000
    76 H26      0.6440   3.4309  11.3929   H         1 RES1   0.0000
    77 C32      0.9521   6.9578  12.9130   C.ar      1 RES1   0.0000
    78 H27      1.4960   7.6687  12.5950   H         1 RES1   0.0000
    79 C33      2.2611   3.9404   8.6324   C.ar      1 RES1   0.0000
    80 H28      3.1105   3.8010   8.2313   H         1 RES1   0.0000
    81 C34    -12.0600   8.1534   8.6614   C.ar      1 RES1   0.0000
    82 H29    -12.7941   7.9436   9.2262   H         1 RES1   0.0000
    83 C35      1.1736   6.4322  14.1771   C.ar      1 RES1   0.0000
    84 H30      1.8827   6.7673  14.7128   H         1 RES1   0.0000
    85 N10    -10.8127   8.3520   9.2156   N.ar      1 RES1   0.0000
    86 B2      -3.7357   2.5934   8.1349   B         1 RES1   0.0000
    87 C36     -9.7956   8.6216   8.4002   C.ar      1 RES1   0.0000
    88 C37     -4.5705   9.1937   4.3149   C.ar      1 RES1   0.0000
    89 H31     -3.9062   8.5591   4.0721   H         1 RES1   0.0000
    90 C38     -5.5341  -2.2138  10.2699   C.ar      1 RES1   0.0000
    91 H32     -4.9630  -2.9719  10.3320   H         1 RES1   0.0000
    92 C39      1.2332   4.5436   7.8935   C.ar      1 RES1   0.0000
    93 H33      1.3993   4.8526   7.0120   H         1 RES1   0.0000
    94 C40     -5.3427  11.4434   4.4125   C.ar      1 RES1   0.0000
    95 H34     -5.2640  12.3689   4.2120   H         1 RES1   0.0000
    96 C41    -11.2301   8.5107   6.5172   C.ar      1 RES1   0.0000
    97 H35    -11.3653   8.5640   5.5790   H         1 RES1   0.0000
    98 C42    -12.2543   8.2511   7.3300   C.ar      1 RES1   0.0000
    99 H36    -13.1256   8.1327   6.9698   H         1 RES1   0.0000
   100 C43     -9.9565   8.7046   7.0608   C.ar      1 RES1   0.0000
   101 H37     -9.2151   8.8920   6.4974   H         1 RES1   0.0000
   102 C44     -4.4584  10.5573   3.9177   C.ar      1 RES1   0.0000
   103 H38     -3.7763  10.8337   3.3186   H         1 RES1   0.0000
@<TRIPOS>BOND
     1     1    10    1
     2     2    86    1
     3     3    72    1
     4     4    15    1
     5     5    13    1
     6     6    11    1
     7     7    10    1
     8     8    16    1
     9     9    12    1
    10    10    44    2
    11    11     1    1
    12    12     1    1
    13    13     1    1
    14    14    16    2
    15    15     1    1
    16    16     1    1
    17    17    18    1
    18    19    20    1
    19    21    23   ar
    20    22    32   ar
    21    23    24    1
    22    25    11    2
    23    26    27    1
    24    28    26    1
    25    29    34   ar
    26    30    23   ar
    27    31    30    1
    28    32    33    1
    29    34    50    1
    30    35    36    1
    31    37    12    2
    32    38    30   ar
    33    39    38    1
    34    40    13    2
    35    41    15    2
    36    42    43    1
    37    44    19    1
    38    45    46    1
    39    47    25    1
    40    48    21   ar
    41    49    48    1
    42    50    51    1
    43    52    50    1
    44    53    14    1
    45    54    29   ar
    46    55    54    1
    47    56    57    1
    48    58    19    1
    49    59    58    1
    50    60    58    1
    51    61    53   ar
    52    62    61    1
    53    63    17    1
    54    64    63    1
    55    65    63    1
    56    66    45   ar
    57    67    66    1
    58    68    56   ar
    59    69    68    1
    60    70    38   ar
    61    71    70    1
    62    72     4    1
    63    73    22   ar
    64    74    73    1
    65    75    42   ar
    66    76    75    1
    67    77    35   ar
    68    78    77    1
    69    79    42   ar
    70    80    79    1
    71    81    82    1
    72    83    66   ar
    73    84    83    1
    74    85    81   ar
    75    86     5    1
    76    87    26    1
    77    88    34   ar
    78    89    88    1
    79    90    32   ar
    80    91    90    1
    81    92    61   ar
    82    93    92    1
    83    94    54   ar
    84    95    94    1
    85    96    97    1
    86    98    81   ar
    87    99    98    1
    88   100    87   ar
    89   101   100    1
    90   102    88   ar
    91   103   102    1
    92     6    72    1
    93     7    72    1
    94     8    86    1
    95     9    86    1
    96    14    25    1
    97    17    37    1
    98    21    41    1
    99    22    40    1
   100    26    58    1
   101    35    47   ar
   102    37    44    1
   103    40    41    1
   104    45    47   ar
   105    48    70   ar
   106    50    63    1
   107    53    75   ar
   108    56    90   ar
   109    68    73   ar
   110    77    83   ar
   111    79    92   ar
   112    85    87   ar
   113    94   102   ar
   114    96    98   ar
   115    96   100   ar
@<TRIPOS>SUBSTRUCTURE
     1 RES1        1 GROUP             0 ****  ****    0  
@<TRIPOS>CRYSIN
   10.8262   14.8955   15.0454  112.9680  100.1620  104.1400     2     1
