@<TRIPOS>MOLECULE
OLUVEX
   102   108     2     0     0
SMALL
NO_CHARGES
****
Generated from the CSD

@<TRIPOS>ATOM
     1 Fe1      9.4100   4.1864  10.5124   Fe        1 RES1   0.0000
     2 O1      11.0765   4.9797   9.7314   O.2       1 RES1   0.0000
     3 O2       7.8620   5.1518   9.6621   O.2       1 RES1   0.0000
     4 O3       3.9258   3.1479  11.3596   O.2       1 RES1   0.0000
     5 O4       3.9356   4.4164   9.5137   O.3       1 RES1   0.0000
     6 O5      14.7412   2.6551  11.6136   O.2       1 RES1   0.0000
     7 O6      14.9335   3.9341   9.7817   O.3       1 RES1   0.0000
     8 N1      10.6696   2.9582  11.6455   N.2       1 RES1   0.0000
     9 N2       7.9929   3.1116  11.5955   N.2       1 RES1   0.0000
    10 N3       9.4045   2.7231   8.8279   N.ar      1 RES1   0.0000
    11 N4       9.4722   2.5271  -0.4109   N.ar      1 RES1   0.0000
    12 C1       6.6102   5.1267   9.8937   C.2       1 RES1   0.0000
    13 C2       5.9879   4.0701  10.5943   C.2       1 RES1   0.0000
    14 C3       6.7033   3.1730  11.4385   C.2       1 RES1   0.0000
    15 H1       6.1838   2.5543  11.9389   H         1 RES1   0.0000
    16 C4       8.5663   2.2517  12.5726   C.ar      1 RES1   0.0000
    17 C5       7.8332   1.5470  13.5266   C.ar      1 RES1   0.0000
    18 H2       6.8867   1.6280  13.5389   H         1 RES1   0.0000
    19 C6       8.4468   0.7389  14.4482   C.ar      1 RES1   0.0000
    20 H3       7.9257   0.2559  15.0787   H         1 RES1   0.0000
    21 C7       9.8232   0.6301  14.4565   C.ar      1 RES1   0.0000
    22 H4      10.2509   0.0644  15.0887   H         1 RES1   0.0000
    23 C8      10.5715   1.3404  13.5510   C.ar      1 RES1   0.0000
    24 H5      11.5197   1.2730  13.5766   H         1 RES1   0.0000
    25 C9       9.9690   2.1614  12.5909   C.ar      1 RES1   0.0000
    26 C10     11.9680   2.8913  11.5428   C.2       1 RES1   0.0000
    27 H6      12.4023   2.2175  12.0519   H         1 RES1   0.0000
    28 C11     12.7980   3.7277  10.7442   C.2       1 RES1   0.0000
    29 C12     12.3067   4.8260  10.0022   C.2       1 RES1   0.0000
    30 C13     13.1547   5.9789   9.5772   C.ar      1 RES1   0.0000
    31 C14     13.8227   6.7348  10.5197   C.ar      1 RES1   0.0000
    32 H7      13.8488   6.4461  11.4239   H         1 RES1   0.0000
    33 C15     14.4533   7.9074  10.1554   C.ar      1 RES1   0.0000
    34 H8      14.8955   8.4308  10.8136   H         1 RES1   0.0000
    35 C16     14.4444   8.3180   8.8536   C.ar      1 RES1   0.0000
    36 H9      14.8897   9.1194   8.6031   H         1 RES1   0.0000
    37 C17     13.7939   7.5727   7.9091   C.ar      1 RES1   0.0000
    38 H10     13.8044   7.8513   7.0006   H         1 RES1   0.0000
    39 C18     13.1190   6.4149   8.2615   C.ar      1 RES1   0.0000
    40 H11     12.6360   5.9244   7.6084   H         1 RES1   0.0000
    41 C19      5.8972   6.3834   9.5076   C.ar      1 RES1   0.0000
    42 C20      6.2102   7.0183   8.3188   C.ar      1 RES1   0.0000
    43 H12      6.7921   6.5980   7.6963   H         1 RES1   0.0000
    44 C21      5.6762   8.2688   8.0304   C.ar      1 RES1   0.0000
    45 H13      5.8864   8.6967   7.2090   H         1 RES1   0.0000
    46 C22      4.8379   8.8930   8.9400   C.ar      1 RES1   0.0000
    47 H14      4.4804   9.7518   8.7488   H         1 RES1   0.0000
    48 C23      4.5289   8.2642  10.1140   C.ar      1 RES1   0.0000
    49 H15      3.9513   8.6884  10.7357   H         1 RES1   0.0000
    50 C24      5.0496   7.0176  10.4036   C.ar      1 RES1   0.0000
    51 H16      4.8261   6.5914  11.2230   H         1 RES1   0.0000
    52 C25      4.5386   3.8363  10.5724   C.2       1 RES1   0.0000
    53 C26      2.4996   4.3029   9.4421   C.3       1 RES1   0.0000
    54 H17      2.0896   4.5886  10.2961   H         1 RES1   0.0000
    55 H18      2.2383   3.3651   9.2637   H         1 RES1   0.0000
    56 C27      2.0434   5.1929   8.3225   C.3       1 RES1   0.0000
    57 H19      2.3889   4.8495   7.4728   H         1 RES1   0.0000
    58 H20      2.3793   6.1010   8.4700   H         1 RES1   0.0000
    59 H21      1.0641   5.2061   8.2942   H         1 RES1   0.0000
    60 C28     14.2211   3.3945  10.7990   C.2       1 RES1   0.0000
    61 C29     16.3572   3.6979   9.7993   C.3       1 RES1   0.0000
    62 H22     16.5448   2.7310   9.7008   H         1 RES1   0.0000
    63 H23     16.7456   4.0074  10.6553   H         1 RES1   0.0000
    64 C30     16.9482   4.4603   8.6564   C.3       1 RES1   0.0000
    65 H24     16.6954   5.4042   8.7287   H         1 RES1   0.0000
    66 H25     16.6124   4.0949   7.8119   H         1 RES1   0.0000
    67 H26     17.9256   4.3822   8.6810   H         1 RES1   0.0000
    68 C31     10.5804   1.2892   7.3208   C.ar      1 RES1   0.0000
    69 H27     11.4193   0.9643   7.0156   H         1 RES1   0.0000
    70 C32     10.5391   2.2155   8.3447   C.ar      1 RES1   0.0000
    71 H28     11.3614   2.5065   8.7237   H         1 RES1   0.0000
    72 C33      8.2782   2.2627   8.2743   C.ar      1 RES1   0.0000
    73 H29      7.4506   2.5907   8.6056   H         1 RES1   0.0000
    74 C34      8.2480   1.3402   7.2522   C.ar      1 RES1   0.0000
    75 H30      7.4140   1.0518   6.9001   H         1 RES1   0.0000
    76 C35      9.4249   0.8340   6.7403   C.ar      1 RES1   0.0000
    77 C36      9.4468  -0.0869   5.5489   C.3       1 RES1   0.0000
    78 H31      8.6403  -0.6605   5.5562   H         1 RES1   0.0000
    79 H32     10.2432  -0.6737   5.5939   H         1 RES1   0.0000
    80 C37      9.4838   0.7328   4.2609   C.3       1 RES1   0.0000
    81 H33     10.2644   1.3407   4.2903   H         1 RES1   0.0000
    82 H34      8.6692   1.2929   4.2124   H         1 RES1   0.0000
    83 C38      9.5707  -0.1222   2.9969   C.3       1 RES1   0.0000
    84 H35     10.4073  -0.6522   3.0117   H         1 RES1   0.0000
    85 H36      8.8064  -0.7513   2.9690   H         1 RES1   0.0000
    86 C39      9.5487   0.7569   1.7716   C.ar      1 RES1   0.0000
    87 C40     10.6910   1.3729   1.2951   C.ar      1 RES1   0.0000
    88 H37     11.5294   1.1987   1.7056   H         1 RES1   0.0000
    89 C41     10.6150   2.2362   0.2286   C.ar      1 RES1   0.0000
    90 H38     11.4154   2.6501  -0.0728   H         1 RES1   0.0000
    91 C42      8.3755   1.9315   0.0575   C.ar      1 RES1   0.0000
    92 H39      7.5472   2.1217  -0.3692   H         1 RES1   0.0000
    93 C43      8.3707   1.0577   1.1215   C.ar      1 RES1   0.0000
    94 H40      7.5549   0.6621   1.4066   H         1 RES1   0.0000
    95 Fe1G     9.4100   4.0694  -2.0469   Fe        1 RES1   0.0000
    96 N4G      9.4722   5.7287  12.1484   N.3       1 RES1   0.0000
    97 O7      13.8140   3.0299   7.2028   O.3       2 RES2   0.0000
    98 H41     14.1829   3.3370   7.8923   H         2 RES2   0.0000
    99 C44     14.4146   3.5252   6.1141   C.3       2 RES2   0.0000
   100 H42     14.5363   4.4912   6.2194   H         2 RES2   0.0000
   101 H43     13.8584   3.3519   5.3251   H         2 RES2   0.0000
   102 H44     15.2875   3.0959   5.9983   H         2 RES2   0.0000
@<TRIPOS>BOND
     1     1     2    1
     2     2    29    2
     3     3     1    1
     4     4    52    2
     5     5    52    1
     6     6    60    2
     7     7    60    1
     8     8     1    1
     9     9     1    1
    10    10     1    1
    11    11    89   ar
    12    12     3    2
    13    13    12    1
    14    14     9    1
    15    15    14    1
    16    16     9    1
    17    17    16   ar
    18    18    17    1
    19    19    17   ar
    20    20    19    1
    21    21    19   ar
    22    22    21    1
    23    23    21   ar
    24    24    23    1
    25    25     8    1
    26    26     8    1
    27    27    26    1
    28    28    26    2
    29    29    28    1
    30    30    29    1
    31    31    30   ar
    32    32    31    1
    33    33    31   ar
    34    34    33    1
    35    35    33   ar
    36    36    35    1
    37    37    35   ar
    38    38    37    1
    39    39    30   ar
    40    40    39    1
    41    41    12    1
    42    42    41   ar
    43    43    42    1
    44    44    42   ar
    45    45    44    1
    46    46    44   ar
    47    47    46    1
    48    48    46   ar
    49    49    48    1
    50    50    41   ar
    51    51    50    1
    52    52    13    1
    53    53     5    1
    54    54    53    1
    55    55    53    1
    56    56    53    1
    57    57    56    1
    58    58    56    1
    59    59    56    1
    60    60    28    1
    61    61     7    1
    62    62    61    1
    63    63    61    1
    64    64    61    1
    65    65    64    1
    66    66    64    1
    67    67    64    1
    68    68    69    1
    69    70    10   ar
    70    71    70    1
    71    72    10   ar
    72    73    72    1
    73    74    72   ar
    74    75    74    1
    75    76    68   ar
    76    77    76    1
    77    78    77    1
    78    79    77    1
    79    80    77    1
    80    81    80    1
    81    82    80    1
    82    83    80    1
    83    84    83    1
    84    85    83    1
    85    86    83    1
    86    87    86   ar
    87    88    87    1
    88    89    87   ar
    89    90    89    1
    90    91    11   ar
    91    92    91    1
    92    93    86   ar
    93    94    93    1
    94    95    11   un
    95    96     1   un
    96    13    14    2
    97    16    25   ar
    98    23    25   ar
    99    37    39   ar
   100    48    50   ar
   101    68    70   ar
   102    74    76   ar
   103    91    93   ar
   104    97    98    1
   105    99    97    1
   106   100    99    1
   107   101    99    1
   108   102    99    1
@<TRIPOS>SUBSTRUCTURE
     1 RES1        1 GROUP             0 ****  ****    0  
     2 RES2       97 GROUP             0 ****  ****    0  
@<TRIPOS>CRYSIN
   19.3122   16.5116   25.1186   90.0000   90.0000   90.0000    61     1
