@<TRIPOS>MOLECULE
OMOBEA
   112   121     1     0     0
SMALL
NO_CHARGES
****
Generated from the CSD

@<TRIPOS>ATOM
     1 Fe1     10.3161   8.8801   2.5742   Fe        1 RES1   0.0000
     2 O1      10.5696  10.6774   3.8567   O.co2     1 RES1   0.0000
     3 B1      10.0670   8.0240  -0.4568   B         1 RES1   0.0000
     4 H1       9.9499   7.7296  -1.5122   H         1 RES1   0.0000
     5 N1      11.2819   9.8144   0.8541   N.2       1 RES1   0.0000
     6 N2      10.9352   9.2864  -0.3613   N.pl3     1 RES1   0.0000
     7 O2      11.9577   8.9653   3.9229   O.co2     1 RES1   0.0000
     8 N3       8.5025   8.8699   1.3782   N.2       1 RES1   0.0000
     9 N4       8.6658   8.3117   0.1358   N.pl3     1 RES1   0.0000
    10 N5      10.7501   6.9421   1.7197   N.2       1 RES1   0.0000
    11 N6      10.7177   6.8831   0.3518   N.pl3     1 RES1   0.0000
    12 N7      13.7873  12.1250   9.2099   N.pl3     1 RES1   0.0000
    13 C1      11.0498  13.5419   1.1447   C.3       1 RES1   0.0000
    14 H2      11.3350  13.7786   0.2375   H         1 RES1   0.0000
    15 H3      10.7121  14.3414   1.5999   H         1 RES1   0.0000
    16 H4      10.3398  12.8680   1.0985   H         1 RES1   0.0000
    17 C2      12.2239  12.9842   1.9119   C.ar      1 RES1   0.0000
    18 C3      12.8600  13.7617   2.8781   C.ar      1 RES1   0.0000
    19 H5      12.5265  14.6311   3.0660   H         1 RES1   0.0000
    20 C4      13.9706  13.2965   3.5742   C.ar      1 RES1   0.0000
    21 C5      14.6634  14.1677   4.5935   C.3       1 RES1   0.0000
    22 H6      15.6287  14.0015   4.5632   H         1 RES1   0.0000
    23 H7      14.3235  13.9572   5.4881   H         1 RES1   0.0000
    24 H8      14.4878  15.1104   4.3908   H         1 RES1   0.0000
    25 C6      14.4468  12.0259   3.2827   C.ar      1 RES1   0.0000
    26 H9      15.2053  11.6980   3.7514   H         1 RES1   0.0000
    27 C7      13.8432  11.2189   2.3223   C.ar      1 RES1   0.0000
    28 C8      14.4398   9.8713   1.9913   C.3       1 RES1   0.0000
    29 H10     14.7383   9.8666   1.0578   H         1 RES1   0.0000
    30 H11     13.7637   9.1738   2.1215   H         1 RES1   0.0000
    31 H12     15.2043   9.6991   2.5796   H         1 RES1   0.0000
    32 N8       9.1858   8.0529   4.2703   N.1       1 RES1   0.0000
    33 C9      12.7103  11.6965   1.6478   C.ar      1 RES1   0.0000
    34 C10     12.0776  10.8657   0.5897   C.2       1 RES1   0.0000
    35 C11     12.2376  11.0160  -0.7896   C.2       1 RES1   0.0000
    36 H13     12.7442  11.6793  -1.2431   H         1 RES1   0.0000
    37 C12     11.5037   9.9969  -1.3499   C.2       1 RES1   0.0000
    38 H14     11.4137   9.8243  -2.2797   H         1 RES1   0.0000
    39 C13      5.5882   7.4626   3.5637   C.3       1 RES1   0.0000
    40 H15      4.9367   7.3378   2.8423   H         1 RES1   0.0000
    41 H16      5.2251   7.0995   4.3982   H         1 RES1   0.0000
    42 H17      6.4192   6.9947   3.3379   H         1 RES1   0.0000
    43 C14      5.8715   8.9370   3.7370   C.ar      1 RES1   0.0000
    44 C15      5.3776   9.6136   4.8505   C.ar      1 RES1   0.0000
    45 H18      4.8765   9.1320   5.4981   H         1 RES1   0.0000
    46 C16      5.5968  10.9737   5.0411   C.ar      1 RES1   0.0000
    47 C17      5.0806  11.6911   6.2673   C.3       1 RES1   0.0000
    48 H19      5.4630  12.5928   6.3035   H         1 RES1   0.0000
    49 H20      5.3408  11.1936   7.0706   H         1 RES1   0.0000
    50 H21      4.1036  11.7522   6.2230   H         1 RES1   0.0000
    51 C18      6.3039  11.6610   4.0693   C.ar      1 RES1   0.0000
    52 H22      6.4345  12.5966   4.1703   H         1 RES1   0.0000
    53 C19      6.8313  11.0214   2.9442   C.ar      1 RES1   0.0000
    54 C20      7.6090  11.8259   1.9324   C.3       1 RES1   0.0000
    55 H23      7.4679  11.4504   1.0383   H         1 RES1   0.0000
    56 H24      8.5632  11.7939   2.1533   H         1 RES1   0.0000
    57 H25      7.3011  12.7562   1.9483   H         1 RES1   0.0000
    58 C21      6.6272   9.6436   2.7868   C.ar      1 RES1   0.0000
    59 C22      7.1768   8.9646   1.5821   C.2       1 RES1   0.0000
    60 C23      6.4845   8.4549   0.4786   C.2       1 RES1   0.0000
    61 H26      5.5433   8.3969   0.3633   H         1 RES1   0.0000
    62 C24      7.4620   8.0561  -0.4032   C.2       1 RES1   0.0000
    63 H27      7.3103   7.6639  -1.2550   H         1 RES1   0.0000
    64 C25     13.6556   6.1074   3.7984   C.3       1 RES1   0.0000
    65 H28     13.9130   5.6332   2.9803   H         1 RES1   0.0000
    66 H29     14.3750   6.0323   4.4596   H         1 RES1   0.0000
    67 H30     13.4986   7.0526   3.5925   H         1 RES1   0.0000
    68 C26     12.3941   5.4983   4.3567   C.ar      1 RES1   0.0000
    69 C27     12.3577   5.0488   5.6763   C.ar      1 RES1   0.0000
    70 H31     13.1353   5.1367   6.2151   H         1 RES1   0.0000
    71 C28     11.2127   4.4739   6.2282   C.ar      1 RES1   0.0000
    72 C29     11.2130   3.9287   7.6318   C.3       1 RES1   0.0000
    73 H32     11.4807   2.9860   7.6160   H         1 RES1   0.0000
    74 H33     10.3133   4.0064   8.0126   H         1 RES1   0.0000
    75 H34     11.8450   4.4386   8.1803   H         1 RES1   0.0000
    76 C30     10.0772   4.3732   5.4292   C.ar      1 RES1   0.0000
    77 H35      9.2870   3.9905   5.7922   H         1 RES1   0.0000
    78 C31     10.0727   4.8193   4.1126   C.ar      1 RES1   0.0000
    79 C32      8.8173   4.7086   3.2810   C.3       1 RES1   0.0000
    80 H36      8.5745   5.5933   2.9366   H         1 RES1   0.0000
    81 H37      8.0875   4.3624   3.8359   H         1 RES1   0.0000
    82 H38      8.9752   4.0980   2.5308   H         1 RES1   0.0000
    83 C33     11.2440   5.3744   3.5704   C.ar      1 RES1   0.0000
    84 C34     11.2277   5.7587   2.1328   C.2       1 RES1   0.0000
    85 C35     11.5268   4.9435   1.0343   C.2       1 RES1   0.0000
    86 H39     11.8866   4.0644   1.0459   H         1 RES1   0.0000
    87 C36     11.1842   5.6971  -0.0672   C.2       1 RES1   0.0000
    88 H40     11.2649   5.4224  -0.9731   H         1 RES1   0.0000
    89 C37     11.5615  10.0916   4.3703   C.2       1 RES1   0.0000
    90 C38     12.2469  10.6732   5.5617   C.ar      1 RES1   0.0000
    91 C39     11.8820  11.9208   6.0562   C.ar      1 RES1   0.0000
    92 H41     11.2580  12.4477   5.5708   H         1 RES1   0.0000
    93 C40     12.4057  12.4126   7.2374   C.ar      1 RES1   0.0000
    94 H42     12.1405  13.2706   7.5471   H         1 RES1   0.0000
    95 C41     13.3261  11.6581   7.9860   C.ar      1 RES1   0.0000
    96 C42     13.7528  10.4300   7.4437   C.ar      1 RES1   0.0000
    97 H43     14.4133   9.9201   7.8981   H         1 RES1   0.0000
    98 C43     13.2183   9.9561   6.2513   C.ar      1 RES1   0.0000
    99 H44     13.5223   9.1271   5.9010   H         1 RES1   0.0000
   100 C44     12.9569  13.0808   9.9359   C.3       1 RES1   0.0000
   101 H45     13.0459  13.9672   9.5275   H         1 RES1   0.0000
   102 H46     13.2472  13.1214  10.8711   H         1 RES1   0.0000
   103 H47     12.0202  12.7956   9.8967   H         1 RES1   0.0000
   104 C45     14.6810  11.2935   9.9893   C.3       1 RES1   0.0000
   105 H48     15.4923  11.1106   9.4707   H         1 RES1   0.0000
   106 H49     14.2348  10.4486  10.2066   H         1 RES1   0.0000
   107 H50     14.9209  11.7589  10.8177   H         1 RES1   0.0000
   108 C46      8.7115   7.6342   5.2157   C.1       1 RES1   0.0000
   109 C47      8.0742   7.0803   6.4025   C.3       1 RES1   0.0000
   110 H51      7.1444   7.3867   6.4471   H         1 RES1   0.0000
   111 H52      8.5556   7.3798   7.2017   H         1 RES1   0.0000
   112 H53      8.0937   6.1015   6.3570   H         1 RES1   0.0000
@<TRIPOS>BOND
     1     1     2    1
     2     2    89   un
     3     3     4    1
     4     5     1    1
     5     6     3    1
     6     7     1    1
     7     8     1    1
     8     9     3    1
     9    10     1    1
    10    11     3    1
    11    12    95    1
    12    13    14    1
    13    15    13    1
    14    16    13    1
    15    17    13    1
    16    18    17   ar
    17    19    18    1
    18    20    18   ar
    19    21    20    1
    20    22    21    1
    21    23    21    1
    22    24    21    1
    23    25    20   ar
    24    26    25    1
    25    27    25   ar
    26    28    27    1
    27    29    28    1
    28    30    28    1
    29    31    28    1
    30    32     1    1
    31    33    17   ar
    32    34     5    2
    33    35    34    1
    34    36    35    1
    35    37     6    1
    36    38    37    1
    37    39    40    1
    38    41    39    1
    39    42    39    1
    40    43    39    1
    41    44    43   ar
    42    45    44    1
    43    46    44   ar
    44    47    46    1
    45    48    47    1
    46    49    47    1
    47    50    47    1
    48    51    46   ar
    49    52    51    1
    50    53    51   ar
    51    54    53    1
    52    55    54    1
    53    56    54    1
    54    57    54    1
    55    58    43   ar
    56    59     8    2
    57    60    59    1
    58    61    60    1
    59    62     9    1
    60    63    62    1
    61    64    65    1
    62    66    64    1
    63    67    64    1
    64    68    64    1
    65    69    68   ar
    66    70    69    1
    67    71    69   ar
    68    72    71    1
    69    73    72    1
    70    74    72    1
    71    75    72    1
    72    76    71   ar
    73    77    76    1
    74    78    76   ar
    75    79    78    1
    76    80    79    1
    77    81    79    1
    78    82    79    1
    79    83    68   ar
    80    84    10    2
    81    85    84    1
    82    86    85    1
    83    87    11    1
    84    88    87    1
    85    89     7   un
    86    90    89    1
    87    91    90   ar
    88    92    91    1
    89    93    91   ar
    90    94    93    1
    91    95    93   ar
    92    96    95   ar
    93    97    96    1
    94    98    90   ar
    95    99    98    1
    96   100    12    1
    97   101   100    1
    98   102   100    1
    99   103   100    1
   100   104    12    1
   101   105   104    1
   102   106   104    1
   103   107   104    1
   104   108    32    3
   105   109   108    1
   106   110   109    1
   107   111   109    1
   108   112   109    1
   109     5     6    1
   110     8     9    1
   111    10    11    1
   112    27    33   ar
   113    33    34    1
   114    35    37    2
   115    53    58   ar
   116    58    59    1
   117    60    62    2
   118    78    83   ar
   119    83    84    1
   120    85    87    2
   121    96    98   ar
@<TRIPOS>SUBSTRUCTURE
     1 RES1        1 GROUP             0 ****  ****    0  
@<TRIPOS>CRYSIN
   11.8449   12.7768   15.6468   78.9190   68.6730   80.0670     2     1
