@<TRIPOS>MOLECULE
ONOBOJ
   120   128     3     0     0
SMALL
USER_CHARGES
****
Generated from the CSD

@<TRIPOS>ATOM
     1 Fe1     15.9638   8.2930   6.6491   Fe        1 RES1   1.0000
     2 P1      17.0195   8.3370   4.6165   P.3       1 RES1   0.0000
     3 P2      15.4550  10.5080   6.4832   P.3       1 RES1   0.0000
     4 P3      13.9217   7.9282   5.6689   P.3       1 RES1   0.0000
     5 O1      16.1367   5.4754   7.3813   O.2       1 RES1   0.0000
     6 O2      18.1419   8.7444   8.5372   O.2       1 RES1   0.0000
     7 C1      14.3083  10.7554   2.3994   C.ar      1 RES1   0.0000
     8 C2      15.2652  11.3208   1.5332   C.ar      1 RES1   0.0000
     9 H1      16.1861  11.1472   1.6924   H         1 RES1   0.0000
    10 C3      14.9132  12.1232   0.4549   C.ar      1 RES1   0.0000
    11 H2      15.5874  12.4914  -0.1027   H         1 RES1   0.0000
    12 C4      13.5714  12.3878   0.1927   C.ar      1 RES1   0.0000
    13 H3      13.3252  12.9372  -0.5422   H         1 RES1   0.0000
    14 C5      12.5985  11.8412   1.0146   C.ar      1 RES1   0.0000
    15 H4      11.6798  12.0063   0.8400   H         1 RES1   0.0000
    16 C6      12.9716  11.0480   2.1005   C.ar      1 RES1   0.0000
    17 H5      12.2908  10.6924   2.6598   H         1 RES1   0.0000
    18 C7      15.8689   8.7297   3.2727   C.3       1 RES1   0.0000
    19 H6      16.3827   9.0439   2.4873   H         1 RES1   0.0000
    20 H7      15.3831   7.9078   3.0090   H         1 RES1   0.0000
    21 C8      15.4396  11.0311   4.7542   C.3       1 RES1   0.0000
    22 H8      14.9332  11.8787   4.6808   H         1 RES1   0.0000
    23 H9      16.3692  11.2118   4.4672   H         1 RES1   0.0000
    24 C9      13.4610   9.1658   4.4155   C.3       1 RES1   0.0000
    25 H10     12.9243   8.7237   3.7114   H         1 RES1   0.0000
    26 H11     12.8907   9.8547   4.8410   H         1 RES1   0.0000
    27 C10     17.9156   6.7863   4.1982   C.ar      1 RES1   0.0000
    28 C11     18.8874   6.3092   5.0848   C.ar      1 RES1   0.0000
    29 H12     19.0775   6.7933   5.8803   H         1 RES1   0.0000
    30 C12     19.5795   5.1287   4.8115   C.ar      1 RES1   0.0000
    31 H13     20.2439   4.8171   5.4141   H         1 RES1   0.0000
    32 C13     19.2967   4.4083   3.6543   C.ar      1 RES1   0.0000
    33 H14     19.7605   3.5991   3.4711   H         1 RES1   0.0000
    34 C14     18.3352   4.8744   2.7678   C.ar      1 RES1   0.0000
    35 H15     18.1413   4.3836   1.9779   H         1 RES1   0.0000
    36 C15     17.6544   6.0610   3.0346   C.ar      1 RES1   0.0000
    37 H16     17.0060   6.3792   2.4174   H         1 RES1   0.0000
    38 C16     18.4195   9.5077   4.3491   C.ar      1 RES1   0.0000
    39 C17     19.0387  10.1657   5.4044   C.ar      1 RES1   0.0000
    40 H17     18.7040  10.0567   6.2870   H         1 RES1   0.0000
    41 C18     20.1483  10.9866   5.1824   C.ar      1 RES1   0.0000
    42 H18     20.5650  11.4249   5.9152   H         1 RES1   0.0000
    43 C19     20.6427  11.1639   3.9065   C.ar      1 RES1   0.0000
    44 H19     21.4022  11.7162   3.7607   H         1 RES1   0.0000
    45 C20     20.0243  10.5308   2.8370   C.ar      1 RES1   0.0000
    46 H20     20.3506  10.6646   1.9553   H         1 RES1   0.0000
    47 C21     18.9267   9.6997   3.0537   C.ar      1 RES1   0.0000
    48 H21     18.5181   9.2590   2.3189   H         1 RES1   0.0000
    49 C22     16.5496  11.6626   7.4059   C.ar      1 RES1   0.0000
    50 C23     16.6807  11.5618   8.7944   C.ar      1 RES1   0.0000
    51 H22     16.1877  10.9016   9.2672   H         1 RES1   0.0000
    52 C24     17.5263  12.4196   9.4896   C.ar      1 RES1   0.0000
    53 H23     17.6080  12.3410  10.4317   H         1 RES1   0.0000
    54 C25     18.2516  13.3917   8.8098   C.ar      1 RES1   0.0000
    55 H24     18.8378  13.9691   9.2836   H         1 RES1   0.0000
    56 C26     18.1134  13.5120   7.4357   C.ar      1 RES1   0.0000
    57 H25     18.6000  14.1801   6.9668   H         1 RES1   0.0000
    58 C27     17.2639  12.6568   6.7388   C.ar      1 RES1   0.0000
    59 H26     17.1693  12.7518   5.7982   H         1 RES1   0.0000
    60 C28     13.8301  10.9850   7.2006   C.ar      1 RES1   0.0000
    61 C29     12.9860  11.9013   6.5597   C.ar      1 RES1   0.0000
    62 H27     13.2329  12.2573   5.7139   H         1 RES1   0.0000
    63 C30     11.7883  12.2944   7.1517   C.ar      1 RES1   0.0000
    64 H28     11.2216  12.9113   6.7039   H         1 RES1   0.0000
    65 C31     11.4169  11.7925   8.3873   C.ar      1 RES1   0.0000
    66 H29     10.5961  12.0598   8.7845   H         1 RES1   0.0000
    67 C32     12.2494  10.8962   9.0417   C.ar      1 RES1   0.0000
    68 H30     12.0040  10.5573   9.8936   H         1 RES1   0.0000
    69 C33     13.4438  10.4920   8.4520   C.ar      1 RES1   0.0000
    70 H31     14.0043   9.8730   8.9057   H         1 RES1   0.0000
    71 C34     12.5513   7.8065   6.8758   C.ar      1 RES1   0.0000
    72 C35     11.3216   8.4264   6.6672   C.ar      1 RES1   0.0000
    73 H32     11.1929   8.9796   5.9050   H         1 RES1   0.0000
    74 C36     10.2768   8.2367   7.5762   C.ar      1 RES1   0.0000
    75 H33      9.4478   8.6795   7.4392   H         1 RES1   0.0000
    76 C37     10.4375   7.4113   8.6732   C.ar      1 RES1   0.0000
    77 H34      9.7176   7.2734   9.2775   H         1 RES1   0.0000
    78 C38     11.6606   6.7836   8.8860   C.ar      1 RES1   0.0000
    79 H35     11.7775   6.2158   9.6389   H         1 RES1   0.0000
    80 C39     12.7117   6.9850   7.9993   C.ar      1 RES1   0.0000
    81 H36     13.5468   6.5613   8.1560   H         1 RES1   0.0000
    82 C40     13.6670   6.3259   4.7915   C.ar      1 RES1   0.0000
    83 C41     14.7131   5.4752   4.4531   C.ar      1 RES1   0.0000
    84 H37     15.6007   5.7040   4.7014   H         1 RES1   0.0000
    85 C42     14.4794   4.2923   3.7543   C.ar      1 RES1   0.0000
    86 H38     15.2076   3.7284   3.5224   H         1 RES1   0.0000
    87 C43     13.1898   3.9352   3.3967   C.ar      1 RES1   0.0000
    88 H39     13.0281   3.1215   2.9330   H         1 RES1   0.0000
    89 C44     12.1345   4.7785   3.7221   C.ar      1 RES1   0.0000
    90 H40     11.2481   4.5420   3.4731   H         1 RES1   0.0000
    91 C45     12.3645   5.9628   4.4066   C.ar      1 RES1   0.0000
    92 H41     11.6348   6.5339   4.6172   H         1 RES1   0.0000
    93 C46     16.0835   6.5664   7.0284   C.1       1 RES1   0.0000
    94 C47     17.3233   8.6043   7.7426   C.1       1 RES1   0.0000
    95 B1      14.7623   9.9058   3.7122   B         1 RES1  -1.0000
    96 H42     15.2071   8.3785   7.8479   H         1 RES1   0.0000
    97 C48     10.3365   5.7541   0.7764   C.ar      2 RES2   0.0000
    98 H43      9.6888   5.0589   0.7764   H         2 RES2   0.0000
    99 C49     10.1606   6.8690   1.5809   C.ar      2 RES2   0.0000
   100 H44      9.3921   6.9377   2.1361   H         2 RES2   0.0000
   101 C50     11.1023   7.8799   1.5762   C.ar      2 RES2   0.0000
   102 H45     10.9744   8.6466   2.1237   H         2 RES2   0.0000
   103 C51     12.2322   7.7838   0.7797   C.ar      2 RES2   0.0000
   104 H46     12.8793   8.4785   0.7825   H         2 RES2   0.0000
   105 C52     12.4111   6.6655  -0.0236   C.ar      2 RES2   0.0000
   106 H47     13.1841   6.5906  -0.5710   H         2 RES2   0.0000
   107 C53     11.4570   5.6579  -0.0261   C.ar      2 RES2   0.0000
   108 H48     11.5745   4.8970  -0.5833   H         2 RES2   0.0000
   109 C54      9.0760   4.2203   9.3031   C.ar      3 RES3   0.0000
   110 H49      9.4866   3.6730   8.6449   H         3 RES3   0.0000
   111 C55      7.9032   4.9048   9.0096   C.ar      3 RES3   0.0000
   112 H50      7.5136   4.8282   8.1478   H         3 RES3   0.0000
   113 C56      9.6452   4.3398  10.5646   C.ar      3 RES3   0.0000
   114 H51     10.4483   3.8755  10.7686   H         3 RES3   0.0000
   115 C54A     7.8693   5.8210  11.2358   C.ar      3 RES3   0.0000
   116 H49A     7.4588   6.3683  11.8941   H         3 RES3   0.0000
   117 C55A     9.0422   5.1365  11.5293   C.ar      3 RES3   0.0000
   118 H50A     9.4318   5.2131  12.3912   H         3 RES3   0.0000
   119 C56A     7.3001   5.7015   9.9743   C.ar      3 RES3   0.0000
   120 H51A     6.4970   6.1658   9.7704   H         3 RES3   0.0000
@<TRIPOS>BOND
     1     1     2    1
     2     2    18    1
     3     3     1    1
     4     4     1    1
     5     5    93    3
     6     6    94    3
     7     7     8   ar
     8     8     9    1
     9    10     8   ar
    10    11    10    1
    11    12    10   ar
    12    13    12    1
    13    14    12   ar
    14    15    14    1
    15    16     7   ar
    16    17    16    1
    17    18    19    1
    18    20    18    1
    19    21     3    1
    20    22    21    1
    21    23    21    1
    22    24     4    1
    23    25    24    1
    24    26    24    1
    25    27     2    1
    26    28    27   ar
    27    29    28    1
    28    30    28   ar
    29    31    30    1
    30    32    30   ar
    31    33    32    1
    32    34    32   ar
    33    35    34    1
    34    36    27   ar
    35    37    36    1
    36    38     2    1
    37    39    38   ar
    38    40    39    1
    39    41    39   ar
    40    42    41    1
    41    43    41   ar
    42    44    43    1
    43    45    43   ar
    44    46    45    1
    45    47    38   ar
    46    48    47    1
    47    49     3    1
    48    50    49   ar
    49    51    50    1
    50    52    50   ar
    51    53    52    1
    52    54    52   ar
    53    55    54    1
    54    56    54   ar
    55    57    56    1
    56    58    49   ar
    57    59    58    1
    58    60     3    1
    59    61    60   ar
    60    62    61    1
    61    63    61   ar
    62    64    63    1
    63    65    63   ar
    64    66    65    1
    65    67    65   ar
    66    68    67    1
    67    69    60   ar
    68    70    69    1
    69    71     4    1
    70    72    71   ar
    71    73    72    1
    72    74    72   ar
    73    75    74    1
    74    76    74   ar
    75    77    76    1
    76    78    76   ar
    77    79    78    1
    78    80    71   ar
    79    81    80    1
    80    82     4    1
    81    83    82   ar
    82    84    83    1
    83    85    83   ar
    84    86    85    1
    85    87    85   ar
    86    88    87    1
    87    89    87   ar
    88    90    89    1
    89    91    82   ar
    90    92    91    1
    91    93     1    1
    92    94     1    1
    93    95     7    1
    94    96     1    1
    95    14    16   ar
    96    18    95    1
    97    21    95    1
    98    24    95    1
    99    34    36   ar
   100    45    47   ar
   101    56    58   ar
   102    67    69   ar
   103    78    80   ar
   104    89    91   ar
   105    97    98    1
   106    99    97   ar
   107   100    99    1
   108   101    99   ar
   109   102   101    1
   110   103   101   ar
   111   104   103    1
   112   105   103   ar
   113   106   105    1
   114   107    97   ar
   115   108   107    1
   116   105   107   ar
   117   109   110    1
   118   111   109   ar
   119   112   111    1
   120   113   109   ar
   121   114   113    1
   122   115   116    1
   123   117   113   ar
   124   118   117    1
   125   119   111   ar
   126   120   119    1
   127   115   117   ar
   128   115   119   ar
@<TRIPOS>SUBSTRUCTURE
     1 RES1        1 GROUP             0 ****  ****    0  
     2 RES2       97 GROUP             0 ****  ****    0  
     3 RES3      109 GROUP             0 ****  ****    0  
@<TRIPOS>CRYSIN
   11.0932   11.1987   20.5660   88.9360   87.0700   64.6150     2     1
