@<TRIPOS>MOLECULE
ONOXOG
   109   116     3     0     0
SMALL
USER_CHARGES
****
Generated from the CSD

@<TRIPOS>ATOM
     1 Fe1      4.9179  10.9442   3.8700   Fe        1 RES1   1.0000
     2 Cl1      7.0357  11.8734   3.5810   Cl        1 RES1   0.0000
     3 P1       4.4775  12.4977   5.4604   P.3       1 RES1   0.0000
     4 P2       4.2086  11.7398   1.8658   P.3       1 RES1   0.0000
     5 O1       2.3648   9.6649   4.1798   O.2       1 RES1   0.0000
     6 N1       5.6770   9.8298   5.4175   N.3       1 RES1   0.0000
     7 N2       5.6514   9.3925   2.7563   N.3       1 RES1   0.0000
     8 C1       5.0645  11.6021   6.9549   C.3       1 RES1   0.0000
     9 H1       5.4069  12.2493   7.6223   H         1 RES1   0.0000
    10 H2       4.3145  11.1014   7.3643   H         1 RES1   0.0000
    11 C2       6.1673  10.6404   6.5590   C.3       1 RES1   0.0000
    12 H3       6.9796  11.1421   6.2969   H         1 RES1   0.0000
    13 H4       6.3951  10.0521   7.3215   H         1 RES1   0.0000
    14 C3       6.6955   8.8790   4.8733   C.3       1 RES1   0.0000
    15 H5       7.4764   9.4225   4.5631   H         1 RES1   0.0000
    16 C4       6.0619   8.2423   3.6325   C.3       1 RES1   0.0000
    17 H6       5.2333   7.7607   3.9208   H         1 RES1   0.0000
    18 C5       4.8242   9.0520   1.5907   C.3       1 RES1   0.0000
    19 H7       3.9528   8.6901   1.8883   H         1 RES1   0.0000
    20 H8       5.2772   8.3625   1.0434   H         1 RES1   0.0000
    21 C6       4.6141  10.3024   0.7739   C.3       1 RES1   0.0000
    22 H9       3.8743  10.1570   0.1316   H         1 RES1   0.0000
    23 H10      5.4343  10.5018   0.2569   H         1 RES1   0.0000
    24 C7       3.3336  10.1767   4.0670   C.1       1 RES1   0.0000
    25 C8       7.2105   7.8920   5.8916   C.ar      1 RES1   0.0000
    26 C9       6.3531   7.0572   6.5924   C.ar      1 RES1   0.0000
    27 H11      5.4196   7.0947   6.4274   H         1 RES1   0.0000
    28 C10      6.8481   6.1769   7.5220   C.ar      1 RES1   0.0000
    29 H12      6.2489   5.6107   7.9962   H         1 RES1   0.0000
    30 C11      8.2071   6.1011   7.7800   C.ar      1 RES1   0.0000
    31 H13      8.5395   5.4886   8.4275   H         1 RES1   0.0000
    32 C12      9.0638   6.9170   7.0917   C.ar      1 RES1   0.0000
    33 H14      9.9990   6.8677   7.2525   H         1 RES1   0.0000
    34 C13      8.5688   7.8170   6.1559   C.ar      1 RES1   0.0000
    35 H15      9.1679   8.3882   5.6921   H         1 RES1   0.0000
    36 C14      6.9527   7.2517   2.9129   C.ar      1 RES1   0.0000
    37 C15      6.4079   6.1495   2.2748   C.ar      1 RES1   0.0000
    38 H16      5.4690   6.0133   2.2988   H         1 RES1   0.0000
    39 C16      7.2116   5.2413   1.6011   C.ar      1 RES1   0.0000
    40 H17      6.8225   4.4928   1.1635   H         1 RES1   0.0000
    41 C17      8.5852   5.4269   1.5666   C.ar      1 RES1   0.0000
    42 H18      9.1405   4.8033   1.1144   H         1 RES1   0.0000
    43 C18      9.1350   6.5187   2.1933   C.ar      1 RES1   0.0000
    44 H19     10.0757   6.6472   2.1735   H         1 RES1   0.0000
    45 C19      8.3346   7.4356   2.8544   C.ar      1 RES1   0.0000
    46 H20      8.7277   8.1933   3.2712   H         1 RES1   0.0000
    47 C20      2.7756  12.9990   5.8603   C.ar      1 RES1   0.0000
    48 C21      1.8774  12.0957   6.4316   C.ar      1 RES1   0.0000
    49 H21      2.1646  11.2192   6.6562   H         1 RES1   0.0000
    50 C22      0.5663  12.4795   6.6739   C.ar      1 RES1   0.0000
    51 H22     -0.0365  11.8659   7.0771   H         1 RES1   0.0000
    52 C23      0.1260  13.7477   6.3345   C.ar      1 RES1   0.0000
    53 H23     -0.7727  14.0053   6.5016   H         1 RES1   0.0000
    54 C24      1.0065  14.6308   5.7496   C.ar      1 RES1   0.0000
    55 H24      0.7087  15.4979   5.5052   H         1 RES1   0.0000
    56 C25      2.3171  14.2700   5.5156   C.ar      1 RES1   0.0000
    57 H25      2.9135  14.8940   5.1167   H         1 RES1   0.0000
    58 C26      5.3274  14.1074   5.4979   C.ar      1 RES1   0.0000
    59 C27      5.4768  14.7936   6.7021   C.ar      1 RES1   0.0000
    60 H26      5.2187  14.3800   7.5178   H         1 RES1   0.0000
    61 C28      6.0016  16.0789   6.7136   C.ar      1 RES1   0.0000
    62 H27      6.1138  16.5344   7.5408   H         1 RES1   0.0000
    63 C29      6.3613  16.6999   5.5417   C.ar      1 RES1   0.0000
    64 H28      6.7129  17.5816   5.5574   H         1 RES1   0.0000
    65 C30      6.2087  16.0343   4.3407   C.ar      1 RES1   0.0000
    66 H29      6.4462  16.4637   3.5270   H         1 RES1   0.0000
    67 C31      5.7101  14.7319   4.3239   C.ar      1 RES1   0.0000
    68 H30      5.6315  14.2687   3.4978   H         1 RES1   0.0000
    69 C32      5.0105  13.1491   1.0173   C.ar      1 RES1   0.0000
    70 C33      6.2617  13.0457   0.4167   C.ar      1 RES1   0.0000
    71 H31      6.7074  12.2086   0.3958   H         1 RES1   0.0000
    72 C34      6.8590  14.1595  -0.1514   C.ar      1 RES1   0.0000
    73 H32      7.7011  14.0717  -0.5817   H         1 RES1   0.0000
    74 C35      6.2508  15.3823  -0.0992   C.ar      1 RES1   0.0000
    75 H33      6.6818  16.1446  -0.4669   H         1 RES1   0.0000
    76 C36      5.0123  15.5026   0.4857   C.ar      1 RES1   0.0000
    77 H34      4.5830  16.3502   0.5149   H         1 RES1   0.0000
    78 C37      4.3931  14.3976   1.0298   C.ar      1 RES1   0.0000
    79 H35      3.5309  14.4893   1.4204   H         1 RES1   0.0000
    80 C38      2.4404  12.0985   1.5541   C.ar      1 RES1   0.0000
    81 C39      1.5855  12.4266   2.5954   C.ar      1 RES1   0.0000
    82 H36      1.9015  12.4163   3.4915   H         1 RES1   0.0000
    83 C40      0.2685  12.7675   2.3280   C.ar      1 RES1   0.0000
    84 H37     -0.3142  12.9966   3.0424   H         1 RES1   0.0000
    85 C41     -0.1973  12.7782   1.0403   C.ar      1 RES1   0.0000
    86 H38     -1.1033  13.0095   0.8669   H         1 RES1   0.0000
    87 C42      0.6338  12.4570   0.0000   C.ar      1 RES1   0.0000
    88 H39      0.3050  12.4613  -0.8909   H         1 RES1   0.0000
    89 C43      1.9545  12.1268   0.2486   C.ar      1 RES1   0.0000
    90 H40      2.5335  11.9173  -0.4742   H         1 RES1   0.0000
    91 H41      5.0233   9.3176   5.7444   H         1 RES1   0.0000
    92 H42      6.4115   9.7030   2.4440   H         1 RES1   0.0000
    93 F1       4.4294   8.4057   8.8369   F         2 RES2   0.0000
    94 F2       2.3975   7.4406   8.6416   F         2 RES2   0.0000
    95 F3       2.5662   9.6838   8.6803   F         2 RES2   0.0000
    96 F4       3.3196   8.5344   6.8786   F         2 RES2   0.0000
    97 B1       3.1784   8.5081   8.2719   B         2 RES2  -1.0000
    98 C44      9.1332  10.7074   0.8669   C.ar      3 RES3   0.0000
    99 H43      9.1332  10.7074   1.8173   H         3 RES3   0.0000
   100 C45      8.4975   9.6923   0.1744   C.ar      3 RES3   0.0000
   101 H44      8.0610   8.9921   0.6486   H         3 RES3   0.0000
   102 C46      8.4957   9.6988  -1.1886   C.ar      3 RES3   0.0000
   103 H45      8.0555   9.0071  -1.6690   H         3 RES3   0.0000
   104 C47      9.1332  10.7074  -1.8633   C.ar      3 RES3   0.0000
   105 H46      9.1332  10.7074  -2.8137   H         3 RES3   0.0000
   106 C45A     9.7689  11.7225   0.1744   C.ar      3 RES3   0.0000
   107 H44A    10.2054  12.4227   0.6486   H         3 RES3   0.0000
   108 C46A     9.7707  11.7160  -1.1886   C.ar      3 RES3   0.0000
   109 H45A    10.2109  12.4077  -1.6690   H         3 RES3   0.0000
@<TRIPOS>BOND
     1     1     2    1
     2     3     1    1
     3     4     1    1
     4     5    24    3
     5     6     1    1
     6     7     1    1
     7     8     3    1
     8     9     8    1
     9    10     8    1
    10    11     6    1
    11    12    11    1
    12    13    11    1
    13    14     6    1
    14    15    14    1
    15    16     7    1
    16    17    16    1
    17    18     7    1
    18    19    18    1
    19    20    18    1
    20    21     4    1
    21    22    21    1
    22    23    21    1
    23    24     1    1
    24    25    14    1
    25    26    25   ar
    26    27    26    1
    27    28    26   ar
    28    29    28    1
    29    30    28   ar
    30    31    30    1
    31    32    30   ar
    32    33    32    1
    33    34    25   ar
    34    35    34    1
    35    36    16    1
    36    37    36   ar
    37    38    37    1
    38    39    37   ar
    39    40    39    1
    40    41    39   ar
    41    42    41    1
    42    43    41   ar
    43    44    43    1
    44    45    36   ar
    45    46    45    1
    46    47     3    1
    47    48    47   ar
    48    49    48    1
    49    50    48   ar
    50    51    50    1
    51    52    50   ar
    52    53    52    1
    53    54    52   ar
    54    55    54    1
    55    56    47   ar
    56    57    56    1
    57    58     3    1
    58    59    58   ar
    59    60    59    1
    60    61    59   ar
    61    62    61    1
    62    63    61   ar
    63    64    63    1
    64    65    63   ar
    65    66    65    1
    66    67    58   ar
    67    68    67    1
    68    69     4    1
    69    70    69   ar
    70    71    70    1
    71    72    70   ar
    72    73    72    1
    73    74    72   ar
    74    75    74    1
    75    76    74   ar
    76    77    76    1
    77    78    69   ar
    78    79    78    1
    79    80     4    1
    80    81    80   ar
    81    82    81    1
    82    83    81   ar
    83    84    83    1
    84    85    83   ar
    85    86    85    1
    86    87    85   ar
    87    88    87    1
    88    89    80   ar
    89    90    89    1
    90    91     6    1
    91    92     7    1
    92     8    11    1
    93    14    16    1
    94    18    21    1
    95    32    34   ar
    96    43    45   ar
    97    54    56   ar
    98    65    67   ar
    99    76    78   ar
   100    87    89   ar
   101    93    97    1
   102    94    97    1
   103    95    97    1
   104    96    97    1
   105    98    99    1
   106   100    98   ar
   107   101   100    1
   108   102   100   ar
   109   103   102    1
   110   104   102   ar
   111   105   104    1
   112   106    98   ar
   113   107   106    1
   114   108   104   ar
   115   109   108    1
   116   106   108   ar
@<TRIPOS>SUBSTRUCTURE
     1 RES1        1 GROUP             0 ****  ****    0  
     2 RES2       93 GROUP             0 ****  ****    0  
     3 RES3       98 GROUP             0 ****  ****    0  
@<TRIPOS>CRYSIN
   18.2664   21.4148   10.4443   90.0000   90.0000   90.0000    18     1
