@<TRIPOS>MOLECULE
ONUJIR
   117   124     1     0     0
SMALL
NO_CHARGES
****
Generated from the CSD

@<TRIPOS>ATOM
     1 Fe1      2.6237   0.6375   2.5869   Fe        1 RES1   0.0000
     2 O1       4.4174  -0.4928   4.5721   O.2       1 RES1   0.0000
     3 O2       0.9695   1.7196   4.7297   O.2       1 RES1   0.0000
     4 O3       4.5943   0.2580   0.4223   O.2       1 RES1   0.0000
     5 O4       0.4987   1.2073   0.6186   O.2       1 RES1   0.0000
     6 N1       4.5467   1.7676   4.3208   N.am      1 RES1   0.0000
     7 N2       3.0810   2.5353   2.7783   N.2       1 RES1   0.0000
     8 N3       0.8048  -0.5342   4.4034   N.am      1 RES1   0.0000
     9 N4       2.1835  -1.2637   2.7698   N.2       1 RES1   0.0000
    10 C1       5.8330   1.8341   4.9848   C.ar      1 RES1   0.0000
    11 C2       6.9848   1.9426   4.1908   C.ar      1 RES1   0.0000
    12 C3       8.2195   1.9696   4.8370   C.ar      1 RES1   0.0000
    13 C4       8.3090   1.8292   6.1974   C.ar      1 RES1   0.0000
    14 C5       7.1682   1.6708   6.9551   C.ar      1 RES1   0.0000
    15 C6       5.9078   1.6906   6.3681   C.ar      1 RES1   0.0000
    16 C7       6.9371   1.9552   2.6755   C.3       1 RES1   0.0000
    17 C8       7.8456   2.9995   2.0633   C.3       1 RES1   0.0000
    18 C9       7.2863   0.5437   2.1540   C.3       1 RES1   0.0000
    19 C10      4.6827   1.5051   7.2414   C.3       1 RES1   0.0000
    20 C11      4.6583   2.5098   8.4081   C.3       1 RES1   0.0000
    21 C12      4.6430   0.0594   7.7676   C.3       1 RES1   0.0000
    22 C13      3.9946   2.8297   3.6603   C.2       1 RES1   0.0000
    23 C14      4.4354   4.2097   3.9554   C.ar      1 RES1   0.0000
    24 C15      4.9448   5.0231   2.9665   C.ar      1 RES1   0.0000
    25 C16      5.3450   6.3032   3.2537   C.ar      1 RES1   0.0000
    26 C17      5.2507   6.7965   4.5139   C.ar      1 RES1   0.0000
    27 C18      4.7497   6.0097   5.5116   C.ar      1 RES1   0.0000
    28 C19      4.3319   4.7080   5.2395   C.ar      1 RES1   0.0000
    29 C20      2.3371   3.5574   2.0981   C.ar      1 RES1   0.0000
    30 C21      2.6366   3.8150   0.7698   C.ar      1 RES1   0.0000
    31 C22      1.8481   4.7008   0.0529   C.ar      1 RES1   0.0000
    32 C23      0.7676   5.3004   0.6708   C.ar      1 RES1   0.0000
    33 C24      0.4927   5.0573   1.9839   C.ar      1 RES1   0.0000
    34 C25      1.2757   4.1715   2.7095   C.ar      1 RES1   0.0000
    35 C26     -0.4109  -0.6318   5.1803   C.ar      1 RES1   0.0000
    36 C27     -0.3471  -0.4902   6.5721   C.ar      1 RES1   0.0000
    37 C28     -1.5484  -0.4843   7.2795   C.ar      1 RES1   0.0000
    38 C29     -2.7501  -0.6301   6.6358   C.ar      1 RES1   0.0000
    39 C30     -2.7961  -0.7598   5.2829   C.ar      1 RES1   0.0000
    40 C31     -1.6433  -0.7511   4.5098   C.ar      1 RES1   0.0000
    41 C32      0.9516  -0.3451   7.3372   C.3       1 RES1   0.0000
    42 C33      1.0209   1.0406   7.9887   C.3       1 RES1   0.0000
    43 C34      1.1032  -1.4403   8.3987   C.3       1 RES1   0.0000
    44 C35     -1.7448  -0.7976   2.9906   C.3       1 RES1   0.0000
    45 C36     -2.1706   0.5581   2.4512   C.3       1 RES1   0.0000
    46 C37     -2.7177  -1.8778   2.5262   C.3       1 RES1   0.0000
    47 C38      1.3239  -1.5734   3.6914   C.2       1 RES1   0.0000
    48 C39      0.9497  -2.9710   4.0111   C.ar      1 RES1   0.0000
    49 C40      1.3899  -3.5468   5.1875   C.ar      1 RES1   0.0000
    50 C41      1.1224  -4.8809   5.4549   C.ar      1 RES1   0.0000
    51 C42      0.4163  -5.6389   4.5536   C.ar      1 RES1   0.0000
    52 C43     -0.0169  -5.0663   3.3954   C.ar      1 RES1   0.0000
    53 C44      0.2541  -3.7502   3.1138   C.ar      1 RES1   0.0000
    54 C45      2.8541  -2.3193   2.0470   C.ar      1 RES1   0.0000
    55 C46      3.9668  -2.9311   2.5810   C.ar      1 RES1   0.0000
    56 C47      4.5939  -3.9285   1.8706   C.ar      1 RES1   0.0000
    57 C48      4.1158  -4.3174   0.6500   C.ar      1 RES1   0.0000
    58 C49      3.0111  -3.7070   0.1190   C.ar      1 RES1   0.0000
    59 C50      2.3836  -2.6898   0.8043   C.ar      1 RES1   0.0000
    60 C51      3.9741   0.4681   3.9873   C.2       1 RES1   0.0000
    61 C52      1.3626   0.7776   4.0775   C.2       1 RES1   0.0000
    62 C53      3.8477   0.3822   1.2780   C.1       1 RES1   0.0000
    63 C54      1.3064   0.9670   1.3916   C.1       1 RES1   0.0000
    64 H1       9.0112   2.0865   4.3263   H         1 RES1   0.0000
    65 H2       9.1603   1.8422   6.6188   H         1 RES1   0.0000
    66 H3       7.2448   1.5467   7.8932   H         1 RES1   0.0000
    67 H4       5.9991   2.1639   2.3991   H         1 RES1   0.0000
    68 H5       7.6658   3.8701   2.4748   H         1 RES1   0.0000
    69 H6       7.6795   3.0515   1.0997   H         1 RES1   0.0000
    70 H7       8.7805   2.7503   2.2213   H         1 RES1   0.0000
    71 H8       8.1862   0.2976   2.4537   H         1 RES1   0.0000
    72 H9       7.2558   0.5403   1.1745   H         1 RES1   0.0000
    73 H10      6.6377  -0.1032   2.5030   H         1 RES1   0.0000
    74 H11      3.8697   1.6564   6.6791   H         1 RES1   0.0000
    75 H12      5.4036   2.3218   9.0169   H         1 RES1   0.0000
    76 H13      3.8114   2.4264   8.8941   H         1 RES1   0.0000
    77 H14      4.7455   3.4206   8.0573   H         1 RES1   0.0000
    78 H15      4.5576  -0.5617   7.0146   H         1 RES1   0.0000
    79 H16      3.8769  -0.0495   8.3694   H         1 RES1   0.0000
    80 H17      5.4711  -0.1336   8.2568   H         1 RES1   0.0000
    81 H18      5.0197   4.6933   2.0784   H         1 RES1   0.0000
    82 H19      5.6934   6.8525   2.5598   H         1 RES1   0.0000
    83 H20      5.5304   7.6841   4.7017   H         1 RES1   0.0000
    84 H21      4.6858   6.3516   6.3955   H         1 RES1   0.0000
    85 H22      3.9785   4.1656   5.9346   H         1 RES1   0.0000
    86 H23      3.3758   3.3871   0.3537   H         1 RES1   0.0000
    87 H24      2.0487   4.8955  -0.8550   H         1 RES1   0.0000
    88 H25      0.2092   5.8886   0.1750   H         1 RES1   0.0000
    89 H26     -0.2361   5.4977   2.4049   H         1 RES1   0.0000
    90 H27      1.0764   3.9904   3.6197   H         1 RES1   0.0000
    91 H28     -1.5330  -0.3777   8.2233   H         1 RES1   0.0000
    92 H29     -3.5562  -0.6395   7.1393   H         1 RES1   0.0000
    93 H30     -3.6392  -0.8581   4.8550   H         1 RES1   0.0000
    94 H31      1.7092  -0.4271   6.6898   H         1 RES1   0.0000
    95 H32      1.0109   1.7296   7.2916   H         1 RES1   0.0000
    96 H33      1.8464   1.1152   8.5105   H         1 RES1   0.0000
    97 H34      0.2483   1.1625   8.5793   H         1 RES1   0.0000
    98 H35      0.4100  -1.3303   9.0830   H         1 RES1   0.0000
    99 H36      1.9874  -1.3708   8.8157   H         1 RES1   0.0000
   100 H37      1.0090  -2.3198   7.9769   H         1 RES1   0.0000
   101 H38     -0.8398  -1.0109   2.6220   H         1 RES1   0.0000
   102 H39     -3.0298   0.8131   2.8489   H         1 RES1   0.0000
   103 H40     -2.2647   0.5079   1.4770   H         1 RES1   0.0000
   104 H41     -1.4938   1.2290   2.6798   H         1 RES1   0.0000
   105 H42     -2.5074  -2.7229   2.9757   H         1 RES1   0.0000
   106 H43     -2.6377  -1.9952   1.5564   H         1 RES1   0.0000
   107 H44     -3.6343  -1.6096   2.7477   H         1 RES1   0.0000
   108 H45      1.8771  -3.0265   5.8156   H         1 RES1   0.0000
   109 H46      1.4302  -5.2730   6.2645   H         1 RES1   0.0000
   110 H47      0.2313  -6.5529   4.7352   H         1 RES1   0.0000
   111 H48     -0.5134  -5.5845   2.7734   H         1 RES1   0.0000
   112 H49     -0.0401  -3.3743   2.2936   H         1 RES1   0.0000
   113 H50      4.2992  -2.6657   3.4305   H         1 RES1   0.0000
   114 H51      5.3640  -4.3519   2.2318   H         1 RES1   0.0000
   115 H52      4.5516  -5.0116   0.1689   H         1 RES1   0.0000
   116 H53      2.6754  -3.9863  -0.7250   H         1 RES1   0.0000
   117 H54      1.6333  -2.2471   0.4244   H         1 RES1   0.0000
@<TRIPOS>BOND
     1     1     7    1
     2     2    60    2
     3     3    61    2
     4     4    62    3
     5     5    63    3
     6     6    10    1
     7     7    22   un
     8     8    35    1
     9     9     1    1
    10    10    11   ar
    11    11    12   ar
    12    12    13   ar
    13    13    14   ar
    14    14    15   ar
    15    15    10   ar
    16    16    11    1
    17    17    16    1
    18    18    16    1
    19    19    15    1
    20    20    19    1
    21    21    19    1
    22    22     6   un
    23    23    22    1
    24    24    23   ar
    25    25    24   ar
    26    26    25   ar
    27    27    26   ar
    28    28    23   ar
    29    29     7    1
    30    30    29   ar
    31    31    30   ar
    32    32    31   ar
    33    33    32   ar
    34    34    29   ar
    35    35    36   ar
    36    36    37   ar
    37    37    38   ar
    38    38    39   ar
    39    39    40   ar
    40    40    35   ar
    41    41    36    1
    42    42    41    1
    43    43    41    1
    44    44    40    1
    45    45    44    1
    46    46    44    1
    47    47     8   un
    48    48    47    1
    49    49    48   ar
    50    50    49   ar
    51    51    50   ar
    52    52    51   ar
    53    53    48   ar
    54    54     9    1
    55    55    54   ar
    56    56    55   ar
    57    57    56   ar
    58    58    57   ar
    59    59    54   ar
    60    60     1    1
    61    61     1    1
    62    62     1    1
    63    63     1    1
    64    64    12    1
    65    65    13    1
    66    66    14    1
    67    67    16    1
    68    68    17    1
    69    69    17    1
    70    70    17    1
    71    71    18    1
    72    72    18    1
    73    73    18    1
    74    74    19    1
    75    75    20    1
    76    76    20    1
    77    77    20    1
    78    78    21    1
    79    79    21    1
    80    80    21    1
    81    81    24    1
    82    82    25    1
    83    83    26    1
    84    84    27    1
    85    85    28    1
    86    86    30    1
    87    87    31    1
    88    88    32    1
    89    89    33    1
    90    90    34    1
    91    91    37    1
    92    92    38    1
    93    93    39    1
    94    94    41    1
    95    95    42    1
    96    96    42    1
    97    97    42    1
    98    98    43    1
    99    99    43    1
   100   100    43    1
   101   101    44    1
   102   102    45    1
   103   103    45    1
   104   104    45    1
   105   105    46    1
   106   106    46    1
   107   107    46    1
   108   108    49    1
   109   109    50    1
   110   110    51    1
   111   111    52    1
   112   112    53    1
   113   113    55    1
   114   114    56    1
   115   115    57    1
   116   116    58    1
   117   117    59    1
   118     6    60   am
   119     8    61   am
   120     9    47   un
   121    27    28   ar
   122    33    34   ar
   123    52    53   ar
   124    58    59   ar
@<TRIPOS>SUBSTRUCTURE
     1 RES1        1 GROUP             0 ****  ****    0  
@<TRIPOS>CRYSIN
   13.9144   18.0040   19.1120   90.0000   98.6490   90.0000    14     1
