@<TRIPOS>MOLECULE
OPABEN
   121   124     1     0     0
SMALL
NO_CHARGES
****
Generated from the CSD

@<TRIPOS>ATOM
     1 C1       6.4385   7.5341   2.5792   C.ar      1 RES1   0.0000
     2 C2       7.6898   8.0663   2.3110   C.ar      1 RES1   0.0000
     3 H1       8.3383   7.5336   1.8677   H         1 RES1   0.0000
     4 C3       8.0008   9.3297   2.6711   C.ar      1 RES1   0.0000
     5 H2       8.8774   9.6716   2.5362   H         1 RES1   0.0000
     6 C4       7.0140  10.1142   3.2391   C.ar      1 RES1   0.0000
     7 H3       7.1885  11.0192   3.4658   H         1 RES1   0.0000
     8 C5       5.7778   9.5662   3.4701   C.ar      1 RES1   0.0000
     9 C6       5.9854   6.1344   2.0843   C.3       1 RES1   0.0000
    10 C7       5.0585   5.5085   3.1473   C.3       1 RES1   0.0000
    11 H4       4.4673   4.8677   2.6797   H         1 RES1   0.0000
    12 H5       4.4799   6.2339   3.4945   H         1 RES1   0.0000
    13 C8       7.2621   5.2495   1.8893   C.3       1 RES1   0.0000
    14 H6       7.9328   5.5421   2.5563   H         1 RES1   0.0000
    15 H7       7.6345   5.4556   0.9956   H         1 RES1   0.0000
    16 C9       5.2794   6.3591   0.8091   C.3       1 RES1   0.0000
    17 H8       5.0365   5.4956   0.4131   H         1 RES1   0.0000
    18 H9       5.8642   6.8477   0.1922   H         1 RES1   0.0000
    19 H10      4.4665   6.8829   0.9726   H         1 RES1   0.0000
    20 C10      4.5913  10.3334   4.0955   C.3       1 RES1   0.0000
    21 C11      3.3849  10.2477   3.1631   C.3       1 RES1   0.0000
    22 H11      2.5789  10.4853   3.6867   H         1 RES1   0.0000
    23 H12      3.2832   9.3025   2.8848   H         1 RES1   0.0000
    24 C12      4.2482   9.6395   5.4253   C.3       1 RES1   0.0000
    25 H13      5.0066   9.7218   6.0422   H         1 RES1   0.0000
    26 H14      4.0626   8.6918   5.2618   H         1 RES1   0.0000
    27 H15      3.4590  10.0642   5.8212   H         1 RES1   0.0000
    28 C13      4.9613  11.7586   4.4212   C.3       1 RES1   0.0000
    29 H16      4.1720  12.2331   4.7568   H         1 RES1   0.0000
    30 H17      5.2917  12.2040   3.6135   H         1 RES1   0.0000
    31 H18      5.6630  11.7656   5.1069   H         1 RES1   0.0000
    32 C14      4.2599   4.6545   5.6391   C.3       1 RES1   0.0000
    33 H19      3.8290   5.5331   5.5817   H         1 RES1   0.0000
    34 H20      4.5115   4.4753   6.5701   H         1 RES1   0.0000
    35 H21      3.6376   3.9647   5.3292   H         1 RES1   0.0000
    36 C15      6.7250   5.9586   5.3808   C.3       1 RES1   0.0000
    37 H22      7.5338   6.1280   4.8544   H         1 RES1   0.0000
    38 H23      6.9762   5.6825   6.2875   H         1 RES1   0.0000
    39 H24      6.1876   6.7767   5.4268   H         1 RES1   0.0000
    40 C16      8.7276   3.0259   1.2236   C.3       1 RES1   0.0000
    41 H25      8.8337   3.5747   0.4189   H         1 RES1   0.0000
    42 H26      8.7510   2.0772   0.9769   H         1 RES1   0.0000
    43 H27      9.4550   3.2202   1.8505   H         1 RES1   0.0000
    44 C17      5.9149   3.0080   0.6341   C.3       1 RES1   0.0000
    45 H28      6.2025   3.4568  -0.1894   H         1 RES1   0.0000
    46 H29      5.0181   3.3168   0.8779   H         1 RES1   0.0000
    47 H30      5.8983   2.0387   0.4877   H         1 RES1   0.0000
    48 C18      4.5951  10.4582   0.5652   C.3       1 RES1   0.0000
    49 H31      5.5017  10.6844   0.8593   H         1 RES1   0.0000
    50 H32      4.4724  10.7442  -0.3644   H         1 RES1   0.0000
    51 H33      4.4617   9.4888   0.6283   H         1 RES1   0.0000
    52 C19      1.8015  10.7483   0.7818   C.3       1 RES1   0.0000
    53 H34      1.8860  10.8594  -0.1879   H         1 RES1   0.0000
    54 H35      1.0554  11.2916   1.1089   H         1 RES1   0.0000
    55 H36      1.6354   9.8048   0.9898   H         1 RES1   0.0000
    56 C20      6.4890  -1.5523   7.0521   C.ar      1 RES1   0.0000
    57 C21      5.4921  -2.3192   6.5615   C.ar      1 RES1   0.0000
    58 H37      5.3418  -2.3827   5.6247   H         1 RES1   0.0000
    59 C22      4.6693  -3.0316   7.4867   C.ar      1 RES1   0.0000
    60 H38      3.9248  -3.5296   7.1740   H         1 RES1   0.0000
    61 C23      4.9529  -2.9983   8.8222   C.ar      1 RES1   0.0000
    62 H39      4.4393  -3.5059   9.4376   H         1 RES1   0.0000
    63 C24      6.0134  -2.2027   9.2684   C.ar      1 RES1   0.0000
    64 C25      7.4798  -0.8057   6.1483   C.3       1 RES1   0.0000
    65 C26      6.9827  -0.7380   4.7009   C.3       1 RES1   0.0000
    66 H40      5.9946  -0.6810   4.7281   H         1 RES1   0.0000
    67 H41      7.2112  -1.5980   4.2662   H         1 RES1   0.0000
    68 C27      7.7492   0.6026   6.7192   C.3       1 RES1   0.0000
    69 H42      8.6563   0.8779   6.4323   H         1 RES1   0.0000
    70 H43      7.7640   0.5329   7.7062   H         1 RES1   0.0000
    71 C28      8.8457  -1.6189   6.2932   C.3       1 RES1   0.0000
    72 H44      9.1411  -1.5970   7.2271   H         1 RES1   0.0000
    73 H45      9.5297  -1.2118   5.7223   H         1 RES1   0.0000
    74 H46      8.7019  -2.5483   6.0178   H         1 RES1   0.0000
    75 C29      6.4810  -2.1562  10.6943   C.3       1 RES1   0.0000
    76 C30      6.5754  -0.6870  11.1863   C.3       1 RES1   0.0000
    77 H47      7.2242  -0.2024  10.6182   H         1 RES1   0.0000
    78 H48      6.9249  -0.6835  12.1130   H         1 RES1   0.0000
    79 C31      5.6221  -2.9800  11.6382   C.3       1 RES1   0.0000
    80 H49      4.7203  -2.5980  11.6769   H         1 RES1   0.0000
    81 H50      6.0191  -2.9707  12.5333   H         1 RES1   0.0000
    82 H51      5.5724  -3.9023  11.3125   H         1 RES1   0.0000
    83 C32      7.9510  -2.7205  10.8062   C.3       1 RES1   0.0000
    84 H52      7.9578  -3.6680  10.5551   H         1 RES1   0.0000
    85 H53      8.2679  -2.6257  11.7286   H         1 RES1   0.0000
    86 H54      8.5407  -2.2194  10.2051   H         1 RES1   0.0000
    87 C33      7.0947  -0.1389   1.9983   C.3       1 RES1   0.0000
    88 H55      7.4189  -1.0626   1.9581   H         1 RES1   0.0000
    89 H56      7.4835   0.3762   1.2609   H         1 RES1   0.0000
    90 H57      6.1175  -0.1331   1.9208   H         1 RES1   0.0000
    91 C34      9.4197   0.3604   3.5404   C.3       1 RES1   0.0000
    92 H58      9.6153  -0.5996   3.5447   H         1 RES1   0.0000
    93 H59      9.8374   0.7824   4.3207   H         1 RES1   0.0000
    94 H60      9.7766   0.7625   2.7213   H         1 RES1   0.0000
    95 C35      4.9787   1.3482   6.9000   C.3       1 RES1   0.0000
    96 H61      4.6677   0.5997   6.3477   H         1 RES1   0.0000
    97 H62      4.3206   2.0735   6.8656   H         1 RES1   0.0000
    98 H63      5.0862   1.0476   7.8267   H         1 RES1   0.0000
    99 C36      7.0775   3.1246   7.5814   C.3       1 RES1   0.0000
   100 H64      6.3659   3.7849   7.7162   H         1 RES1   0.0000
   101 H65      7.9029   3.5836   7.3160   H         1 RES1   0.0000
   102 H66      7.2312   2.6349   8.4163   H         1 RES1   0.0000
   103 C37      4.4284  -0.0065  12.8719   C.3       1 RES1   0.0000
   104 H67      5.2033  -0.0989  13.4643   H         1 RES1   0.0000
   105 H68      3.8696  -0.8098  12.9364   H         1 RES1   0.0000
   106 H69      3.9049   0.7773  13.1401   H         1 RES1   0.0000
   107 C38      5.7236   1.8659  11.3154   C.3       1 RES1   0.0000
   108 H70      6.3586   1.8738  12.0614   H         1 RES1   0.0000
   109 H71      5.0116   2.5180  11.4861   H         1 RES1   0.0000
   110 H72      6.1897   2.1003  10.4863   H         1 RES1   0.0000
   111 N1       5.4917   8.2993   3.1143   N.ar      1 RES1   0.0000
   112 N2       6.7767  -1.5325   8.3919   N.ar      1 RES1   0.0000
   113 P1       5.7557   4.6398   4.5919   P.3       1 RES1   0.0000
   114 P2       7.1139   3.4117   2.0182   P.3       1 RES1   0.0000
   115 P3       3.3921  11.3016   1.6167   P.3       1 RES1   0.0000
   116 P4       7.5884   0.6178   3.6062   P.3       1 RES1   0.0000
   117 P5       6.5811   1.9494   6.2648   P.3       1 RES1   0.0000
   118 P6       4.9978   0.2012  11.1548   P.3       1 RES1   0.0000
   119 Fe1      6.7453   2.6540   4.1049   Fe        1 RES1   0.0000
   120 Br1      8.9954   3.5277   4.6686   Br        1 RES1   0.0000
   121 Br2      4.4907   1.7749   3.5074   Br        1 RES1   0.0000
@<TRIPOS>BOND
     1     1     2   ar
     2     2     3    1
     3     4     2   ar
     4     5     4    1
     5     6     4   ar
     6     7     6    1
     7     8     6   ar
     8     9     1    1
     9    10     9    1
    10    11    10    1
    11    12    10    1
    12    13     9    1
    13    14    13    1
    14    15    13    1
    15    16     9    1
    16    17    16    1
    17    18    16    1
    18    19    16    1
    19    20     8    1
    20    21    20    1
    21    22    21    1
    22    23    21    1
    23    24    20    1
    24    25    24    1
    25    26    24    1
    26    27    24    1
    27    28    20    1
    28    29    28    1
    29    30    28    1
    30    31    28    1
    31    32    33    1
    32    34    32    1
    33    35    32    1
    34    36    37    1
    35    38    36    1
    36    39    36    1
    37    40    41    1
    38    42    40    1
    39    43    40    1
    40    44    45    1
    41    46    44    1
    42    47    44    1
    43    48    49    1
    44    50    48    1
    45    51    48    1
    46    52    53    1
    47    54    52    1
    48    55    52    1
    49    56    57   ar
    50    57    58    1
    51    59    57   ar
    52    60    59    1
    53    61    59   ar
    54    62    61    1
    55    63    61   ar
    56    64    56    1
    57    65    64    1
    58    66    65    1
    59    67    65    1
    60    68    64    1
    61    69    68    1
    62    70    68    1
    63    71    64    1
    64    72    71    1
    65    73    71    1
    66    74    71    1
    67    75    63    1
    68    76    75    1
    69    77    76    1
    70    78    76    1
    71    79    75    1
    72    80    79    1
    73    81    79    1
    74    82    79    1
    75    83    75    1
    76    84    83    1
    77    85    83    1
    78    86    83    1
    79    87    88    1
    80    89    87    1
    81    90    87    1
    82    91    92    1
    83    93    91    1
    84    94    91    1
    85    95    96    1
    86    97    95    1
    87    98    95    1
    88    99   100    1
    89   101    99    1
    90   102    99    1
    91   103   104    1
    92   105   103    1
    93   106   103    1
    94   107   108    1
    95   109   107    1
    96   110   107    1
    97   111     1   ar
    98   112    56   ar
    99   113    10    1
   100   114    13    1
   101   115    21    1
   102   116    65    1
   103   117    68    1
   104   118    76    1
   105   119   113    1
   106   120   119    1
   107   121   119    1
   108     8   111   ar
   109    32   113    1
   110    36   113    1
   111    40   114    1
   112    44   114    1
   113    48   115    1
   114    52   115    1
   115    63   112   ar
   116    87   116    1
   117    91   116    1
   118    95   117    1
   119    99   117    1
   120   103   118    1
   121   107   118    1
   122   114   119    1
   123   116   119    1
   124   117   119    1
@<TRIPOS>SUBSTRUCTURE
     1 RES1        1 GROUP             0 ****  ****    0  
@<TRIPOS>CRYSIN
   12.8236   12.8236   16.2685   67.9480   67.9480   74.5030     2     1
