@<TRIPOS>MOLECULE
OPOSUI
   153   167     3     0     0
SMALL
NO_CHARGES
****
Generated from the CSD

@<TRIPOS>ATOM
     1 Fe1      8.2456   5.3725  16.9006   Fe        1 RES1   0.0000
     2 Br1      8.6295   9.0200  19.9681   Br        1 RES1   0.0000
     3 O1       8.7102   7.1686  17.5397   O.3       1 RES1   0.0000
     4 O2       7.8309   5.6909  15.0644   O.3       1 RES1   0.0000
     5 O3       9.9501   4.5609  16.9211   O.3       1 RES1   0.0000
     6 N1       6.2455   6.1312  17.3754   N.3       1 RES1   0.0000
     7 N2       7.9571   4.7063  18.9642   N.3       1 RES1   0.0000
     8 O4       7.2968   3.3929  16.6144   O.3       1 RES1   0.0000
     9 C1       6.9003   5.5138  19.6326   C.3       1 RES1   0.0000
    10 H1       7.2584   6.4375  19.7713   H         1 RES1   0.0000
    11 C2       6.4805   4.9695  20.9781   C.ar      1 RES1   0.0000
    12 C3       6.0417   5.3054  23.3199   C.ar      1 RES1   0.0000
    13 H2       6.0348   5.8805  24.0756   H         1 RES1   0.0000
    14 C4       5.6436   3.1632  22.3377   C.ar      1 RES1   0.0000
    15 H3       5.3592   2.2612  22.4195   H         1 RES1   0.0000
    16 C5       6.0667   3.6432  21.1221   C.ar      1 RES1   0.0000
    17 H4       6.0792   3.0644  20.3678   H         1 RES1   0.0000
    18 C6       5.6339   3.9985  23.4473   C.ar      1 RES1   0.0000
    19 H5       5.3453   3.6693  24.2898   H         1 RES1   0.0000
    20 C7       6.4621   5.7866  22.0869   C.ar      1 RES1   0.0000
    21 H6       6.7396   6.6920  22.0065   H         1 RES1   0.0000
    22 C8       3.3961   5.8384  19.6062   C.ar      1 RES1   0.0000
    23 H7       3.3115   4.8938  19.5660   H         1 RES1   0.0000
    24 C9       4.6905   7.8297  19.2821   C.ar      1 RES1   0.0000
    25 H8       5.5048   8.2523  19.0350   H         1 RES1   0.0000
    26 C10      5.7189   5.6056  18.6553   C.3       1 RES1   0.0000
    27 H9       5.3744   4.6810  18.4953   H         1 RES1   0.0000
    28 C11      2.4389   7.9790  20.0995   C.ar      1 RES1   0.0000
    29 H10      1.6981   8.5026  20.3809   H         1 RES1   0.0000
    30 C12      3.6278   8.6023  19.7196   C.ar      1 RES1   0.0000
    31 H11      3.7069   9.5477  19.7604   H         1 RES1   0.0000
    32 C13      2.3390   6.6010  20.0667   C.ar      1 RES1   0.0000
    33 H12      1.5413   6.1767  20.3613   H         1 RES1   0.0000
    34 C14      4.5851   6.4433  19.1989   C.ar      1 RES1   0.0000
    35 C15     10.6039   3.7734  17.7715   C.ar      1 RES1   0.0000
    36 C16     11.6752   2.9974  17.3282   C.ar      1 RES1   0.0000
    37 C17     10.8295   2.8410  20.0099   C.ar      1 RES1   0.0000
    38 H13     10.5311   2.7828  20.9097   H         1 RES1   0.0000
    39 C18     11.8962   2.0161  19.5856   C.ar      1 RES1   0.0000
    40 C19     10.2155   3.7198  19.1617   C.ar      1 RES1   0.0000
    41 C20     13.6581   0.4283  20.0836   C.ar      1 RES1   0.0000
    42 H14     14.1062  -0.1439  20.6956   H         1 RES1   0.0000
    43 C21     12.3533   2.1332  18.2345   C.ar      1 RES1   0.0000
    44 C22     14.1076   0.5324  18.7481   C.ar      1 RES1   0.0000
    45 H15     14.8595   0.0250  18.4648   H         1 RES1   0.0000
    46 C23     12.5732   1.1540  20.4911   C.ar      1 RES1   0.0000
    47 H16     12.2694   1.0826  21.3882   H         1 RES1   0.0000
    48 C24     13.4777   1.3532  17.8593   C.ar      1 RES1   0.0000
    49 H17     13.7982   1.4039  16.9659   H         1 RES1   0.0000
    50 C25      9.2492   4.7298  19.7051   C.3       1 RES1   0.0000
    51 H18      9.0813   4.5392  20.6628   H         1 RES1   0.0000
    52 H19      9.6487   5.6343  19.6381   H         1 RES1   0.0000
    53 C26      5.7227   6.8321  15.0711   C.ar      1 RES1   0.0000
    54 C27      4.9151   7.7831  14.5111   C.ar      1 RES1   0.0000
    55 H20      4.0745   7.9623  14.9143   H         1 RES1   0.0000
    56 C28      6.5427   8.2074  12.7518   C.ar      1 RES1   0.0000
    57 C29      7.0142   6.5620  14.5031   C.ar      1 RES1   0.0000
    58 C30      4.4574   9.5133  12.8246   C.ar      1 RES1   0.0000
    59 H21      3.6278   9.7167  13.2428   H         1 RES1   0.0000
    60 C31      6.0681   9.9055  11.0935   C.ar      1 RES1   0.0000
    61 H22      6.3331  10.3884  10.3194   H         1 RES1   0.0000
    62 C32      5.2787   8.5045  13.3645   C.ar      1 RES1   0.0000
    63 C33      6.8866   8.9394  11.5864   C.ar      1 RES1   0.0000
    64 H23      7.7051   8.7509  11.1409   H         1 RES1   0.0000
    65 C34      7.3830   7.2220  13.3258   C.ar      1 RES1   0.0000
    66 C35      4.8375  10.2065  11.7031   C.ar      1 RES1   0.0000
    67 H24      4.2743  10.8828  11.3419   H         1 RES1   0.0000
    68 C36      5.2662   6.0470  16.2750   C.3       1 RES1   0.0000
    69 H25      4.3950   6.3978  16.5835   H         1 RES1   0.0000
    70 H26      5.1414   5.0982  16.0198   H         1 RES1   0.0000
    71 C37     10.0635   8.7204  18.7481   C.ar      1 RES1   0.0000
    72 C38     10.9639   7.5543  16.8547   C.ar      1 RES1   0.0000
    73 H27     10.8848   6.9298  16.1422   H         1 RES1   0.0000
    74 C39     12.2014   8.2481  17.0435   C.ar      1 RES1   0.0000
    75 C40     12.3249   9.1839  18.0898   C.ar      1 RES1   0.0000
    76 C41      9.8846   7.7740  17.6878   C.ar      1 RES1   0.0000
    77 C42     14.6153   9.5853  17.4772   C.ar      1 RES1   0.0000
    78 H28     15.4380  10.0379  17.6170   H         1 RES1   0.0000
    79 C43     11.2220   9.4052  18.9317   C.ar      1 RES1   0.0000
    80 H29     11.2872  10.0400  19.6359   H         1 RES1   0.0000
    81 C44     13.5637   9.8606  18.2834   C.ar      1 RES1   0.0000
    82 H30     13.6525  10.5031  18.9782   H         1 RES1   0.0000
    83 C45     14.5154   8.6424  16.4350   C.ar      1 RES1   0.0000
    84 H31     15.2687   8.4526  15.8887   H         1 RES1   0.0000
    85 C46     13.3112   7.9907  16.2099   C.ar      1 RES1   0.0000
    86 H32     13.2336   7.3699  15.4955   H         1 RES1   0.0000
    87 C47     10.2508  10.0970  12.4977   C.ar      1 RES1   0.0000
    88 H33     10.6254   9.9023  11.6456   H         1 RES1   0.0000
    89 C48     10.2162  11.4032  12.9312   C.ar      1 RES1   0.0000
    90 H34     10.5630  12.0968  12.3841   H         1 RES1   0.0000
    91 C49      9.6765  11.6976  14.1583   C.ar      1 RES1   0.0000
    92 H35      9.6390  12.5975  14.4576   H         1 RES1   0.0000
    93 C50      9.1812  10.6610  14.9667   C.ar      1 RES1   0.0000
    94 H36      8.8122  10.8598  15.8188   H         1 RES1   0.0000
    95 C51      9.7528   9.0531  13.2743   C.ar      1 RES1   0.0000
    96 C52      9.2298   9.3485  14.5203   C.ar      1 RES1   0.0000
    97 H37      8.9038   8.6486  15.0738   H         1 RES1   0.0000
    98 C53     10.0039   5.1635  11.4304   C.ar      1 RES1   0.0000
    99 C54      9.7958   7.6768  12.7379   C.ar      1 RES1   0.0000
   100 C55     11.0333   7.2037  12.1895   C.ar      1 RES1   0.0000
   101 H38     11.8074   7.7496  12.2574   H         1 RES1   0.0000
   102 C56     11.1235   6.0021  11.5805   C.ar      1 RES1   0.0000
   103 H39     11.9655   5.7157  11.2458   H         1 RES1   0.0000
   104 C57      7.6566   4.7246  11.8829   C.ar      1 RES1   0.0000
   105 H40      6.8325   4.9689  12.2880   H         1 RES1   0.0000
   106 C58      8.7747   5.5686  12.0265   C.ar      1 RES1   0.0000
   107 C59      8.6901   6.8476  12.7020   C.ar      1 RES1   0.0000
   108 C60      7.7384   3.5512  11.1638   C.ar      1 RES1   0.0000
   109 H41      6.9657   3.0080  11.0579   H         1 RES1   0.0000
   110 C61      8.9565   3.1530  10.5881   C.ar      1 RES1   0.0000
   111 H42      9.0106   2.3363  10.1053   H         1 RES1   0.0000
   112 C62     10.0608   3.9390  10.7216   C.ar      1 RES1   0.0000
   113 H43     10.8821   3.6610  10.3325   H         1 RES1   0.0000
   114 C63     11.3981   2.5376  14.8741   C.ar      1 RES1   0.0000
   115 C64      9.0952   1.9807  14.0991   C.ar      1 RES1   0.0000
   116 H44      9.2117   2.6263  13.4110   H         1 RES1   0.0000
   117 C65     10.1204   1.7900  15.0440   C.ar      1 RES1   0.0000
   118 C66      9.8943   0.8622  16.0537   C.ar      1 RES1   0.0000
   119 H45     10.5630   0.7134  16.7125   H         1 RES1   0.0000
   120 C67      8.6957   0.1427  16.1142   C.ar      1 RES1   0.0000
   121 H46      8.5555  -0.4777  16.8195   H         1 RES1   0.0000
   122 C68      7.7176   0.3238  15.1649   C.ar      1 RES1   0.0000
   123 H47      6.9116  -0.1773  15.2005   H         1 RES1   0.0000
   124 C69      7.9271   1.2549  14.1476   C.ar      1 RES1   0.0000
   125 H48      7.2584   1.3893  13.4853   H         1 RES1   0.0000
   126 C70     14.0812   4.5062  16.6141   C.ar      1 RES1   0.0000
   127 H49     13.8218   4.4224  17.5252   H         1 RES1   0.0000
   128 C71     12.9838   3.3777  13.2352   C.ar      1 RES1   0.0000
   129 H50     13.2696   3.4419  12.3317   H         1 RES1   0.0000
   130 C72     13.3043   3.8723  15.6117   C.ar      1 RES1   0.0000
   131 C73     11.8768   2.6636  13.5356   C.ar      1 RES1   0.0000
   132 H51     11.4037   2.2320  12.8342   H         1 RES1   0.0000
   133 C74     15.1938   5.2347  16.2997   C.ar      1 RES1   0.0000
   134 H52     15.7030   5.6385  16.9921   H         1 RES1   0.0000
   135 C75     13.7247   4.0294  14.2498   C.ar      1 RES1   0.0000
   136 C76     15.5961   5.3915  14.9532   C.ar      1 RES1   0.0000
   137 H53     16.3689   5.9034  14.7417   H         1 RES1   0.0000
   138 C77     14.8734   4.8074  13.9667   C.ar      1 RES1   0.0000
   139 H54     15.1439   4.9230  13.0636   H         1 RES1   0.0000
   140 C78     12.1136   3.1126  15.9034   C.ar      1 RES1   0.0000
   141 H55      6.4371   6.9986  17.4247   H         1 RES1   0.0000
   142 H56      7.7134   3.8758  18.9236   H         1 RES1   0.0000
   143 O5       7.4956   1.5854  18.7639   O.3       2 RES2   0.0000
   144 C79      9.6071   8.4025   6.4521   C.3       3 RES3   0.0000
   145 H57      9.7195   9.3245   6.1418   H         3 RES3   0.0000
   146 H58      8.9065   8.3691   7.1359   H         3 RES3   0.0000
   147 H59      9.3532   7.8309   5.6961   H         3 RES3   0.0000
   148 O6      11.7852   7.6248   6.2838   O.2       3 RES3   0.0000
   149 C80     11.0388   7.7892   8.4644   C.3       3 RES3   0.0000
   150 H60     11.5757   6.9944   8.6676   H         3 RES3   0.0000
   151 H61     10.1551   7.7016   8.8795   H         3 RES3   0.0000
   152 H62     11.4869   8.5861   8.8183   H         3 RES3   0.0000
   153 C81     10.8876   7.9164   7.0311   C.2       3 RES3   0.0000
@<TRIPOS>BOND
     1     1     3    1
     2     2    71    1
     3     3    76    1
     4     4     1    1
     5     5     1    1
     6     6     1    1
     7     7     1    1
     8     8     1    1
     9     9     7    1
    10    10     9    1
    11    11     9    1
    12    12    13    1
    13    14    15    1
    14    16    11   ar
    15    17    16    1
    16    18    12   ar
    17    19    18    1
    18    20    11   ar
    19    21    20    1
    20    22    23    1
    21    24    25    1
    22    26     6    1
    23    27    26    1
    24    28    29    1
    25    30    24   ar
    26    31    30    1
    27    32    22   ar
    28    33    32    1
    29    34    22   ar
    30    35     5    1
    31    36    35   ar
    32    37    38    1
    33    39    37   ar
    34    40    35   ar
    35    41    42    1
    36    43    36   ar
    37    44    41   ar
    38    45    44    1
    39    46    39   ar
    40    47    46    1
    41    48    43   ar
    42    49    48    1
    43    50     7    1
    44    51    50    1
    45    52    50    1
    46    53    54   ar
    47    54    55    1
    48    56    62   ar
    49    57     4    1
    50    58    59    1
    51    60    61    1
    52    62    54   ar
    53    63    56   ar
    54    64    63    1
    55    65    56   ar
    56    66    58   ar
    57    67    66    1
    58    68     6    1
    59    69    68    1
    60    70    68    1
    61    71    76   ar
    62    72    73    1
    63    74    72   ar
    64    75    74   ar
    65    76    72   ar
    66    77    78    1
    67    79    71   ar
    68    80    79    1
    69    81    75   ar
    70    82    81    1
    71    83    77   ar
    72    84    83    1
    73    85    74   ar
    74    86    85    1
    75    87    88    1
    76    89    87   ar
    77    90    89    1
    78    91    89   ar
    79    92    91    1
    80    93    91   ar
    81    94    93    1
    82    95    87   ar
    83    96    93   ar
    84    97    96    1
    85    98   102   ar
    86    99    95    1
    87   100    99   ar
    88   101   100    1
    89   102   100   ar
    90   103   102    1
    91   104   105    1
    92   106    98   ar
    93   107    65    1
    94   108   104   ar
    95   109   108    1
    96   110   108   ar
    97   111   110    1
    98   112    98   ar
    99   113   112    1
   100   114   117    1
   101   115   116    1
   102   117   115   ar
   103   118   117   ar
   104   119   118    1
   105   120   118   ar
   106   121   120    1
   107   122   120   ar
   108   123   122    1
   109   124   115   ar
   110   125   124    1
   111   126   127    1
   112   128   129    1
   113   130   126   ar
   114   131   114   ar
   115   132   131    1
   116   133   126   ar
   117   134   133    1
   118   135   128   ar
   119   136   133   ar
   120   137   136    1
   121   138   135   ar
   122   139   138    1
   123   140    36    1
   124   141     6    1
   125   142     7    1
   126     9    26    1
   127    12    20   ar
   128    14    16   ar
   129    14    18   ar
   130    24    34   ar
   131    26    34    1
   132    28    30   ar
   133    28    32   ar
   134    37    40   ar
   135    39    43   ar
   136    40    50    1
   137    41    46   ar
   138    44    48   ar
   139    53    57   ar
   140    53    68    1
   141    57    65   ar
   142    58    62   ar
   143    60    63   ar
   144    60    66   ar
   145    75    79   ar
   146    77    81   ar
   147    83    85   ar
   148    95    96   ar
   149    99   107   ar
   150   104   106   ar
   151   106   107   ar
   152   110   112   ar
   153   114   140   ar
   154   122   124   ar
   155   128   131   ar
   156   130   135   ar
   157   130   140   ar
   158   136   138   ar
   159   144   145    1
   160   146   144    1
   161   147   144    1
   162   148   153    2
   163   149   150    1
   164   151   149    1
   165   152   149    1
   166   153   144    1
   167   149   153    1
@<TRIPOS>SUBSTRUCTURE
     1 RES1        1 GROUP             0 ****  ****    0  
     2 RES2      143 GROUP             0 ****  ****    0  
     3 RES3      144 GROUP             0 ****  ****    0  
@<TRIPOS>CRYSIN
   13.8731   20.8602   21.8492   90.0000   90.0000   90.0000    19     1
