@<TRIPOS>MOLECULE
OSADOC
   103   109     4     0     0
SMALL
USER_CHARGES
****
Generated from the CSD

@<TRIPOS>ATOM
     1 Fe1      8.9128   4.8416   5.9111   Fe        1 RES1   2.0000
     2 C1      10.0621   4.0282   2.9357   C.3       1 RES1   0.0000
     3 H1      10.3563   3.9835   1.9802   H         1 RES1   0.0000
     4 N1      10.3375   2.6785   3.4708   N.am      1 RES1   0.0000
     5 H2      10.7833   2.1330   2.9426   H         1 RES1   0.0000
     6 C2       9.9887   2.1952   4.6594   C.2       1 RES1   0.0000
     7 O1       9.5361   2.9234   5.5794   O.2       1 RES1   0.0000
     8 C3      10.1382   0.7408   4.9065   C.ar      1 RES1   0.0000
     9 C4      10.3553  -0.1905   3.8859   C.ar      1 RES1   0.0000
    10 H3      10.4690   0.1063   2.9899   H         1 RES1   0.0000
    11 C5      10.4055  -1.5373   4.1765   C.ar      1 RES1   0.0000
    12 H4      10.5574  -2.1665   3.4805   H         1 RES1   0.0000
    13 C6      10.2353  -1.9796   5.4855   C.ar      1 RES1   0.0000
    14 C7      10.0189  -1.0702   6.5058   C.ar      1 RES1   0.0000
    15 H5       9.9057  -1.3679   7.4007   H         1 RES1   0.0000
    16 C8       9.9718   0.2809   6.2037   C.ar      1 RES1   0.0000
    17 H6       9.8202   0.9080   6.9018   H         1 RES1   0.0000
    18 O2      10.2611  -3.3353   5.6527   O.3       1 RES1   0.0000
    19 C9       9.9548  -3.8277   6.9669   C.3       1 RES1   0.0000
    20 H7       9.9704  -4.8084   6.9609   H         1 RES1   0.0000
    21 H8       9.0644  -3.5171   7.2340   H         1 RES1   0.0000
    22 H9      10.6218  -3.4952   7.6041   H         1 RES1   0.0000
    23 C10     10.8922   5.1501   3.5362   C.ar      1 RES1   0.0000
    24 C11     11.8908   5.7219   2.7702   C.ar      1 RES1   0.0000
    25 H10     12.0934   5.3738   1.9093   H         1 RES1   0.0000
    26 C12     12.5952   6.8064   3.2689   C.ar      1 RES1   0.0000
    27 H11     13.2892   7.2065   2.7581   H         1 RES1   0.0000
    28 C13     12.2736   7.2937   4.5126   C.ar      1 RES1   0.0000
    29 H12     12.7251   8.0497   4.8696   H         1 RES1   0.0000
    30 C14     11.2782   6.6583   5.2325   C.ar      1 RES1   0.0000
    31 H13     11.0701   6.9883   6.0991   H         1 RES1   0.0000
    32 N2      10.5926   5.6009   4.7715   N.ar      1 RES1   0.0000
    33 C15      8.5667   4.3191   2.8596   C.ar      1 RES1   0.0000
    34 C16      7.9062   4.1528   1.6575   C.ar      1 RES1   0.0000
    35 H14      8.3775   3.8211   0.9009   H         1 RES1   0.0000
    36 C17      6.5673   4.4654   1.5487   C.ar      1 RES1   0.0000
    37 H15      6.1043   4.3477   0.7271   H         1 RES1   0.0000
    38 C18      5.9182   4.9510   2.6588   C.ar      1 RES1   0.0000
    39 H16      5.0013   5.1993   2.6151   H         1 RES1   0.0000
    40 C19      6.6218   5.0700   3.8399   C.ar      1 RES1   0.0000
    41 H17      6.1607   5.3864   4.6083   H         1 RES1   0.0000
    42 N3       7.9241   4.7627   3.9613   N.ar      1 RES1   0.0000
    43 C1A      7.7636   5.6550   8.8866   C.3       1 RES1   0.0000
    44 H1A      7.4694   5.6997   9.8420   H         1 RES1   0.0000
    45 N1A      7.4881   7.0047   8.3515   N.am      1 RES1   0.0000
    46 H2A      7.0423   7.5502   8.8797   H         1 RES1   0.0000
    47 C2A      7.8370   7.4879   7.1629   C.2       1 RES1   0.0000
    48 O1A      8.2895   6.7598   6.2429   O.2       1 RES1   0.0000
    49 C3A      7.6875   8.9423   6.9158   C.ar      1 RES1   0.0000
    50 C4A      7.4703   9.8737   7.9364   C.ar      1 RES1   0.0000
    51 H3A      7.3566   9.5769   8.8324   H         1 RES1   0.0000
    52 C5A      7.4201  11.2205   7.6458   C.ar      1 RES1   0.0000
    53 H4A      7.2682  11.8496   8.3418   H         1 RES1   0.0000
    54 C6A      7.5903  11.6628   6.3367   C.ar      1 RES1   0.0000
    55 C7A      7.8067  10.7534   5.3165   C.ar      1 RES1   0.0000
    56 H5A      7.9199  11.0511   4.4215   H         1 RES1   0.0000
    57 C8A      7.8538   9.4023   5.6185   C.ar      1 RES1   0.0000
    58 H6A      8.0054   8.7752   4.9204   H         1 RES1   0.0000
    59 O2A      7.5645  13.0185   6.1696   O.3       1 RES1   0.0000
    60 C9A      7.8708  13.5109   4.8554   C.3       1 RES1   0.0000
    61 H7A      7.8552  14.4916   4.8613   H         1 RES1   0.0000
    62 H8A      8.7612  13.2003   4.5882   H         1 RES1   0.0000
    63 H9A      7.2038  13.1783   4.2182   H         1 RES1   0.0000
    64 C10A     6.9334   4.5330   8.2861   C.ar      1 RES1   0.0000
    65 C11A     5.9348   3.9613   9.0521   C.ar      1 RES1   0.0000
    66 H10A     5.7322   4.3093   9.9130   H         1 RES1   0.0000
    67 C12A     5.2304   2.8768   8.5534   C.ar      1 RES1   0.0000
    68 H11A     4.5364   2.4767   9.0641   H         1 RES1   0.0000
    69 C13A     5.5520   2.3894   7.3097   C.ar      1 RES1   0.0000
    70 H12A     5.1005   1.6335   6.9527   H         1 RES1   0.0000
    71 C14A     6.5474   3.0249   6.5897   C.ar      1 RES1   0.0000
    72 H13A     6.7555   2.6949   5.7232   H         1 RES1   0.0000
    73 N2A      7.2330   4.0823   7.0508   N.ar      1 RES1   0.0000
    74 C15A     9.2589   5.3640   8.9627   C.ar      1 RES1   0.0000
    75 C16A     9.9194   5.5304  10.1648   C.ar      1 RES1   0.0000
    76 H14A     9.4481   5.8620  10.9214   H         1 RES1   0.0000
    77 C17A    11.2583   5.2177  10.2735   C.ar      1 RES1   0.0000
    78 H15A    11.7213   5.3355  11.0952   H         1 RES1   0.0000
    79 C18A    11.9074   4.7322   9.1634   C.ar      1 RES1   0.0000
    80 H16A    12.8243   4.4839   9.2072   H         1 RES1   0.0000
    81 C19A    11.2038   4.6131   7.9824   C.ar      1 RES1   0.0000
    82 H17A    11.6649   4.2967   7.2139   H         1 RES1   0.0000
    83 N3A      9.9015   4.9205   7.8610   N.ar      1 RES1   0.0000
    84 O3      12.0597   3.5285  -0.0654   O.3       2 RES2  -1.0000
    85 O4      12.7882   1.3341  -0.8376   O.2       2 RES2   0.0000
    86 O5      11.9117   1.6236   1.3911   O.2       2 RES2   0.0000
    87 S1      12.5554   2.2239   0.2588   S.o2      2 RES2   0.0000
    88 C20     14.2364   2.5355   0.8902   C.3       2 RES2   0.0000
    89 F1      14.7673   1.4299   1.3866   F         2 RES2   0.0000
    90 F2      14.2235   3.4513   1.8514   F         2 RES2   0.0000
    91 F3      15.0518   2.9617  -0.0430   F         2 RES2   0.0000
    92 N4       9.4650   7.5647   1.3395   N.1       3 RES3   0.0000
    93 C21      8.4155   7.9556   1.4612   C.1       3 RES3   0.0000
    94 C22      7.0692   8.4486   1.5605   C.3       3 RES3   0.0000
    95 H18      6.9912   9.0277   2.3479   H         3 RES3   0.0000
    96 H19      6.4502   7.6929   1.6480   H         3 RES3   0.0000
    97 H20      6.8478   8.9605   0.7543   H         3 RES3   0.0000
    98 N5      11.2851  11.2830   3.8612   N.1       4 RES4   0.0000
    99 C23     11.6257  10.7936   2.9059   C.1       4 RES4   0.0000
   100 C24     11.9808  10.1613   1.6799   C.3       4 RES4   0.0000
   101 H21     12.9250   9.9004   1.7083   H         4 RES4   0.0000
   102 H22     11.8361  10.7843   0.9375   H         4 RES4   0.0000
   103 H23     11.4254   9.3640   1.5499   H         4 RES4   0.0000
@<TRIPOS>BOND
     1     1     7    1
     2     2     3    1
     3     4     2    1
     4     5     4    1
     5     6     4   am
     6     7     6    2
     7     8     6    1
     8     9     8   ar
     9    10     9    1
    10    11     9   ar
    11    12    11    1
    12    13    11   ar
    13    14    13   ar
    14    15    14    1
    15    16     8   ar
    16    17    16    1
    17    18    13    1
    18    19    18    1
    19    20    19    1
    20    21    19    1
    21    22    19    1
    22    23     2    1
    23    24    23   ar
    24    25    24    1
    25    26    24   ar
    26    27    26    1
    27    28    26   ar
    28    29    28    1
    29    30    28   ar
    30    31    30    1
    31    32     1    1
    32    33     2    1
    33    34    33   ar
    34    35    34    1
    35    36    34   ar
    36    37    36    1
    37    38    36   ar
    38    39    38    1
    39    40    38   ar
    40    41    40    1
    41    42     1    1
    42    43    44    1
    43    45    43    1
    44    46    45    1
    45    47    45   am
    46    48     1    1
    47    49    47    1
    48    50    49   ar
    49    51    50    1
    50    52    50   ar
    51    53    52    1
    52    54    52   ar
    53    55    54   ar
    54    56    55    1
    55    57    49   ar
    56    58    57    1
    57    59    54    1
    58    60    59    1
    59    61    60    1
    60    62    60    1
    61    63    60    1
    62    64    43    1
    63    65    64   ar
    64    66    65    1
    65    67    65   ar
    66    68    67    1
    67    69    67   ar
    68    70    69    1
    69    71    69   ar
    70    72    71    1
    71    73     1    1
    72    74    43    1
    73    75    74   ar
    74    76    75    1
    75    77    75   ar
    76    78    77    1
    77    79    77   ar
    78    80    79    1
    79    81    79   ar
    80    82    81    1
    81    83     1    1
    82    14    16   ar
    83    23    32   ar
    84    30    32   ar
    85    33    42   ar
    86    40    42   ar
    87    47    48    2
    88    55    57   ar
    89    64    73   ar
    90    71    73   ar
    91    74    83   ar
    92    81    83   ar
    93    84    87    1
    94    85    87    2
    95    86    87    2
    96    87    88    1
    97    88    89    1
    98    90    88    1
    99    91    88    1
   100    92    93    3
   101    93    94    1
   102    94    95    1
   103    96    94    1
   104    97    94    1
   105    98    99    3
   106    99   100    1
   107   100   101    1
   108   102   100    1
   109   103   100    1
@<TRIPOS>SUBSTRUCTURE
     1 RES1        1 GROUP             0 ****  ****    0  
     2 RES2       84 GROUP             0 ****  ****    0  
     3 RES3       92 GROUP             0 ****  ****    0  
     4 RES4       98 GROUP             0 ****  ****    0  
@<TRIPOS>CRYSIN
   11.2171   11.2665   11.9035   88.1680   83.4460   62.2270     2     1
