@<TRIPOS>MOLECULE
OTUJUJ01
   107   112     4     0     0
SMALL
USER_CHARGES
****
Generated from the CSD

@<TRIPOS>ATOM
     1 Fe1      9.0848   6.9110   5.5084   Fe        1 RES1   2.0000
     2 N1      10.9469   6.3179   5.0959   N.2       1 RES1   0.0000
     3 N2      10.0165   7.7143   7.0885   N.2       1 RES1   0.0000
     4 N3      12.9615   5.6190   4.5852   N.pl3     1 RES1   0.0000
     5 N4       8.3332   6.1887   3.8163   N.2       1 RES1   0.0000
     6 N5       9.3643   8.5274   4.3455   N.2       1 RES1   0.0000
     7 N6       7.5402   5.2986   1.9684   N.pl3     1 RES1   0.0000
     8 N7       8.6469   5.2984   6.5807   N.2       1 RES1   0.0000
     9 N8       7.2620   7.4249   6.1023   N.2       1 RES1   0.0000
    10 N9       8.2871   3.5200   7.8340   N.pl3     1 RES1   0.0000
    11 C1      11.1706   4.8869   3.0176   C.3       1 RES1   0.0000
    12 C2      11.6606   5.6208   4.2116   C.2       1 RES1   0.0000
    13 C3      13.1083   6.3376   5.7416   C.2       1 RES1   0.0000
    14 C4      11.8488   6.7725   6.0518   C.2       1 RES1   0.0000
    15 C5      11.2925   7.5339   7.1107   C.2       1 RES1   0.0000
    16 C6       9.3643   8.4174   8.2354   C.3       1 RES1   0.0000
    17 C7      10.2698   9.3807   8.9966   C.3       1 RES1   0.0000
    18 C8       8.7795   7.4050   9.2105   C.ar      1 RES1   0.0000
    19 C9       7.4976   7.5991   9.7173   C.ar      1 RES1   0.0000
    20 C10      6.9602   6.7074  10.6413   C.ar      1 RES1   0.0000
    21 C11      7.7071   5.6229  11.0580   C.ar      1 RES1   0.0000
    22 C12      8.9867   5.4447  10.5837   C.ar      1 RES1   0.0000
    23 C13      9.5193   6.3422   9.6579   C.ar      1 RES1   0.0000
    24 C14      7.3366   3.8667   4.0081   C.3       1 RES1   0.0000
    25 C15      7.7544   5.1207   3.2971   C.2       1 RES1   0.0000
    26 C16      7.9959   6.5376   1.6175   C.2       1 RES1   0.0000
    27 C17      8.4871   7.0895   2.7642   C.2       1 RES1   0.0000
    28 C18      9.0269   8.3600   3.1180   C.2       1 RES1   0.0000
    29 C19     10.0046   9.8099   4.7711   C.3       1 RES1   0.0000
    30 C20      9.5359  11.0424   4.0305   C.3       1 RES1   0.0000
    31 C21     11.5115   9.6942   4.6822   C.ar      1 RES1   0.0000
    32 C22     12.2951  10.1853   5.7270   C.ar      1 RES1   0.0000
    33 C23     13.6824  10.1475   5.6535   C.ar      1 RES1   0.0000
    34 C24     14.3026   9.6438   4.5131   C.ar      1 RES1   0.0000
    35 C25     13.5368   9.1787   3.4578   C.ar      1 RES1   0.0000
    36 C26     12.1436   9.1861   3.5598   C.ar      1 RES1   0.0000
    37 C27     10.5243   3.6238   6.7642   C.3       1 RES1   0.0000
    38 C28      9.1760   4.1629   7.0295   C.2       1 RES1   0.0000
    39 C29      7.1413   4.2675   7.9052   C.2       1 RES1   0.0000
    40 C30      7.3733   5.3793   7.1404   C.2       1 RES1   0.0000
    41 C31      6.6453   6.5648   6.8205   C.2       1 RES1   0.0000
    42 C32      6.5411   8.6759   5.7159   C.3       1 RES1   0.0000
    43 C33      5.4438   9.1262   6.6653   C.3       1 RES1   0.0000
    44 C34      5.9966   8.5771   4.2989   C.ar      1 RES1   0.0000
    45 C35      6.0487   9.6851   3.4729   C.ar      1 RES1   0.0000
    46 C36      5.5255   9.6384   2.1797   C.ar      1 RES1   0.0000
    47 C37      4.9384   8.4742   1.7147   C.ar      1 RES1   0.0000
    48 C38      4.8437   7.3693   2.5370   C.ar      1 RES1   0.0000
    49 C39      5.3681   7.4143   3.8341   C.ar      1 RES1   0.0000
    50 H1      10.9528   3.9933   3.2557   H         1 RES1   0.0000
    51 H2      11.8477   4.8795   2.3503   H         1 RES1   0.0000
    52 H3      10.3976   5.3225   2.6797   H         1 RES1   0.0000
    53 H4      13.6694   5.2002   4.1085   H         1 RES1   0.0000
    54 H5      13.9061   6.4887   6.2365   H         1 RES1   0.0000
    55 H6      11.8275   7.8902   7.8108   H         1 RES1   0.0000
    56 H7       8.6446   8.9284   7.8835   H         1 RES1   0.0000
    57 H8      10.6841   8.9080   9.7084   H         1 RES1   0.0000
    58 H9       9.7537  10.0963   9.3507   H         1 RES1   0.0000
    59 H10     10.9362   9.7274   8.4150   H         1 RES1   0.0000
    60 H11      6.9992   8.3611   9.4437   H         1 RES1   0.0000
    61 H12      6.0830   6.8427  10.9816   H         1 RES1   0.0000
    62 H13      7.3212   4.9907  11.6545   H         1 RES1   0.0000
    63 H14      9.5087   4.7200  10.9068   H         1 RES1   0.0000
    64 H15     10.4012   6.2143   9.3305   H         1 RES1   0.0000
    65 H16      8.0551   3.2443   3.9893   H         1 RES1   0.0000
    66 H17      6.5814   3.4909   3.5709   H         1 RES1   0.0000
    67 H18      7.1129   4.0656   4.9108   H         1 RES1   0.0000
    68 H19      7.1567   4.6589   1.3803   H         1 RES1   0.0000
    69 H20      7.9675   6.9354   0.7558   H         1 RES1   0.0000
    70 H21      9.1429   9.0507   2.4776   H         1 RES1   0.0000
    71 H22      9.7856   9.9388   5.6868   H         1 RES1   0.0000
    72 H23     10.1005  11.1772   3.2779   H         1 RES1   0.0000
    73 H24      9.5809  11.8019   4.5996   H         1 RES1   0.0000
    74 H25      8.6410  10.9176   3.7366   H         1 RES1   0.0000
    75 H26     11.8749  10.5431   6.4992   H         1 RES1   0.0000
    76 H27     14.2091  10.4578   6.3800   H         1 RES1   0.0000
    77 H28     15.2508   9.6236   4.4561   H         1 RES1   0.0000
    78 H29     13.9594   8.8505   2.6737   H         1 RES1   0.0000
    79 H30     11.6168   8.8505   2.8434   H         1 RES1   0.0000
    80 H31     10.4994   3.0756   5.9879   H         1 RES1   0.0000
    81 H32     10.8190   3.1090   7.5056   H         1 RES1   0.0000
    82 H33     11.1244   4.3455   6.6225   H         1 RES1   0.0000
    83 H34      8.4339   2.6863   8.2655   H         1 RES1   0.0000
    84 H35      6.3517   4.0675   8.3948   H         1 RES1   0.0000
    85 H36      5.7623   6.7130   7.1358   H         1 RES1   0.0000
    86 H37      7.1922   9.3678   5.7050   H         1 RES1   0.0000
    87 H38      5.3716  10.0741   6.6568   H         1 RES1   0.0000
    88 H39      4.6200   8.7430   6.3881   H         1 RES1   0.0000
    89 H40      5.6498   8.8320   7.5440   H         1 RES1   0.0000
    90 H41      6.4630  10.4801   3.7872   H         1 RES1   0.0000
    91 H42      5.5658  10.4078   1.6228   H         1 RES1   0.0000
    92 H43      4.6010   8.4390   0.8265   H         1 RES1   0.0000
    93 H44      4.4199   6.5813   2.2210   H         1 RES1   0.0000
    94 H45      5.3077   6.6536   4.3995   H         1 RES1   0.0000
    95 Cl1      3.3003   3.3157   2.6714   Cl        2 RES2   0.0000
    96 O1       3.6422   4.4204   3.5224   O.3       2 RES2  -1.0000
    97 O2       3.4079   3.7293   1.3007   O.2       2 RES2   0.0000
    98 O3       4.1832   2.2278   2.9232   O.2       2 RES2   0.0000
    99 O4       1.9365   2.9338   2.9384   O.2       2 RES2   0.0000
   100 Cl2      8.6474   1.6426  10.9215   Cl        3 RES3   0.0000
   101 O5       9.4270   1.5107   9.7003   O.3       3 RES3  -1.0000
   102 O6       7.4147   2.3352  10.6035   O.2       3 RES3   0.0000
   103 O7       9.3915   2.4097  11.8881   O.2       3 RES3   0.0000
   104 O8       8.3534   0.3482  11.4565   O.2       3 RES3   0.0000
   105 O9       6.0073   3.6883   0.3288   O.3       4 RES4   0.0000
   106 C40      6.3091   2.2896   0.0263   C.3       4 RES4   0.0000
   107 C41      7.7556   2.2117  -0.1677   C.3       4 RES4   0.0000
@<TRIPOS>BOND
     1     1     2    1
     2     2    12    2
     3     3     1    1
     4     4    12    1
     5     5     1    1
     6     6     1    1
     7     7    25    1
     8     8     1    1
     9     9     1    1
    10    10    38    1
    11    11    12    1
    12    13     4    1
    13    14     2    1
    14    15     3    2
    15    16     3    1
    16    17    16    1
    17    18    16    1
    18    19    18   ar
    19    20    19   ar
    20    21    20   ar
    21    22    21   ar
    22    23    18   ar
    23    24    25    1
    24    25     5    2
    25    26     7    1
    26    27     5    1
    27    28     6    2
    28    29     6    1
    29    30    29    1
    30    31    29    1
    31    32    31   ar
    32    33    32   ar
    33    34    33   ar
    34    35    34   ar
    35    36    31   ar
    36    37    38    1
    37    38     8    2
    38    39    10    1
    39    40     8    1
    40    41     9    2
    41    42     9    1
    42    43    42    1
    43    44    42    1
    44    45    44   ar
    45    46    45   ar
    46    47    46   ar
    47    48    47   ar
    48    49    44   ar
    49    50    11    1
    50    51    11    1
    51    52    11    1
    52    53     4    1
    53    54    13    1
    54    55    15    1
    55    56    16    1
    56    57    17    1
    57    58    17    1
    58    59    17    1
    59    60    19    1
    60    61    20    1
    61    62    21    1
    62    63    22    1
    63    64    23    1
    64    65    24    1
    65    66    24    1
    66    67    24    1
    67    68     7    1
    68    69    26    1
    69    70    28    1
    70    71    29    1
    71    72    30    1
    72    73    30    1
    73    74    30    1
    74    75    32    1
    75    76    33    1
    76    77    34    1
    77    78    35    1
    78    79    36    1
    79    80    37    1
    80    81    37    1
    81    82    37    1
    82    83    10    1
    83    84    39    1
    84    85    41    1
    85    86    42    1
    86    87    43    1
    87    88    43    1
    88    89    43    1
    89    90    45    1
    90    91    46    1
    91    92    47    1
    92    93    48    1
    93    94    49    1
    94    13    14    2
    95    14    15    1
    96    22    23   ar
    97    26    27    2
    98    27    28    1
    99    35    36   ar
   100    39    40    2
   101    40    41    1
   102    48    49   ar
   103    95    96    1
   104    97    95    2
   105    98    95    2
   106    99    95    2
   107   100   101    1
   108   102   100    2
   109   103   100    2
   110   104   100    2
   111   105   106    1
   112   106   107    1
@<TRIPOS>SUBSTRUCTURE
     1 RES1        1 GROUP             0 ****  ****    0  
     2 RES2       95 GROUP             0 ****  ****    0  
     3 RES3      100 GROUP             0 ****  ****    0  
     4 RES4      105 GROUP             0 ****  ****    0  
@<TRIPOS>CRYSIN
   11.8370   18.5390   20.2090   90.0000   90.0000   90.0000    19     1
