@<TRIPOS>MOLECULE
OTUJUJ
   107   112     4     0     0
SMALL
USER_CHARGES
****
Generated from the CSD

@<TRIPOS>ATOM
     1 Fe1      9.4213   7.1435   5.7653   Fe        1 RES1   2.0000
     2 N1      11.4355   6.4215   5.2314   N.2       1 RES1   0.0000
     3 N2      10.6811   7.9775   7.3720   N.2       1 RES1   0.0000
     4 N3      13.4201   5.7198   4.6900   N.pl3     1 RES1   0.0000
     5 N4       8.5784   6.4699   3.8809   N.2       1 RES1   0.0000
     6 N5       9.6665   8.8989   4.4498   N.2       1 RES1   0.0000
     7 N6       7.9084   5.6509   1.9383   N.pl3     1 RES1   0.0000
     8 N7       8.8471   5.4629   6.9991   N.2       1 RES1   0.0000
     9 N8       7.4071   7.7207   6.4640   N.2       1 RES1   0.0000
    10 N9       8.3808   3.8026   8.3286   N.pl3     1 RES1   0.0000
    11 C1      11.5608   5.0478   3.1540   C.3       1 RES1   0.0000
    12 C2      12.0946   5.7365   4.3739   C.2       1 RES1   0.0000
    13 C3      13.6057   6.3861   5.8129   C.2       1 RES1   0.0000
    14 C4      12.3344   6.8608   6.1753   C.2       1 RES1   0.0000
    15 C5      11.9175   7.6890   7.2625   C.2       1 RES1   0.0000
    16 C6      10.2654   8.8077   8.5519   C.3       1 RES1   0.0000
    17 C7      11.3873   9.5019   9.3357   C.3       1 RES1   0.0000
    18 C8       9.4183   7.9850   9.4579   C.ar      1 RES1   0.0000
    19 C9       8.1591   8.4075   9.8097   C.ar      1 RES1   0.0000
    20 C10      7.3107   7.6332  10.6925   C.ar      1 RES1   0.0000
    21 C11      7.9048   6.3656  11.1034   C.ar      1 RES1   0.0000
    22 C12      9.1339   5.9878  10.8189   C.ar      1 RES1   0.0000
    23 C13      9.9063   6.8012   9.9846   C.ar      1 RES1   0.0000
    24 C14      7.5782   4.2010   4.0010   C.3       1 RES1   0.0000
    25 C15      8.0265   5.4555   3.3205   C.2       1 RES1   0.0000
    26 C16      8.3543   6.9166   1.6813   C.2       1 RES1   0.0000
    27 C17      8.7965   7.4247   2.8970   C.2       1 RES1   0.0000
    28 C18      9.3147   8.6830   3.2383   C.2       1 RES1   0.0000
    29 C19     10.2642  10.1981   4.8627   C.3       1 RES1   0.0000
    30 C20      9.8183  11.4060   4.0347   C.3       1 RES1   0.0000
    31 C21     11.7849  10.0640   4.8417   C.ar      1 RES1   0.0000
    32 C22     12.5031  10.5964   5.8846   C.ar      1 RES1   0.0000
    33 C23     13.9057  10.5405   5.8825   C.ar      1 RES1   0.0000
    34 C24     14.5480   9.9673   4.7363   C.ar      1 RES1   0.0000
    35 C25     13.8611   9.5019   3.7945   C.ar      1 RES1   0.0000
    36 C26     12.4489   9.5094   3.7861   C.ar      1 RES1   0.0000
    37 C27     10.6908   3.8157   7.4184   C.3       1 RES1   0.0000
    38 C28      9.3134   4.3647   7.5532   C.2       1 RES1   0.0000
    39 C29      7.2589   4.5974   8.3159   C.2       1 RES1   0.0000
    40 C30      7.5795   5.6304   7.4732   C.2       1 RES1   0.0000
    41 C31      6.8492   6.8161   7.1824   C.2       1 RES1   0.0000
    42 C32      6.6781   8.9398   6.1290   C.3       1 RES1   0.0000
    43 C33      5.5285   9.3326   7.0286   C.3       1 RES1   0.0000
    44 C34      6.1588   8.8803   4.7005   C.ar      1 RES1   0.0000
    45 C35      6.2286  10.0361   3.8999   C.ar      1 RES1   0.0000
    46 C36      5.6599   9.9468   2.5894   C.ar      1 RES1   0.0000
    47 C37      5.1128   8.8523   2.1153   C.ar      1 RES1   0.0000
    48 C38      5.0285   7.7244   2.8591   C.ar      1 RES1   0.0000
    49 C39      5.5755   7.7765   4.1780   C.ar      1 RES1   0.0000
    50 H1      11.3234   4.1600   3.3963   H         1 RES1   0.0000
    51 H2      12.2163   5.0236   2.4672   H         1 RES1   0.0000
    52 H3      10.7896   5.5076   2.8401   H         1 RES1   0.0000
    53 H4      14.1081   5.2861   4.1969   H         1 RES1   0.0000
    54 H5      14.4154   6.5090   6.2933   H         1 RES1   0.0000
    55 H6      12.5465   8.0148   7.8967   H         1 RES1   0.0000
    56 H7       9.7244   9.5131   8.2127   H         1 RES1   0.0000
    57 H8      11.6596   8.9138  10.0310   H         1 RES1   0.0000
    58 H9      11.1005  10.3246   9.7128   H         1 RES1   0.0000
    59 H10     12.1187   9.6601   8.7500   H         1 RES1   0.0000
    60 H11      7.8771   9.2432   9.4579   H         1 RES1   0.0000
    61 H12      6.4275   7.9198  10.8948   H         1 RES1   0.0000
    62 H13      7.3589   5.8650  11.7017   H         1 RES1   0.0000
    63 H14      9.4195   5.1558  11.1729   H         1 RES1   0.0000
    64 H15     10.7944   6.5257   9.7929   H         1 RES1   0.0000
    65 H16      8.2976   3.5811   3.9947   H         1 RES1   0.0000
    66 H17      6.8348   3.8306   3.5417   H         1 RES1   0.0000
    67 H18      7.3312   4.3889   4.9006   H         1 RES1   0.0000
    68 H19      7.5831   5.0255   1.3000   H         1 RES1   0.0000
    69 H20      8.3482   7.3633   0.8428   H         1 RES1   0.0000
    70 H21      9.3870   9.3679   2.5852   H         1 RES1   0.0000
    71 H22     10.0003  10.3581   5.7603   H         1 RES1   0.0000
    72 H23     10.4341  11.5233   3.3184   H         1 RES1   0.0000
    73 H24      9.8087  12.1897   4.5720   H         1 RES1   0.0000
    74 H25      8.9495  11.2534   3.6829   H         1 RES1   0.0000
    75 H26     12.0295  10.9966   6.6051   H         1 RES1   0.0000
    76 H27     14.3937  10.8849   6.6199   H         1 RES1   0.0000
    77 H28     15.4975   9.9449   4.7173   H         1 RES1   0.0000
    78 H29     14.3371   9.1464   3.0529   H         1 RES1   0.0000
    79 H30     11.9693   9.1018   3.0740   H         1 RES1   0.0000
    80 H31     10.7064   3.2014   6.6936   H         1 RES1   0.0000
    81 H32     10.9486   3.3690   8.2169   H         1 RES1   0.0000
    82 H33     11.2969   4.5267   7.2435   H         1 RES1   0.0000
    83 H34      8.4712   2.9818   8.7984   H         1 RES1   0.0000
    84 H35      6.4383   4.4634   8.7752   H         1 RES1   0.0000
    85 H36      5.9744   6.9445   7.5280   H         1 RES1   0.0000
    86 H37      7.3144   9.6434   6.1585   H         1 RES1   0.0000
    87 H38      4.7272   8.9752   6.6641   H         1 RES1   0.0000
    88 H39      5.4562  10.2781   7.0876   H         1 RES1   0.0000
    89 H40      5.6707   8.9715   7.8967   H         1 RES1   0.0000
    90 H41      6.6179  10.8290   4.2496   H         1 RES1   0.0000
    91 H42      5.7189  10.7155   2.0332   H         1 RES1   0.0000
    92 H43      4.7332   8.8542   1.2431   H         1 RES1   0.0000
    93 H44      4.6453   6.9352   2.4946   H         1 RES1   0.0000
    94 H45      5.5153   7.0003   4.7237   H         1 RES1   0.0000
    95 Cl1      3.5222   3.4194   2.5220   Cl        2 RES2   0.0000
    96 O1       3.6560   4.6086   3.2130   O.3       2 RES2  -1.0000
    97 O2       3.8765   3.5272   1.2747   O.2       2 RES2   0.0000
    98 O3       4.3838   2.4457   2.9960   O.2       2 RES2   0.0000
    99 O4       2.2052   2.9818   2.6968   O.2       2 RES2   0.0000
   100 Cl2      9.0532   1.9637  11.3920   Cl        3 RES3   0.0000
   101 O5       9.6954   1.7664  10.1890   O.3       3 RES3  -1.0000
   102 O6       7.8072   2.5611  11.0254   O.2       3 RES3   0.0000
   103 O7       9.7123   2.7231  12.2917   O.2       3 RES3   0.0000
   104 O8       8.8266   0.7278  12.0536   O.2       3 RES3   0.0000
   105 O9       6.6215   3.7021   0.4066   O.3       4 RES4   0.0000
   106 C40      7.1216   2.3415   0.0021   C.3       4 RES4   0.0000
   107 C41      8.3266   2.3266   0.0822   C.2       4 RES4   0.0000
@<TRIPOS>BOND
     1     1     2    1
     2     2    12    2
     3     3     1    1
     4     4    12    1
     5     5     1    1
     6     6     1    1
     7     7    25    1
     8     8     1    1
     9     9     1    1
    10    10    38    1
    11    11    12    1
    12    13     4    1
    13    14     2    1
    14    15     3    2
    15    16     3    1
    16    17    16    1
    17    18    16    1
    18    19    18   ar
    19    20    19   ar
    20    21    20   ar
    21    22    21   ar
    22    23    18   ar
    23    24    25    1
    24    25     5    2
    25    26     7    1
    26    27     5    1
    27    28     6    2
    28    29     6    1
    29    30    29    1
    30    31    29    1
    31    32    31   ar
    32    33    32   ar
    33    34    33   ar
    34    35    34   ar
    35    36    31   ar
    36    37    38    1
    37    38     8    2
    38    39    10    1
    39    40     8    1
    40    41     9    2
    41    42     9    1
    42    43    42    1
    43    44    42    1
    44    45    44   ar
    45    46    45   ar
    46    47    46   ar
    47    48    47   ar
    48    49    44   ar
    49    50    11    1
    50    51    11    1
    51    52    11    1
    52    53     4    1
    53    54    13    1
    54    55    15    1
    55    56    16    1
    56    57    17    1
    57    58    17    1
    58    59    17    1
    59    60    19    1
    60    61    20    1
    61    62    21    1
    62    63    22    1
    63    64    23    1
    64    65    24    1
    65    66    24    1
    66    67    24    1
    67    68     7    1
    68    69    26    1
    69    70    28    1
    70    71    29    1
    71    72    30    1
    72    73    30    1
    73    74    30    1
    74    75    32    1
    75    76    33    1
    76    77    34    1
    77    78    35    1
    78    79    36    1
    79    80    37    1
    80    81    37    1
    81    82    37    1
    82    83    10    1
    83    84    39    1
    84    85    41    1
    85    86    42    1
    86    87    43    1
    87    88    43    1
    88    89    43    1
    89    90    45    1
    90    91    46    1
    91    92    47    1
    92    93    48    1
    93    94    49    1
    94    13    14    2
    95    14    15    1
    96    22    23   ar
    97    26    27    2
    98    27    28    1
    99    35    36   ar
   100    39    40    2
   101    40    41    1
   102    48    49   ar
   103    95    96    1
   104    97    95    2
   105    98    95    2
   106    99    95    2
   107   100   101    1
   108   102   100    2
   109   103   100    2
   110   104   100    2
   111   105   106    1
   112   106   107    1
@<TRIPOS>SUBSTRUCTURE
     1 RES1        1 GROUP             0 ****  ****    0  
     2 RES2       95 GROUP             0 ****  ****    0  
     3 RES3      100 GROUP             0 ****  ****    0  
     4 RES4      105 GROUP             0 ****  ****    0  
@<TRIPOS>CRYSIN
   12.0500   18.6130   21.0690   90.0000   90.0000   90.0000    19     1
