@<TRIPOS>MOLECULE
OXOQUQ
   150   160     2     0     0
SMALL
NO_CHARGES
****
Generated from the CSD

@<TRIPOS>ATOM
     1 Fe1      3.0911   7.4163  10.8308   Fe        1 RES1   0.0000
     2 Cl1      1.4648   6.5616  12.3768   Cl        1 RES1   0.0000
     3 Cl2      4.6200   8.4317   9.2636   Cl        1 RES1   0.0000
     4 P1       1.6931   9.5720  10.8644   P.3       1 RES1   0.0000
     5 P2       5.0472   6.6603  12.4022   P.3       1 RES1   0.0000
     6 N1       1.8218   7.1308   9.0626   N.ar      1 RES1   0.0000
     7 N2       3.5539   5.4183  10.1124   N.ar      1 RES1   0.0000
     8 C1       3.4866   3.9639   8.2272   C.ar      1 RES1   0.0000
     9 H1       3.2054   3.7942   7.3361   H         1 RES1   0.0000
    10 C2       0.9568   8.0430   8.6209   C.ar      1 RES1   0.0000
    11 C3       4.6331   4.8726  12.2142   C.3       1 RES1   0.0000
    12 H2       5.4100   4.3271  12.4945   H         1 RES1   0.0000
    13 H3       3.8741   4.6498  12.8099   H         1 RES1   0.0000
    14 C4       2.4875  11.2115   8.6776   C.3       1 RES1   0.0000
    15 H4       3.1703  10.5409   8.4235   H         1 RES1   0.0000
    16 H5       1.6401  10.9784   8.2223   H         1 RES1   0.0000
    17 C5       4.6343   3.3030  10.2247   C.ar      1 RES1   0.0000
    18 H6       5.1409   2.6733  10.7246   H         1 RES1   0.0000
    19 C6       4.2526   3.0190   8.9200   C.ar      1 RES1   0.0000
    20 C7       4.2671   4.5219  10.7934   C.ar      1 RES1   0.0000
    21 C8       3.1459   5.1453   8.8543   C.ar      1 RES1   0.0000
    22 C9       0.5219   8.0546   7.3005   C.ar      1 RES1   0.0000
    23 H7      -0.0882   8.7182   7.0013   H         1 RES1   0.0000
    24 C10      2.2821  11.1919  10.1996   C.3       1 RES1   0.0000
    25 H8       1.5876  11.8775  10.4184   H         1 RES1   0.0000
    26 C11      2.2652   6.1632   8.2317   C.ar      1 RES1   0.0000
    27 C12      5.7796   5.6451  14.9927   C.3       1 RES1   0.0000
    28 H9       6.6833   5.4610  14.6337   H         1 RES1   0.0000
    29 H10      5.2184   4.8470  14.8232   H         1 RES1   0.0000
    30 C13      8.4254   6.3015   9.9204   C.3       1 RES1   0.0000
    31 H11      9.0988   5.8568  10.4946   H         1 RES1   0.0000
    32 H12      8.4813   5.8995   9.0173   H         1 RES1   0.0000
    33 C14      7.0252   6.0598  10.4989   C.3       1 RES1   0.0000
    34 H13      6.8836   5.0863  10.6090   H         1 RES1   0.0000
    35 H14      6.3483   6.3947   9.8590   H         1 RES1   0.0000
    36 C15      0.5376  10.0181  12.2460   C.3       1 RES1   0.0000
    37 H15      0.0160   9.1868  12.4376   H         1 RES1   0.0000
    38 C16      4.6138   1.7302   8.2585   C.ar      1 RES1   0.0000
    39 C17      5.2626  -0.6700   6.9769   C.ar      1 RES1   0.0000
    40 C18      0.9931   7.0784   6.4176   C.ar      1 RES1   0.0000
    41 C19      1.8690   6.1176   6.9042   C.ar      1 RES1   0.0000
    42 H16      2.1934   5.4328   6.3314   H         1 RES1   0.0000
    43 C20      6.0370   0.4513   6.7891   C.ar      1 RES1   0.0000
    44 H17      6.7997   0.4027   6.2252   H         1 RES1   0.0000
    45 C21     -0.7623   6.6514   4.6966   C.ar      1 RES1   0.0000
    46 C22     -0.2610   6.9059   2.3241   C.ar      1 RES1   0.0000
    47 C23      0.5461   7.0427   4.9921   C.ar      1 RES1   0.0000
    48 C24      1.0100   7.3188   2.6570   C.ar      1 RES1   0.0000
    49 H18      1.6110   7.5644   1.9637   H         1 RES1   0.0000
    50 C25      3.5712  11.5974  10.9155   C.3       1 RES1   0.0000
    51 H19      3.4111  11.6165  11.8924   H         1 RES1   0.0000
    52 H20      4.2727  10.9234  10.7337   H         1 RES1   0.0000
    53 C26      2.9418  12.5989   8.2417   C.3       1 RES1   0.0000
    54 H21      2.2350  13.2584   8.4554   H         1 RES1   0.0000
    55 H22      3.0812  12.6064   7.2615   H         1 RES1   0.0000
    56 C27      5.1840   6.8366  14.2510   C.3       1 RES1   0.0000
    57 H23      5.8151   7.5965  14.4060   H         1 RES1   0.0000
    58 C28      0.4180   9.0041   9.6444   C.3       1 RES1   0.0000
    59 H24     -0.3232   8.5679  10.1350   H         1 RES1   0.0000
    60 H25      0.0464   9.7944   9.1778   H         1 RES1   0.0000
    61 C29      5.6250  -1.9931   6.3247   C.3       1 RES1   0.0000
    62 H26      6.2765  -1.8372   5.6091   H         1 RES1   0.0000
    63 H27      4.8185  -2.4032   5.9482   H         1 RES1   0.0000
    64 H28      6.0138  -2.5925   6.9954   H         1 RES1   0.0000
    65 C30     -1.7288   6.2868   5.7890   C.3       1 RES1   0.0000
    66 H29     -1.3382   5.5852   6.3504   H         1 RES1   0.0000
    67 H30     -2.5633   5.9601   5.3914   H         1 RES1   0.0000
    68 H31     -1.9163   7.0774   6.3369   H         1 RES1   0.0000
    69 C31     -1.1368   6.5746   3.3513   C.ar      1 RES1   0.0000
    70 H32     -2.0157   6.2875   3.1330   H         1 RES1   0.0000
    71 C32      4.0545  12.9655  10.4570   C.3       1 RES1   0.0000
    72 H33      4.9147  13.1763  10.8998   H         1 RES1   0.0000
    73 H34      3.3957  13.6545  10.7237   H         1 RES1   0.0000
    74 C33      7.2403   8.2269  11.8078   C.3       1 RES1   0.0000
    75 H35      7.2163   8.6012  12.7242   H         1 RES1   0.0000
    76 H36      6.5857   8.7286  11.2595   H         1 RES1   0.0000
    77 C34      5.7204   1.6615   7.4133   C.ar      1 RES1   0.0000
    78 C35      6.8223   6.7569  11.8600   C.3       1 RES1   0.0000
    79 H37      7.3870   6.2914  12.5413   H         1 RES1   0.0000
    80 C36      4.2417  12.9998   8.9433   C.3       1 RES1   0.0000
    81 H38      4.9655  12.3777   8.6832   H         1 RES1   0.0000
    82 H39      4.5029  13.9126   8.6615   H         1 RES1   0.0000
    83 C37      1.2564  10.3522  13.5364   C.3       1 RES1   0.0000
    84 H40      1.7659  11.1939  13.4244   H         1 RES1   0.0000
    85 H41      1.8974   9.6309  13.7563   H         1 RES1   0.0000
    86 C38      3.8189   0.5953   8.4706   C.ar      1 RES1   0.0000
    87 C39      4.1511  -0.5886   7.8076   C.ar      1 RES1   0.0000
    88 H42      3.6041  -1.3562   7.9272   H         1 RES1   0.0000
    89 C40      1.4425   7.3864   3.9847   C.ar      1 RES1   0.0000
    90 C41      8.7395   7.7772   9.8321   C.3       1 RES1   0.0000
    91 H43      8.1024   8.2161   9.2136   H         1 RES1   0.0000
    92 H44      9.6531   7.9025   9.4727   H         1 RES1   0.0000
    93 C42      5.8799   5.8711  16.5012   C.3       1 RES1   0.0000
    94 H45      6.1789   5.0343  16.9379   H         1 RES1   0.0000
    95 H46      6.5572   6.5694  16.6830   H         1 RES1   0.0000
    96 C43      4.5655   6.2922  17.0847   C.3       1 RES1   0.0000
    97 H47      4.6820   6.4882  18.0480   H         1 RES1   0.0000
    98 H48      3.9158   5.5498  16.9999   H         1 RES1   0.0000
    99 C44     -0.7043   6.7934   0.8753   C.3       1 RES1   0.0000
   100 H49     -0.0314   7.2046   0.2943   H         1 RES1   0.0000
   101 H50     -1.5619   7.2532   0.7591   H         1 RES1   0.0000
   102 H51     -0.8068   5.8475   0.6378   H         1 RES1   0.0000
   103 C45      2.6240   0.6240   9.4008   C.3       1 RES1   0.0000
   104 H52      2.9200   0.4451  10.3177   H         1 RES1   0.0000
   105 H53      1.9797  -0.0611   9.1258   H         1 RES1   0.0000
   106 H54      2.2000   1.5065   9.3605   H         1 RES1   0.0000
   107 C46      3.8744   7.2603  14.8631   C.3       1 RES1   0.0000
   108 H55      3.1983   6.5519  14.7164   H         1 RES1   0.0000
   109 H56      3.5547   8.0847  14.4176   H         1 RES1   0.0000
   110 C47     -0.5074  11.0924  11.9161   C.3       1 RES1   0.0000
   111 H57     -0.0499  11.9503  11.7285   H         1 RES1   0.0000
   112 H58     -1.0071  10.8275  11.1037   H         1 RES1   0.0000
   113 C48     -1.4787  11.2782  13.0697   C.3       1 RES1   0.0000
   114 H59     -2.1043  12.0149  12.8527   H         1 RES1   0.0000
   115 H60     -2.0104  10.4517  13.1844   H         1 RES1   0.0000
   116 C49      4.0218   7.5219  16.3806   C.3       1 RES1   0.0000
   117 H61      4.6359   8.2847  16.5266   H         1 RES1   0.0000
   118 H62      3.1404   7.7591  16.7632   H         1 RES1   0.0000
   119 C50      2.8669   7.7809   4.2936   C.3       1 RES1   0.0000
   120 H63      2.8895   8.3033   5.1220   H         1 RES1   0.0000
   121 H64      3.2240   8.3195   3.5571   H         1 RES1   0.0000
   122 H65      3.4130   6.9735   4.4018   H         1 RES1   0.0000
   123 C51     -0.7720  11.5949  14.3563   C.3       1 RES1   0.0000
   124 H66     -1.4340  11.6619  15.0896   H         1 RES1   0.0000
   125 H67     -0.3118  12.4669  14.2761   H         1 RES1   0.0000
   126 C52      8.6381   8.4293  11.2233   C.3       1 RES1   0.0000
   127 H68      9.3112   8.0254  11.8273   H         1 RES1   0.0000
   128 H69      8.8307   9.3970  11.1510   H         1 RES1   0.0000
   129 C53      6.5794   2.8824   7.1849   C.3       1 RES1   0.0000
   130 H70      6.0676   3.5535   6.6862   H         1 RES1   0.0000
   131 H71      7.3754   2.6313   6.6715   H         1 RES1   0.0000
   132 H72      6.8526   3.2565   8.0487   H         1 RES1   0.0000
   133 C54      0.2428  10.5105  14.6844   C.3       1 RES1   0.0000
   134 H73     -0.2265   9.6519  14.8327   H         1 RES1   0.0000
   135 H74      0.7213  10.7476  15.5181   H         1 RES1   0.0000
   136 C55      1.0499   3.0911   4.8425   C.ar      2 RES2   0.0000
   137 H75      0.1993   3.3757   5.1557   H         2 RES2   0.0000
   138 C56      1.6672   2.0402   5.4491   C.ar      2 RES2   0.0000
   139 H76      1.2532   1.5868   6.1742   H         2 RES2   0.0000
   140 C57      2.9237   1.6434   4.9809   C.ar      2 RES2   0.0000
   141 H77      3.3782   0.9167   5.3905   H         2 RES2   0.0000
   142 C58      1.6358   3.7507   3.7812   C.ar      2 RES2   0.0000
   143 H78      1.1694   4.4676   3.3670   H         2 RES2   0.0000
   144 C59      3.5011   2.3141   3.9153   C.ar      2 RES2   0.0000
   145 H79      4.3471   2.0304   3.5904   H         2 RES2   0.0000
   146 C60      2.8657   3.4023   3.3132   C.ar      2 RES2   0.0000
   147 C61      3.5543   4.1774   2.2008   C.3       2 RES2   0.0000
   148 H80      2.8825   4.6660   1.6787   H         2 RES2   0.0000
   149 H81      4.0322   3.5546   1.6147   H         2 RES2   0.0000
   150 H82      4.1900   4.8138   2.5896   H         2 RES2   0.0000
@<TRIPOS>BOND
     1     1     2    1
     2     3     1    1
     3     4     1    1
     4     5     1    1
     5     6     1    1
     6     7     1    1
     7     8     9    1
     8    10     6   ar
     9    11     5    1
    10    12    11    1
    11    13    11    1
    12    14    15    1
    13    16    14    1
    14    17    18    1
    15    19     8   ar
    16    20     7   ar
    17    21     7   ar
    18    22    10   ar
    19    23    22    1
    20    24     4    1
    21    25    24    1
    22    26     6   ar
    23    27    28    1
    24    29    27    1
    25    30    31    1
    26    32    30    1
    27    33    30    1
    28    34    33    1
    29    35    33    1
    30    36     4    1
    31    37    36    1
    32    38    19    1
    33    39    43   ar
    34    40    22   ar
    35    41    26   ar
    36    42    41    1
    37    43    44    1
    38    45    47   ar
    39    46    48   ar
    40    47    40    1
    41    48    49    1
    42    50    24    1
    43    51    50    1
    44    52    50    1
    45    53    14    1
    46    54    53    1
    47    55    53    1
    48    56     5    1
    49    57    56    1
    50    58     4    1
    51    59    58    1
    52    60    58    1
    53    61    39    1
    54    62    61    1
    55    63    61    1
    56    64    61    1
    57    65    45    1
    58    66    65    1
    59    67    65    1
    60    68    65    1
    61    69    45   ar
    62    70    69    1
    63    71    50    1
    64    72    71    1
    65    73    71    1
    66    74    75    1
    67    76    74    1
    68    77    38   ar
    69    78     5    1
    70    79    78    1
    71    80    53    1
    72    81    80    1
    73    82    80    1
    74    83    36    1
    75    84    83    1
    76    85    83    1
    77    86    38   ar
    78    87    39   ar
    79    88    87    1
    80    89    47   ar
    81    90    30    1
    82    91    90    1
    83    92    90    1
    84    93    27    1
    85    94    93    1
    86    95    93    1
    87    96    93    1
    88    97    96    1
    89    98    96    1
    90    99    46    1
    91   100    99    1
    92   101    99    1
    93   102    99    1
    94   103    86    1
    95   104   103    1
    96   105   103    1
    97   106   103    1
    98   107    56    1
    99   108   107    1
   100   109   107    1
   101   110    36    1
   102   111   110    1
   103   112   110    1
   104   113   110    1
   105   114   113    1
   106   115   113    1
   107   116    96    1
   108   117   116    1
   109   118   116    1
   110   119    89    1
   111   120   119    1
   112   121   119    1
   113   122   119    1
   114   123   113    1
   115   124   123    1
   116   125   123    1
   117   126    74    1
   118   127   126    1
   119   128   126    1
   120   129    77    1
   121   130   129    1
   122   131   129    1
   123   132   129    1
   124   133    83    1
   125   134   133    1
   126   135   133    1
   127     8    21   ar
   128    10    58    1
   129    11    20    1
   130    14    24    1
   131    17    19   ar
   132    17    20   ar
   133    21    26    1
   134    27    56    1
   135    33    78    1
   136    40    41   ar
   137    43    77   ar
   138    46    69   ar
   139    48    89   ar
   140    71    80    1
   141    74    78    1
   142    86    87   ar
   143    90   126    1
   144   107   116    1
   145   123   133    1
   146   136   137    1
   147   138   136   ar
   148   139   138    1
   149   140   138   ar
   150   141   140    1
   151   142   136   ar
   152   143   142    1
   153   144   140   ar
   154   145   144    1
   155   146   142   ar
   156   147   146    1
   157   148   147    1
   158   149   147    1
   159   150   147    1
   160   144   146   ar
@<TRIPOS>SUBSTRUCTURE
     1 RES1        1 GROUP             0 ****  ****    0  
     2 RES2      136 GROUP             0 ****  ****    0  
@<TRIPOS>CRYSIN
   12.0812   18.6324   25.0660   90.0000   90.0000   90.0000    19     1
