@<TRIPOS>MOLECULE
OYAFAX
   124   119    11     0     0
SMALL
USER_CHARGES
****
Generated from the CSD

@<TRIPOS>ATOM
     1 Fe1     14.5527   5.6949  11.5807   Fe        1 RES1   0.0000
     2 N1      12.2031   6.1270   9.6331   N.1       1 RES1   0.0000
     3 C1      13.0944   5.9552  10.3565   C.1       1 RES1   0.0000
     4 N2      12.6199   5.6836  13.9584   N.1       1 RES1   0.0000
     5 C2      13.3497   5.6876  13.0531   C.1       1 RES1  -1.0000
     6 C3      16.0371   5.4184  12.7582   C.1       1 RES1   0.0000
     7 N3      16.9707   5.1792  13.4141   N.1       1 RES1   0.0000
     8 C4      15.8916   5.6642  10.2118   C.1       1 RES1  -1.0000
     9 N4      16.7648   5.6126   9.4457   N.1       1 RES1   0.0000
    10 C5      14.3109   3.8006  11.4368   C.1       1 RES1  -1.0000
    11 N5      14.0872   2.6609  11.3748   N.1       1 RES1   0.0000
    12 C6      14.5927   7.6074  11.6959   C.1       1 RES1  -1.0000
    13 N6      14.4970   8.7654  11.7400   N.1       1 RES1   0.0000
    14 N7       9.5728   4.3701  11.5911   N.ar      2 RES2   1.0000
    15 C7       9.4762   5.1911  12.8271   C.3       2 RES2   0.0000
    16 H1      10.0095   4.7649  13.5450   H         2 RES2   0.0000
    17 H2       8.5334   5.2224  13.1261   H         2 RES2   0.0000
    18 N8       9.0361   7.3690  11.7413   N.ar      2 RES2   1.0000
    19 C8       9.9771   6.6018  12.6012   C.3       2 RES2   0.0000
    20 H3      10.0750   7.0595  13.4720   H         2 RES2   0.0000
    21 H4      10.8672   6.5699  12.1685   H         2 RES2   0.0000
    22 N9       9.9994   1.5098   7.1377   N.1       2 RES2   0.0000
    23 C9       7.8790   7.7939  12.2636   C.ar      2 RES2   0.0000
    24 H5       7.6892   7.6303  13.1799   H         2 RES2   0.0000
    25 N10      5.4809   9.7420   8.6093   N.1       2 RES2   0.0000
    26 C10      6.9583   8.4652  11.4850   C.ar      2 RES2   0.0000
    27 H6       6.1431   8.7803  11.8571   H         2 RES2   0.0000
    28 C11      7.2533   8.6679  10.1498   C.ar      2 RES2   0.0000
    29 C12      8.4843   8.2735   9.6303   C.ar      2 RES2   0.0000
    30 H7       8.7101   8.4553   8.7264   H         2 RES2   0.0000
    31 C13      9.3691   7.6152  10.4543   C.ar      2 RES2   0.0000
    32 H8      10.2121   7.3320  10.1181   H         2 RES2   0.0000
    33 C14      6.2687   9.2930   9.2900   C.1       2 RES2   0.0000
    34 C15      8.4976   4.2350  10.8016   C.ar      2 RES2   0.0000
    35 H9       7.6778   4.6452  11.0510   H         2 RES2   0.0000
    36 C16      8.5665   3.5118   9.6345   C.ar      2 RES2   0.0000
    37 H10      7.8105   3.4368   9.0626   H         2 RES2   0.0000
    38 C17      9.7801   2.8846   9.3079   C.ar      2 RES2   0.0000
    39 C18     10.8718   3.0188  10.1498   C.ar      2 RES2   0.0000
    40 H11     11.6949   2.5960   9.9390   H         2 RES2   0.0000
    41 C19     10.7493   3.7714  11.2907   C.ar      2 RES2   0.0000
    42 H12     11.4944   3.8735  11.8722   H         2 RES2   0.0000
    43 C20      9.8894   2.1278   8.0843   C.1       2 RES2   0.0000
    44 N11     10.4135   1.1236   1.4248   N.ar      3 RES3   1.0000
    45 C21     11.2049   0.6358   0.2715   C.3       3 RES3   0.0000
    46 H13     12.1340   0.4463   0.5581   H         3 RES3   0.0000
    47 H14     11.2331   1.3275  -0.4354   H         3 RES3   0.0000
    48 C22     10.6612   0.6306   2.6566   C.ar      3 RES3   0.0000
    49 H15     11.3382  -0.0256   2.7738   H         3 RES3   0.0000
    50 N12      7.5518   2.9111   5.5434   N.1       3 RES3   0.0000
    51 C23      9.9476   1.0665   3.7397   C.ar      3 RES3   0.0000
    52 H16     10.1157   0.7049   4.6023   H         3 RES3   0.0000
    53 C24      8.9839   2.0354   3.5675   C.ar      3 RES3   0.0000
    54 C25      8.7731   2.5620   2.2970   C.ar      3 RES3   0.0000
    55 H17      8.1378   3.2552   2.1647   H         3 RES3   0.0000
    56 C26      9.4871   2.0731   1.2415   C.ar      3 RES3   0.0000
    57 H18      9.3253   2.4115   0.3679   H         3 RES3   0.0000
    58 C27      8.1916   2.5213   4.6670   C.1       3 RES3   0.0000
    59 N11A    11.3529  -1.1236  -1.4248   N.ar      3 RES3   1.0000
    60 C21A    10.5615  -0.6358  -0.2715   C.3       3 RES3   0.0000
    61 H13A     9.6324  -0.4463  -0.5581   H         3 RES3   0.0000
    62 H14A    10.5333  -1.3275   0.4354   H         3 RES3   0.0000
    63 C22A    11.1052  -0.6306  -2.6566   C.ar      3 RES3   0.0000
    64 H15A    10.4282   0.0256  -2.7738   H         3 RES3   0.0000
    65 N12A    14.2146  -2.9111  -5.5434   N.1       3 RES3   0.0000
    66 C23A    11.8188  -1.0665  -3.7397   C.ar      3 RES3   0.0000
    67 H16A    11.6507  -0.7049  -4.6023   H         3 RES3   0.0000
    68 C24A    12.7825  -2.0354  -3.5675   C.ar      3 RES3   0.0000
    69 C25A    12.9933  -2.5620  -2.2970   C.ar      3 RES3   0.0000
    70 H17A    13.6286  -3.2552  -2.1647   H         3 RES3   0.0000
    71 C26A    12.2793  -2.0731  -1.2415   C.ar      3 RES3   0.0000
    72 H18A    12.4411  -2.4115  -0.3679   H         3 RES3   0.0000
    73 C27A    13.5748  -2.5213  -4.6670   C.1       3 RES3   0.0000
    74 N13     13.5637   8.8758   7.0977   N.ar      4 RES4   1.0000
    75 C28     13.5679   7.4472   6.7091   C.3       4 RES4   0.0000
    76 H19     13.4058   7.3587   5.7363   H         4 RES4   0.0000
    77 H20     12.8498   6.9631   7.1900   H         4 RES4   0.0000
    78 N14     14.2242  13.8660   8.7085   N.1       4 RES4   0.0000
    79 C29     13.1093   9.2273   8.3062   C.ar      4 RES4   0.0000
    80 H21     12.7333   8.5750   8.8849   H         4 RES4   0.0000
    81 C30     13.1930  10.5544   8.7085   C.ar      4 RES4   0.0000
    82 H22     12.8619  10.8235   9.5573   H         4 RES4   0.0000
    83 C31     13.7634  11.4737   7.8569   C.ar      4 RES4   0.0000
    84 C32     14.1837  11.0992   6.5934   C.ar      4 RES4   0.0000
    85 H23     14.5404  11.7403   5.9899   H         4 RES4   0.0000
    86 C33     14.0704   9.7715   6.2310   C.ar      4 RES4   0.0000
    87 H24     14.3514   9.4894   5.3684   H         4 RES4   0.0000
    88 C34     14.0004  12.8246   8.3241   C.1       4 RES4   0.0000
    89 N13A    14.9315   5.4272   6.6816   N.ar      4 RES4   1.0000
    90 C28A    14.9273   6.8558   7.0702   C.3       4 RES4   0.0000
    91 H19A    15.0894   6.9443   8.0430   H         4 RES4   0.0000
    92 H20A    15.6454   7.3398   6.5893   H         4 RES4   0.0000
    93 N14A    14.2711   0.4370   5.0708   N.1       4 RES4   0.0000
    94 C29A    15.3859   5.0757   5.4731   C.ar      4 RES4   0.0000
    95 H21A    15.7619   5.7280   4.8944   H         4 RES4   0.0000
    96 C30A    15.3022   3.7486   5.0708   C.ar      4 RES4   0.0000
    97 H22A    15.6333   3.4795   4.2220   H         4 RES4   0.0000
    98 C31A    14.7318   2.8293   5.9223   C.ar      4 RES4   0.0000
    99 C32A    14.3115   3.2038   7.1859   C.ar      4 RES4   0.0000
   100 H23A    13.9548   2.5627   7.7894   H         4 RES4   0.0000
   101 C33A    14.4249   4.5315   7.5483   C.ar      4 RES4   0.0000
   102 H24A    14.1438   4.8136   8.4109   H         4 RES4   0.0000
   103 C34A    14.4948   1.4784   5.4552   C.1       4 RES4   0.0000
   104 O1       7.4769   8.5019   6.1428   O.3       5 RES5   0.0000
   105 H25      7.2800   7.9587   6.7670   H         5 RES5   0.0000
   106 H26      6.8793   8.4324   5.5420   H         5 RES5   0.0000
   107 O2       5.7858   4.4990   2.4348   O.3       6 RES6   0.0000
   108 H27      6.3272   4.7709   1.6494   H         6 RES6   0.0000
   109 H28      4.9220   4.7144   2.2708   H         6 RES6   0.0000
   110 O3       1.9852   2.9379   1.9250   O.3       7 RES7   0.0000
   111 H29      2.3263   3.6273   2.2874   H         7 RES7   0.0000
   112 H30      1.6199   3.1992   1.2029   H         7 RES7   0.0000
   113 O4       7.4019   5.9816   7.1776   O.3       8 RES8   0.0000
   114 H31      6.9763   5.7715   7.8831   H         8 RES8   0.0000
   115 H32      8.1482   5.6179   7.3636   H         8 RES8   0.0000
   116 O5       3.5504   0.7341   1.5695   O.3       9 RES9   0.0000
   117 H33      3.2995  -0.0304   1.8423   H         9 RES9   0.0000
   118 H34      3.1981   1.5053   1.6315   H         9 RES9   0.0000
   119 O6       8.9890  12.7602   1.2677   O.3      10 RES10   0.0000
   120 H35      8.7679  12.7961   0.4464   H        10 RES10   0.0000
   121 H36      8.2583  12.9047   1.6783   H        10 RES10   0.0000
   122 O7       5.9355   1.4892   2.5657   O.3      11 RES11   0.0000
   123 H37      5.8923   2.3346   2.4913   H        11 RES11   0.0000
   124 H38      5.1957   1.2240   2.2405   H        11 RES11   0.0000
@<TRIPOS>BOND
     1     1     3    1
     2     2     3    3
     3     4     5    3
     4     5     1    1
     5     6     1    1
     6     7     6    3
     7     8     1    1
     8     9     8    3
     9    10     1    1
    10    11    10    3
    11    12     1    1
    12    13    12    3
    13    14    15    1
    14    15    16    1
    15    17    15    1
    16    18    19    1
    17    19    15    1
    18    20    19    1
    19    21    19    1
    20    22    43    3
    21    23    18   ar
    22    24    23    1
    23    25    33    3
    24    26    23   ar
    25    27    26    1
    26    28    26   ar
    27    29    28   ar
    28    30    29    1
    29    31    18   ar
    30    32    31    1
    31    33    28    1
    32    34    14   ar
    33    35    34    1
    34    36    34   ar
    35    37    36    1
    36    38    36   ar
    37    39    38   ar
    38    40    39    1
    39    41    14   ar
    40    42    41    1
    41    43    38    1
    42    29    31   ar
    43    39    41   ar
    44    44    45    1
    45    45    46    1
    46    47    45    1
    47    48    44   ar
    48    49    48    1
    49    50    58    3
    50    51    48   ar
    51    52    51    1
    52    53    51   ar
    53    54    53   ar
    54    55    54    1
    55    56    44   ar
    56    57    56    1
    57    58    53    1
    58    59    60    1
    59    60    45    1
    60    61    60    1
    61    62    60    1
    62    63    59   ar
    63    64    63    1
    64    65    73    3
    65    66    63   ar
    66    67    66    1
    67    68    66   ar
    68    69    68   ar
    69    70    69    1
    70    71    59   ar
    71    72    71    1
    72    73    68    1
    73    54    56   ar
    74    69    71   ar
    75    74    75    1
    76    75    76    1
    77    77    75    1
    78    78    88    3
    79    79    74   ar
    80    80    79    1
    81    81    79   ar
    82    82    81    1
    83    83    81   ar
    84    84    83   ar
    85    85    84    1
    86    86    74   ar
    87    87    86    1
    88    88    83    1
    89    89    90    1
    90    90    75    1
    91    91    90    1
    92    92    90    1
    93    93   103    3
    94    94    89   ar
    95    95    94    1
    96    96    94   ar
    97    97    96    1
    98    98    96   ar
    99    99    98   ar
   100   100    99    1
   101   101    89   ar
   102   102   101    1
   103   103    98    1
   104    84    86   ar
   105    99   101   ar
   106   104   105    1
   107   106   104    1
   108   107   108    1
   109   109   107    1
   110   110   111    1
   111   112   110    1
   112   113   114    1
   113   115   113    1
   114   116   117    1
   115   118   116    1
   116   119   120    1
   117   121   119    1
   118   122   123    1
   119   124   122    1
@<TRIPOS>SUBSTRUCTURE
     1 RES1        1 GROUP             0 ****  ****    0  
     2 RES2       14 GROUP             0 ****  ****    0  
     3 RES3       44 GROUP             0 ****  ****    0  
     4 RES4       74 GROUP             0 ****  ****    0  
     5 RES5      104 GROUP             0 ****  ****    0  
     6 RES6      107 GROUP             0 ****  ****    0  
     7 RES7      110 GROUP             0 ****  ****    0  
     8 RES8      113 GROUP             0 ****  ****    0  
     9 RES9      116 GROUP             0 ****  ****    0  
    10 RES10     119 GROUP             0 ****  ****    0  
    11 RES11     122 GROUP             0 ****  ****    0  
@<TRIPOS>CRYSIN
   10.8832   13.2370   14.8150   83.4090   68.9510   83.8950     2     1
