@<TRIPOS>MOLECULE
OYODOY
   109   115     6     0     0
SMALL
USER_CHARGES
****
Generated from the CSD

@<TRIPOS>ATOM
     1 Fe1      7.6279   5.1782   7.1040   Fe        1 RES1   2.0000
     2 N1       6.9008   4.8835   9.0225   N.ar      1 RES1   0.0000
     3 N2       8.4502   7.1032   7.3052   N.2       1 RES1   0.0000
     4 N3       5.6328   5.9052   7.0300   N.2       1 RES1   0.0000
     5 N4       8.5393   8.0337   8.2705   N.pl3     1 RES1   0.0000
     6 H1       8.2816   7.9124   9.1033   H         1 RES1   0.0000
     7 N5       9.2535   4.2915   8.1707   N.2       1 RES1   0.0000
     8 N6       8.4388   5.6187   5.2323   N.ar      1 RES1   0.0000
     9 N7      10.5143   3.8695   7.9502   N.pl3     1 RES1   0.0000
    10 H2      10.9253   3.9201   7.1760   H         1 RES1   0.0000
    11 N8       4.7938   6.5202   6.1668   N.pl3     1 RES1   0.0000
    12 H3       4.9955   6.7054   5.3304   H         1 RES1   0.0000
    13 N9       7.2284   3.4744   5.9152   N.2       1 RES1   0.0000
    14 C1       8.9536   7.6758   6.1963   C.2       1 RES1   0.0000
    15 C2       7.6886   4.3452   9.9740   C.ar      1 RES1   0.0000
    16 C3       4.9317   5.8154   8.1753   C.2       1 RES1   0.0000
    17 C4       9.0280   4.0347   9.4727   C.2       1 RES1   0.0000
    18 C5       5.6267   5.2119   9.3150   C.ar      1 RES1   0.0000
    19 C6       8.9848   6.8324   5.0055   C.ar      1 RES1   0.0000
    20 C7       7.2216   4.1019  11.2551   C.ar      1 RES1   0.0000
    21 H4       7.7898   3.7258  11.9174   H         1 RES1   0.0000
    22 N10      6.5750   2.3029   6.0248   N.pl3     1 RES1   0.0000
    23 H5       6.1693   2.0198   6.7538   H         1 RES1   0.0000
    24 C8       5.9024   4.4215  11.5444   C.ar      1 RES1   0.0000
    25 H6       5.5543   4.2497  12.4115   H         1 RES1   0.0000
    26 C9       5.0900   4.9886  10.5768   C.ar      1 RES1   0.0000
    27 H7       4.1892   5.2177  10.7721   H         1 RES1   0.0000
    28 C10      7.6813   3.5050   4.6449   C.2       1 RES1   0.0000
    29 C11      8.3627   4.7196   4.2336   C.ar      1 RES1   0.0000
    30 C12      9.4971   7.1628   3.7614   C.ar      1 RES1   0.0000
    31 H8       9.8866   8.0170   3.6125   H         1 RES1   0.0000
    32 C13      9.3592   8.9900   6.4744   C.2       1 RES1   0.0000
    33 H9       9.7475   9.6168   5.8769   H         1 RES1   0.0000
    34 C14     11.0608   3.3606   9.0670   C.2       1 RES1   0.0000
    35 H10     11.9357   2.9978   9.1426   H         1 RES1   0.0000
    36 C15      3.6565   6.3708   8.0297   C.2       1 RES1   0.0000
    37 H11      2.9706   6.4248   8.6844   H         1 RES1   0.0000
    38 C16      9.0717   9.1677   7.8010   C.2       1 RES1   0.0000
    39 H12      9.2242   9.9605   8.3016   H         1 RES1   0.0000
    40 C17     10.1472   3.4519  10.0722   C.2       1 RES1   0.0000
    41 H13     10.2487   3.1812  10.9783   H         1 RES1   0.0000
    42 C18      8.8623   4.9977   2.9627   C.ar      1 RES1   0.0000
    43 H14      8.8099   4.3518   2.2676   H         1 RES1   0.0000
    44 C19      9.4362   6.2347   2.7372   C.ar      1 RES1   0.0000
    45 H15      9.7887   6.4472   1.8815   H         1 RES1   0.0000
    46 C20      3.6111   6.8158   6.7434   C.2       1 RES1   0.0000
    47 H16      2.8784   7.2558   6.3285   H         1 RES1   0.0000
    48 C21      6.6306   1.6197   4.8517   C.2       1 RES1   0.0000
    49 H17      6.2446   0.7663   4.6924   H         1 RES1   0.0000
    50 C22      7.3232   2.3486   3.9505   C.2       1 RES1   0.0000
    51 H18      7.5216   2.1253   3.0497   H         1 RES1   0.0000
    52 N11     12.0993   1.4769  -3.5392   N.1       2 RES2   0.0000
    53 N12     13.0997   7.0939   2.7958   N.1       2 RES2   0.0000
    54 N13     10.4127  -1.3499  -0.6456   N.1       2 RES2   0.0000
    55 C23     11.8434   1.2312  -2.4414   C.1       2 RES2   0.0000
    56 N14     11.8532   4.0239   5.5300   N.1       2 RES2   0.0000
    57 C24     11.6979   1.8795  -0.0550   C.2       2 RES2   0.0000
    58 C25     12.8050   5.9889   2.8992   C.1       2 RES2   0.0000
    59 C26     12.4217   4.0704   0.7035   C.2       2 RES2   0.0000
    60 H19     12.7592   4.9354   0.5006   H         2 RES2   0.0000
    61 C27     12.1425   3.7300   2.0533   C.2       2 RES2  -1.0000
    62 C28     12.3921   4.6465   3.1034   C.2       2 RES2   0.0000
    63 C29     11.3737   1.5549   1.2938   C.2       2 RES2   0.0000
    64 H20     10.9976   0.7048   1.4921   H         2 RES2   0.0000
    65 C30     12.2131   3.1788  -0.3066   C.2       2 RES2   0.0000
    66 H21     12.4171   3.4320  -1.1976   H         2 RES2   0.0000
    67 C31     11.5929   2.4374   2.3027   C.2       2 RES2   0.0000
    68 H22     11.3750   2.1892   3.1937   H         2 RES2   0.0000
    69 C32     11.5073   0.9381  -1.0982   C.2       2 RES2   0.0000
    70 C33     12.0989   4.3103   4.4463   C.1       2 RES2   0.0000
    71 C34     10.9099  -0.3304  -0.8518   C.1       2 RES2   0.0000
    72 N15      7.8838   7.7821  11.0512   N.1       3 RES3   0.0000
    73 N16      7.7300   5.2418  20.1369   N.1       3 RES3   0.0000
    74 N17      9.2629   2.2722  17.3506   N.1       3 RES3   0.0000
    75 N18      6.5860  10.7010  14.0640   N.1       3 RES3   0.0000
    76 C35      7.8798   7.4841  14.5856   C.2       3 RES3   0.0000
    77 C36      8.2913   5.6245  16.6922   C.2       3 RES3  -1.0000
    78 C37      8.4741   4.6897  17.7341   C.2       3 RES3   0.0000
    79 C38      7.7947   8.0635  12.1730   C.1       3 RES3   0.0000
    80 C39      7.5474   7.8045  15.9330   C.2       3 RES3   0.0000
    81 H23      7.1863   8.6604  16.1320   H         3 RES3   0.0000
    82 C40      8.4310   6.1965  14.3365   C.2       3 RES3   0.0000
    83 H24      8.6621   5.9524  13.4488   H         3 RES3   0.0000
    84 C41      7.7343   6.9129  16.9406   C.2       3 RES3   0.0000
    85 H25      7.4894   7.1528  17.8270   H         3 RES3   0.0000
    86 C42      8.6343   5.3040  15.3503   C.2       3 RES3   0.0000
    87 H26      9.0117   4.4539  15.1536   H         3 RES3   0.0000
    88 C43      8.9357   3.3647  17.5103   C.1       3 RES3   0.0000
    89 C44      7.6373   8.4047  13.5420   C.2       3 RES3   0.0000
    90 C45      8.0735   4.9861  19.0668   C.1       3 RES3   0.0000
    91 C46      7.0622   9.6749  13.8133   C.1       3 RES3   0.0000
    92 N19      3.3078   2.0431   5.4126   N.1       4 RES4   0.0000
    93 C47      4.0349   3.8852   3.7342   C.3       4 RES4   0.0000
    94 H27      4.0041   3.5283   2.8206   H         4 RES4   0.0000
    95 H28      4.9506   4.1658   3.9430   H         4 RES4   0.0000
    96 H29      3.4319   4.6540   3.8056   H         4 RES4   0.0000
    97 C48      3.6177   2.8542   4.6714   C.1       4 RES4   0.0000
    98 N20      4.2319  -0.9821  13.6095   N.1       5 RES5   0.0000
    99 C49      4.5164  -1.8156  14.3290   C.1       5 RES5   0.0000
   100 C50      4.8906  -2.8782  15.2534   C.3       5 RES5   0.0000
   101 H30      4.6318  -3.7449  14.8755   H         5 RES5   0.0000
   102 H31      4.4311  -2.7446  16.1091   H         5 RES5   0.0000
   103 H32      5.8603  -2.8600  15.3958   H         5 RES5   0.0000
   104 N21      5.5897   1.6695   8.6439   N.1       6 RES6   0.0000
   105 C51      5.1375   1.2428   9.5964   C.1       6 RES6   0.0000
   106 C52      4.5503   0.6857  10.8035   C.3       6 RES6   0.0000
   107 H33      3.6567   0.3387  10.6020   H         6 RES6   0.0000
   108 H34      4.4823   1.3856  11.4855   H         6 RES6   0.0000
   109 H35      5.1169  -0.0415  11.1353   H         6 RES6   0.0000
@<TRIPOS>BOND
     1     1     2    1
     2     2    15   ar
     3     3     1    1
     4     4     1    1
     5     5     3    1
     6     6     5    1
     7     7     1    1
     8     8     1    1
     9     9     7    1
    10    10     9    1
    11    11     4    1
    12    12    11    1
    13    13     1    1
    14    14     3    2
    15    15    17    1
    16    16     4    2
    17    17     7    2
    18    18     2   ar
    19    19     8   ar
    20    20    15   ar
    21    21    20    1
    22    22    13    1
    23    23    22    1
    24    24    20   ar
    25    25    24    1
    26    26    18   ar
    27    27    26    1
    28    28    13    2
    29    29     8   ar
    30    30    19   ar
    31    31    30    1
    32    32    14    1
    33    33    32    1
    34    34     9    1
    35    35    34    1
    36    36    16    1
    37    37    36    1
    38    38     5    1
    39    39    38    1
    40    40    17    1
    41    41    40    1
    42    42    29   ar
    43    43    42    1
    44    44    30   ar
    45    45    44    1
    46    46    11    1
    47    47    46    1
    48    48    22    1
    49    49    48    1
    50    50    28    1
    51    51    50    1
    52    14    19    1
    53    16    18    1
    54    24    26   ar
    55    28    29    1
    56    32    38    2
    57    34    40    2
    58    36    46    2
    59    42    44   ar
    60    48    50    2
    61    52    55    3
    62    53    58    3
    63    54    71    3
    64    55    69    1
    65    56    70    3
    66    57    63    1
    67    58    62    1
    68    59    60    1
    69    61    59    1
    70    62    61    2
    71    63    64    1
    72    65    57    1
    73    66    65    1
    74    67    61    1
    75    68    67    1
    76    69    57    2
    77    70    62    1
    78    71    69    1
    79    59    65    2
    80    63    67    2
    81    72    79    3
    82    73    90    3
    83    74    88    3
    84    75    91    3
    85    76    80    1
    86    77    78    2
    87    78    88    1
    88    79    89    1
    89    80    81    1
    90    82    76    1
    91    83    82    1
    92    84    77    1
    93    85    84    1
    94    86    77    1
    95    87    86    1
    96    89    76    2
    97    90    78    1
    98    91    89    1
    99    80    84    2
   100    82    86    2
   101    92    97    3
   102    93    94    1
   103    95    93    1
   104    96    93    1
   105    97    93    1
   106    98    99    3
   107    99   100    1
   108   100   101    1
   109   102   100    1
   110   103   100    1
   111   104   105    3
   112   105   106    1
   113   106   107    1
   114   108   106    1
   115   109   106    1
@<TRIPOS>SUBSTRUCTURE
     1 RES1        1 GROUP             0 ****  ****    0  
     2 RES2       52 GROUP             0 ****  ****    0  
     3 RES3       72 GROUP             0 ****  ****    0  
     4 RES4       92 GROUP             0 ****  ****    0  
     5 RES5       98 GROUP             0 ****  ****    0  
     6 RES6      104 GROUP             0 ****  ****    0  
@<TRIPOS>CRYSIN
   18.0547    8.3018   33.6093   90.0000  103.1940   90.0000   231     1
