@<TRIPOS>MOLECULE
OYODOY01
   109   115     6     0     0
SMALL
USER_CHARGES
****
Generated from the CSD

@<TRIPOS>ATOM
     1 Fe1      7.8705   5.2454   7.0463   Fe        1 RES1   2.0000
     2 N1       8.6797   5.7159   5.1297   N.ar      1 RES1   0.0000
     3 N2       7.1146   4.9270   9.0069   N.ar      1 RES1   0.0000
     4 N3       8.7561   7.2148   7.2287   N.2       1 RES1   0.0000
     5 N4       5.8207   5.9869   7.0149   N.2       1 RES1   0.0000
     6 N5       7.4748   3.5178   5.8010   N.2       1 RES1   0.0000
     7 N6       9.5158   4.3264   8.1852   N.2       1 RES1   0.0000
     8 N7      10.7876   3.9318   8.0099   N.pl3     1 RES1   0.0000
     9 H1      11.2201   3.9949   7.2577   H         1 RES1   0.0000
    10 N8       4.9708   6.6038   6.1730   N.pl3     1 RES1   0.0000
    11 H2       5.1614   6.8032   5.3487   H         1 RES1   0.0000
    12 N9       8.8825   8.1590   8.1747   N.pl3     1 RES1   0.0000
    13 H3       8.6521   8.0521   9.0069   H         1 RES1   0.0000
    14 N10      6.8458   2.3429   5.8914   N.pl3     1 RES1   0.0000
    15 H4       6.4579   2.0467   6.6116   H         1 RES1   0.0000
    16 C1       9.2301   7.7710   6.1051   C.2       1 RES1   0.0000
    17 C2       5.1387   5.8657   8.1646   C.2       1 RES1   0.0000
    18 C3       9.2448   4.0690   9.4749   C.2       1 RES1   0.0000
    19 C4       5.8413   5.2455   9.2905   C.ar      1 RES1   0.0000
    20 C5       9.2269   6.9236   4.9150   C.ar      1 RES1   0.0000
    21 C6       7.8968   4.3719   9.9484   C.ar      1 RES1   0.0000
    22 C7       8.5896   4.8230   4.1334   C.ar      1 RES1   0.0000
    23 C8       7.9162   3.5943   4.5305   C.2       1 RES1   0.0000
    24 C9       7.4198   4.1060  11.2217   C.ar      1 RES1   0.0000
    25 H5       7.9767   3.7239  11.8754   H         1 RES1   0.0000
    26 C10      9.7190   7.2711   3.6654   C.ar      1 RES1   0.0000
    27 H6      10.1014   8.1169   3.5179   H         1 RES1   0.0000
    28 C11      9.6503   9.0822   6.3590   C.2       1 RES1   0.0000
    29 H7      10.0209   9.6932   5.7500   H         1 RES1   0.0000
    30 C12     11.3062   3.4294   9.1377   C.2       1 RES1   0.0000
    31 H8      12.1746   3.0860   9.2418   H         1 RES1   0.0000
    32 C13      3.8626   6.4018   8.0399   C.2       1 RES1   0.0000
    33 H9       3.1886   6.4338   8.6936   H         1 RES1   0.0000
    34 C14      5.2990   4.9964  10.5420   C.ar      1 RES1   0.0000
    35 H10      4.4051   5.2160  10.7299   H         1 RES1   0.0000
    36 C15     10.3532   3.5043  10.1040   C.2       1 RES1   0.0000
    37 H11     10.4256   3.2341  11.0008   H         1 RES1   0.0000
    38 C16      3.8003   6.8722   6.7571   C.2       1 RES1   0.0000
    39 H12      3.0676   7.3065   6.3603   H         1 RES1   0.0000
    40 C17      6.1014   4.4191  11.5034   C.ar      1 RES1   0.0000
    41 H13      5.7506   4.2365  12.3551   H         1 RES1   0.0000
    42 C18      9.0725   5.1201   2.8607   C.ar      1 RES1   0.0000
    43 H14      9.0139   4.4898   2.1669   H         1 RES1   0.0000
    44 C19      9.6364   6.3538   2.6437   C.ar      1 RES1   0.0000
    45 H15      9.9672   6.5726   1.7916   H         1 RES1   0.0000
    46 C20      9.4034   9.2774   7.6826   C.2       1 RES1   0.0000
    47 H16      9.5723  10.0668   8.1649   H         1 RES1   0.0000
    48 C21      7.5671   2.4473   3.8237   C.2       1 RES1   0.0000
    49 H17      7.7563   2.2478   2.9240   H         1 RES1   0.0000
    50 C22      6.8893   1.6781   4.7224   C.2       1 RES1   0.0000
    51 H18      6.5172   0.8315   4.5557   H         1 RES1   0.0000
    52 N11     12.2750   1.5232  -3.5212   N.1       2 RES2   0.0000
    53 C23     11.9207   1.9423  -0.0343   C.2       2 RES2   0.0000
    54 C24     12.0392   1.2884  -2.4201   C.1       2 RES2   0.0000
    55 C25     11.7212   0.9973  -1.0753   C.2       2 RES2   0.0000
    56 C26     12.3720   3.7913   2.0690   C.2       2 RES2  -1.0000
    57 N12     13.3412   7.1449   2.7592   N.1       2 RES2   0.0000
    58 C27     12.6492   4.1296   0.7176   C.2       2 RES2   0.0000
    59 H19     12.9846   4.9829   0.5123   H         2 RES2   0.0000
    60 C28     12.4342   3.2341  -0.2829   C.2       2 RES2   0.0000
    61 H20     12.6344   3.4824  -1.1683   H         2 RES2   0.0000
    62 C29     12.6214   4.7170   3.1136   C.2       2 RES2   0.0000
    63 N13     10.6321  -1.2767  -0.6187   N.1       2 RES2   0.0000
    64 C30     11.8291   2.5104   2.3186   C.2       2 RES2   0.0000
    65 H21     11.6165   2.2672   3.2014   H         2 RES2   0.0000
    66 C31     11.6083   1.6242   1.3151   C.2       2 RES2   0.0000
    67 H22     11.2414   0.7827   1.5175   H         2 RES2   0.0000
    68 C32     13.0358   6.0534   2.8864   C.1       2 RES2   0.0000
    69 N14     12.0691   4.1397   5.5386   N.1       2 RES2   0.0000
    70 C33     12.3164   4.3989   4.4529   C.1       2 RES2   0.0000
    71 C34     11.1267  -0.2634  -0.8269   C.1       2 RES2   0.0000
    72 C35      8.6828   5.6983  16.6167   C.2       3 RES3   0.0000
    73 C36      8.1340   6.9816  16.8667   C.2       3 RES3   0.0000
    74 H23      7.8986   7.2181  17.7462   H         3 RES3   0.0000
    75 C37      8.2601   7.5531  14.5096   C.2       3 RES3  -1.0000
    76 N15      8.2071   5.3431  20.0690   N.1       3 RES3   0.0000
    77 C38      8.8791   4.7658  17.6613   C.2       3 RES3   0.0000
    78 C39      8.7995   6.2739  14.2661   C.2       3 RES3   0.0000
    79 H24      9.0209   6.0324  13.3863   H         3 RES3   0.0000
    80 C40      9.0093   5.3743  15.2732   C.2       3 RES3   0.0000
    81 H25      9.3751   4.5310  15.0735   H         3 RES3   0.0000
    82 N16      8.2624   7.8813  10.9871   N.1       3 RES3   0.0000
    83 N17      9.6557   2.3581  17.2694   N.1       3 RES3   0.0000
    84 C41      9.3329   3.4412  17.4342   C.1       3 RES3   0.0000
    85 C42      8.0090   8.4830  13.4734   C.2       3 RES3   0.0000
    86 C43      7.9414   7.8746  15.8645   C.2       3 RES3   0.0000
    87 H26      7.5907   8.7237  16.0655   H         3 RES3   0.0000
    88 C44      8.5125   5.0763  18.9980   C.1       3 RES3   0.0000
    89 N18      6.9528  10.7586  13.9972   N.1       3 RES3   0.0000
    90 C45      8.1713   8.1481  12.1035   C.1       3 RES3   0.0000
    91 C46      7.4345   9.7454  13.7502   C.1       3 RES3   0.0000
    92 C47      4.8467  -1.8338  14.2788   C.1       4 RES4   0.0000
    93 N19      4.5805  -1.0225  13.5505   N.1       4 RES4   0.0000
    94 C48      5.2028  -2.8807  15.2171   C.3       4 RES4   0.0000
    95 H27      4.7760  -3.7105  14.9527   H         4 RES4   0.0000
    96 H28      4.9050  -2.6324  16.1047   H         4 RES4   0.0000
    97 H29      6.1655  -2.9985  15.2203   H         4 RES4   0.0000
    98 N20      5.8690   1.6167   8.5281   N.1       5 RES5   0.0000
    99 C49      5.4256   1.2278   9.4807   C.1       5 RES5   0.0000
   100 C50      4.8563   0.7162  10.7015   C.3       5 RES5   0.0000
   101 H30      3.9636   0.3804  10.5276   H         5 RES5   0.0000
   102 H31      4.8112   1.4265  11.3598   H         5 RES5   0.0000
   103 H32      5.4121  -0.0042  11.0400   H         5 RES5   0.0000
   104 C51      3.7675   2.8689   4.6493   C.1       6 RES6   0.0000
   105 C52      4.1295   3.8779   3.7036   C.3       6 RES6   0.0000
   106 H33      4.1129   3.5043   2.8098   H         6 RES6   0.0000
   107 H34      5.0212   4.2019   3.9030   H         6 RES6   0.0000
   108 H35      3.4991   4.6135   3.7594   H         6 RES6   0.0000
   109 N21      3.4988   2.0450   5.3924   N.1       6 RES6   0.0000
@<TRIPOS>BOND
     1     1     2    1
     2     2    20   ar
     3     3     1    1
     4     4     1    1
     5     5     1    1
     6     6     1    1
     7     7     1    1
     8     8     7    1
     9     9     8    1
    10    10     5    1
    11    11    10    1
    12    12     4    1
    13    13    12    1
    14    14     6    1
    15    15    14    1
    16    16     4    2
    17    17     5    2
    18    18     7    2
    19    19     3   ar
    20    20    16    1
    21    21     3   ar
    22    22     2   ar
    23    23     6    2
    24    24    21   ar
    25    25    24    1
    26    26    20   ar
    27    27    26    1
    28    28    16    1
    29    29    28    1
    30    30     8    1
    31    31    30    1
    32    32    17    1
    33    33    32    1
    34    34    19   ar
    35    35    34    1
    36    36    18    1
    37    37    36    1
    38    38    10    1
    39    39    38    1
    40    40    24   ar
    41    41    40    1
    42    42    22   ar
    43    43    42    1
    44    44    26   ar
    45    45    44    1
    46    46    12    1
    47    47    46    1
    48    48    23    1
    49    49    48    1
    50    50    14    1
    51    51    50    1
    52    17    19    1
    53    18    21    1
    54    22    23    1
    55    28    46    2
    56    30    36    2
    57    32    38    2
    58    34    40   ar
    59    42    44   ar
    60    48    50    2
    61    52    54    3
    62    53    55    2
    63    54    55    1
    64    55    71    1
    65    56    58    1
    66    57    68    3
    67    58    59    1
    68    60    53    1
    69    61    60    1
    70    62    56    2
    71    63    71    3
    72    64    56    1
    73    65    64    1
    74    66    53    1
    75    67    66    1
    76    68    62    1
    77    69    70    3
    78    70    62    1
    79    58    60    2
    80    64    66    2
    81    72    73    1
    82    73    74    1
    83    75    78    1
    84    76    88    3
    85    77    72    2
    86    78    79    1
    87    80    72    1
    88    81    80    1
    89    82    90    3
    90    83    84    3
    91    84    77    1
    92    85    75    2
    93    86    73    2
    94    87    86    1
    95    88    77    1
    96    89    91    3
    97    90    85    1
    98    91    85    1
    99    75    86    1
   100    78    80    2
   101    92    93    3
   102    94    92    1
   103    95    94    1
   104    96    94    1
   105    97    94    1
   106    98    99    3
   107    99   100    1
   108   100   101    1
   109   102   100    1
   110   103   100    1
   111   104   105    1
   112   105   106    1
   113   107   105    1
   114   108   105    1
   115   109   104    3
@<TRIPOS>SUBSTRUCTURE
     1 RES1        1 GROUP             0 ****  ****    0  
     2 RES2       52 GROUP             0 ****  ****    0  
     3 RES3       72 GROUP             0 ****  ****    0  
     4 RES4       92 GROUP             0 ****  ****    0  
     5 RES5       98 GROUP             0 ****  ****    0  
     6 RES6      104 GROUP             0 ****  ****    0  
@<TRIPOS>CRYSIN
   18.3726    8.4157   33.4462   90.0000  102.6554   90.0000   231     1
