@<TRIPOS>MOLECULE
OYOFEQ
   215   226     9     0     0
SMALL
USER_CHARGES
****
Generated from the CSD

@<TRIPOS>ATOM
     1 Fe1      1.6076   1.7638   9.8616   Fe        1 RES1   2.0000
     2 N1       0.9100   3.4727   9.1460   N.2       1 RES1   0.0000
     3 N2       2.2325  -0.1172   9.9348   N.2       1 RES1   0.0000
     4 N3      -0.1950   1.2592  10.5106   N.2       1 RES1   0.0000
     5 N4       1.8095   2.1881  11.7007   N.ar      1 RES1   0.0000
     6 N5       3.4676   2.4689   9.8407   N.2       1 RES1   0.0000
     7 N6       1.4480   1.3102   8.0220   N.ar      1 RES1   0.0000
     8 N7       5.1327   3.3731  11.0103   N.pl3     1 RES1   0.0000
     9 H1       5.5759   3.6730  11.6845   H         1 RES1   0.0000
    10 N8       0.2595   4.6440   7.3793   N.pl3     1 RES1   0.0000
    11 H2       0.0743   4.8384   6.5610   H         1 RES1   0.0000
    12 N9      -1.5748   1.0806  12.2481   N.pl3     1 RES1   0.0000
    13 H3      -1.8715   1.1328  13.0550   H         1 RES1   0.0000
    14 C1       0.5359   4.7366   9.5965   C.ar      1 RES1   0.0000
    15 C2      -1.4116   0.7482  10.0549   C.ar      1 RES1   0.0000
    16 C3       0.7303   3.4738   7.8334   C.2       1 RES1   0.0000
    17 C4       2.7006  -1.0769  10.8256   C.ar      1 RES1   0.0000
    18 C5       3.9008   2.8401  11.0359   C.2       1 RES1   0.0000
    19 N10      2.6698  -1.9824   8.7923   N.pl3     1 RES1   0.0000
    20 H4       2.7486  -2.5260   8.1284   H         1 RES1   0.0000
    21 C6       1.0179   2.2358   7.1253   C.ar      1 RES1   0.0000
    22 C7      -0.3440   1.4344  11.8314   C.2       1 RES1   0.0000
    23 C8      -2.2721   0.6227  11.1604   C.ar      1 RES1   0.0000
    24 C9       2.9904   2.6794  12.1693   C.ar      1 RES1   0.0000
    25 C10      4.5054   2.7656   8.9534   C.ar      1 RES1   0.0000
    26 C11      0.9391   1.9479   5.7812   C.ar      1 RES1   0.0000
    27 H5       0.6397   2.5880   5.1747   H         1 RES1   0.0000
    28 C12      1.8002   0.0731   7.5920   C.ar      1 RES1   0.0000
    29 C13      0.9398   2.2113  13.9202   C.ar      1 RES1   0.0000
    30 H6       0.2375   2.0545  14.5082   H         1 RES1   0.0000
    31 C14     -1.8270   0.3694   8.7817   C.ar      1 RES1   0.0000
    32 H7      -1.2621   0.4501   8.0457   H         1 RES1   0.0000
    33 C15      2.2323  -0.7052   8.7372   C.2       1 RES1   0.0000
    34 C16      2.9641  -2.2474  10.1002   C.ar      1 RES1   0.0000
    35 C17      5.5534   3.3455   9.6973   C.ar      1 RES1   0.0000
    36 C18      0.7897   1.9678  12.5663   C.ar      1 RES1   0.0000
    37 C19      0.1287   5.4820   8.4828   C.ar      1 RES1   0.0000
    38 C20     -3.5578   0.1119  11.0233   C.ar      1 RES1   0.0000
    39 H8      -4.1244   0.0177  11.7554   H         1 RES1   0.0000
    40 C21      1.3109   0.6944   5.3492   C.ar      1 RES1   0.0000
    41 H9       1.2729   0.4902   4.4422   H         1 RES1   0.0000
    42 C22     -3.9484  -0.2457   9.7647   C.ar      1 RES1   0.0000
    43 H10     -4.8067  -0.5812   9.6367   H         1 RES1   0.0000
    44 C23      3.1877   2.9271  13.5075   C.ar      1 RES1   0.0000
    45 H11      4.0037   3.2475  13.8151   H         1 RES1   0.0000
    46 C24     -3.0918  -0.1227   8.6494   C.ar      1 RES1   0.0000
    47 H12     -3.3954  -0.3822   7.8094   H         1 RES1   0.0000
    48 C25      4.6261   2.5941   7.5912   C.ar      1 RES1   0.0000
    49 H13      3.9348   2.2178   7.0966   H         1 RES1   0.0000
    50 C26      2.1443   2.6901  14.3845   C.ar      1 RES1   0.0000
    51 H14      2.2579   2.8534  15.2919   H         1 RES1   0.0000
    52 C27      0.5271   5.3021  10.8646   C.ar      1 RES1   0.0000
    53 H15      0.8028   4.8193  11.6097   H         1 RES1   0.0000
    54 C28      2.9195  -1.0224  12.1977   C.ar      1 RES1   0.0000
    55 H16      2.7561  -0.2480  12.6848   H         1 RES1   0.0000
    56 C29      1.7395  -0.2648   6.2499   C.ar      1 RES1   0.0000
    57 H17      1.9807  -1.1154   5.9624   H         1 RES1   0.0000
    58 C30     -0.3386   6.7937   8.5982   C.ar      1 RES1   0.0000
    59 H18     -0.6324   7.2812   7.8645   H         1 RES1   0.0000
    60 C31      0.0975   6.5983  10.9772   C.ar      1 RES1   0.0000
    61 H19      0.0940   7.0069  11.8145   H         1 RES1   0.0000
    62 C32      6.7409   3.7516   9.0913   C.ar      1 RES1   0.0000
    63 H20      7.4349   4.1307   9.5816   H         1 RES1   0.0000
    64 C33     -0.3352   7.3174   9.8671   C.ar      1 RES1   0.0000
    65 H21     -0.6353   8.1891   9.9911   H         1 RES1   0.0000
    66 C34      5.7901   2.9919   6.9828   C.ar      1 RES1   0.0000
    67 H22      5.8893   2.8811   6.0648   H         1 RES1   0.0000
    68 C35      3.3877  -2.1645  12.7994   C.ar      1 RES1   0.0000
    69 H23      3.5409  -2.1590  13.7166   H         1 RES1   0.0000
    70 C36      6.8361   3.5628   7.7298   C.ar      1 RES1   0.0000
    71 H24      7.6142   3.8214   7.2935   H         1 RES1   0.0000
    72 C37      3.4397  -3.4067  10.7236   C.ar      1 RES1   0.0000
    73 H25      3.6109  -4.1856  10.2471   H         1 RES1   0.0000
    74 C38      3.6395  -3.3327  12.0783   C.ar      1 RES1   0.0000
    75 H26      3.9523  -4.0830  12.5312   H         1 RES1   0.0000
    76 C39      4.7213   3.7706  19.7483   C.2       2 RES2   0.0000
    77 C40      3.4266   3.1670  19.6495   C.2       2 RES2   0.0000
    78 H27      3.0996   2.9171  18.8165   H         2 RES2   0.0000
    79 C41      4.4605   3.8652  22.1581   C.2       2 RES2   0.0000
    80 H28      4.7983   4.0919  22.9949   H         2 RES2   0.0000
    81 C42      5.4720   4.0339  18.6043   C.2       2 RES2   0.0000
    82 C43      5.2101   4.0917  21.0487   C.2       2 RES2   0.0000
    83 H29      6.0582   4.4629  21.1401   H         2 RES2   0.0000
    84 C44      3.1580   3.2830  22.0573   C.2       2 RES2  -1.0000
    85 N11      7.7574   5.1632  18.5716   N.1       2 RES2   0.0000
    86 C45      6.7397   4.6604  18.6232   C.1       2 RES2   0.0000
    87 C46      2.6682   2.9548  20.7592   C.2       2 RES2   0.0000
    88 H30      1.8165   2.5910  20.6714   H         2 RES2   0.0000
    89 C47      2.3568   3.0897  23.1930   C.2       2 RES2   0.0000
    90 C48      4.9772   3.7380  17.2984   C.1       2 RES2   0.0000
    91 N12      3.2407   3.6097  25.5366   N.1       2 RES2   0.0000
    92 N13      4.6175   3.5445  16.2418   N.1       2 RES2   0.0000
    93 C49      2.8473   3.3754  24.4985   C.1       2 RES2   0.0000
    94 C50      1.0220   2.5976  23.0780   C.1       2 RES2   0.0000
    95 N14     -0.0360   2.2163  22.9713   N.1       2 RES2   0.0000
    96 C51      0.4063   5.8237   1.1881   C.2       3 RES3   0.0000
    97 C52     -0.5617   3.8987   0.0890   C.2       3 RES3   0.0000
    98 H31     -1.0046   3.0837   0.1497   H         3 RES3   0.0000
    99 C53     -0.2905   4.5913   1.2232   C.2       3 RES3   0.0000
   100 H32     -0.5675   4.2488   2.0439   H         3 RES3   0.0000
   101 N15      1.8119   8.8400   2.4247   N.1       3 RES3   0.0000
   102 C54      1.3177   7.8072   2.3948   C.1       3 RES3   0.0000
   103 C55      0.6763   6.5507   2.3857   C.2       3 RES3   0.0000
   104 N16      0.0130   5.5702   4.6529   N.1       3 RES3   0.0000
   105 C56      0.3280   6.0067   3.6408   C.1       3 RES3   0.0000
   106 C51A    -0.1820   4.3954  -1.1881   C.2       3 RES3   0.0000
   107 C52A     0.7860   6.3205  -0.0890   C.2       3 RES3   0.0000
   108 H31A     1.2289   7.1355  -0.1497   H         3 RES3   0.0000
   109 C53A     0.5147   5.6278  -1.2232   C.2       3 RES3   0.0000
   110 H32A     0.7917   5.9703  -2.0439   H         3 RES3   0.0000
   111 N15A    -1.5877   1.3791  -2.4247   N.1       3 RES3   0.0000
   112 C54A    -1.0935   2.4120  -2.3948   C.1       3 RES3   0.0000
   113 C55A    -0.4520   3.6684  -2.3857   C.2       3 RES3   0.0000
   114 N16A     0.2113   4.6490  -4.6529   N.1       3 RES3   0.0000
   115 C56A    -0.1038   4.2124  -3.6408   C.1       3 RES3   0.0000
   116 N17      4.1338   6.1298   1.0220   N.1       4 RES4   0.0000
   117 C57      2.0549   1.7776   0.2178   C.2       4 RES4   0.0000
   118 H33      1.8589   1.4916   1.0791   H         4 RES4   0.0000
   119 C58      2.6775   3.0469   0.0268   C.2       4 RES4  -1.0000
   120 C59      1.9808   1.4070  -2.1750   C.2       4 RES4   0.0000
   121 C60      1.7444   0.9859  -0.8266   C.2       4 RES4   0.0000
   122 H34      1.3702   0.1500  -0.6695   H         4 RES4   0.0000
   123 C61      2.5792   2.6971  -2.3601   C.2       4 RES4   0.0000
   124 H35      2.7315   3.0096  -3.2214   H         4 RES4   0.0000
   125 C62      3.6417   5.1032   1.0298   C.1       4 RES4   0.0000
   126 C63      2.9266   3.4721  -1.3027   C.2       4 RES4   0.0000
   127 H36      3.3353   4.2941  -1.4532   H         4 RES4   0.0000
   128 N18      0.6859  -1.7687  -2.8150   N.1       4 RES4   0.0000
   129 C64      2.8408   3.3683   2.4523   C.1       4 RES4   0.0000
   130 C65      1.1122  -0.7193  -3.0092   C.1       4 RES4   0.0000
   131 C66      3.0182   3.8333   1.1224   C.2       4 RES4   0.0000
   132 C67      1.6449   0.5825  -3.2391   C.2       4 RES4   0.0000
   133 N19      2.7452   3.0260   3.5388   N.1       4 RES4   0.0000
   134 C68      1.7466   1.0060  -4.5974   C.1       4 RES4   0.0000
   135 N20      1.8155   1.3507  -5.6792   N.1       4 RES4   0.0000
   136 C69     -2.6050   1.4350  18.5661   C.2       5 RES5   0.0000
   137 C70     -3.8643   0.7917  18.4172   C.2       5 RES5   0.0000
   138 H37     -4.1532   0.5480  17.5681   H         5 RES5   0.0000
   139 C71     -4.6579   0.5234  19.4931   C.2       5 RES5   0.0000
   140 H38     -5.4800   0.1089  19.3600   H         5 RES5   0.0000
   141 C72     -1.7604   1.6775  17.4689   C.2       5 RES5   0.0000
   142 C73     -0.4834   2.2801  17.5855   C.1       5 RES5   0.0000
   143 N21      0.5626   2.7459  17.6339   N.1       5 RES5   0.0000
   144 N22     -2.3990   1.1117  15.0576   N.1       5 RES5   0.0000
   145 C74     -2.1468   1.3578  16.1394   C.1       5 RES5   0.0000
   146 C69A    -4.2555   0.8632  20.8156   C.2       5 RES5   0.0000
   147 C70A    -2.9961   1.5065  20.9644   C.2       5 RES5   0.0000
   148 H37A    -2.7073   1.7502  21.8135   H         5 RES5   0.0000
   149 C71A    -2.2026   1.7748  19.8885   C.2       5 RES5   0.0000
   150 H38A    -1.3804   2.1893  20.0216   H         5 RES5   0.0000
   151 C72A    -5.1001   0.6206  21.9127   C.2       5 RES5   0.0000
   152 C73A    -6.3771   0.0180  21.7962   C.1       5 RES5   0.0000
   153 N21A    -7.4231  -0.4477  21.7477   N.1       5 RES5   0.0000
   154 N22A    -4.4615   1.1865  24.3241   N.1       5 RES5   0.0000
   155 C74A    -4.7136   0.9404  23.2423   C.1       5 RES5   0.0000
   156 C75      5.0916   9.7323  -1.3031   C.2       6 RES6   0.0000
   157 C76      4.8608   9.4165   1.0791   C.2       6 RES6   0.0000
   158 H39      4.6044   8.8947   1.8037   H         6 RES6   0.0000
   159 C77      4.9055   9.2154  -2.5783   C.2       6 RES6   0.0000
   160 C78      4.3707   7.9156  -2.8040   C.1       6 RES6   0.0000
   161 C79      4.6968   8.9524  -0.1497   C.2       6 RES6   0.0000
   162 H40      4.3209   8.1112  -0.2757   H         6 RES6   0.0000
   163 N23      5.5332  10.5578  -4.6864   N.1       6 RES6   0.0000
   164 N24      3.9566   6.8695  -2.9733   N.1       6 RES6   0.0000
   165 C80      5.2505   9.9730  -3.7452   C.1       6 RES6   0.0000
   166 C75A     5.4246  10.7060   1.3031   C.2       6 RES6   0.0000
   167 C76A     5.6553  11.0217  -1.0791   C.2       6 RES6   0.0000
   168 H39A     5.9117  11.5435  -1.8037   H         6 RES6   0.0000
   169 C77A     5.6106  11.2229   2.5783   C.2       6 RES6   0.0000
   170 C78A     6.1455  12.5227   2.8040   C.1       6 RES6   0.0000
   171 C79A     5.8194  11.4858   0.1497   C.2       6 RES6   0.0000
   172 H40A     6.1953  12.3271   0.2757   H         6 RES6   0.0000
   173 N23A     4.9830   9.8805   4.6864   N.1       6 RES6   0.0000
   174 N24A     6.5596  13.5688   2.9733   N.1       6 RES6   0.0000
   175 C80A     5.2657  10.4653   3.7452   C.1       6 RES6   0.0000
   176 C81     12.2731   6.3556  18.3751   C.2       7 RES7   0.0000
   177 C82     10.9469   5.8702  18.6551   C.2       7 RES7   0.0000
   178 H41     10.3992   5.6162  17.9462   H         7 RES7   0.0000
   179 C83     10.4903   5.7761  19.8799   C.2       7 RES7   0.0000
   180 H42      9.6297   5.4533  20.0216   H         7 RES7   0.0000
   181 N25     11.4073   5.7966  15.0123   N.1       7 RES7   0.0000
   182 C84     12.7781   6.4288  17.1074   C.2       7 RES7   0.0000
   183 C85     12.0138   6.0759  15.9456   C.1       7 RES7   0.0000
   184 N26     15.1968   7.2294  16.6427   N.1       7 RES7   0.0000
   185 C86     14.1158   6.8873  16.8396   C.1       7 RES7   0.0000
   186 C81A    11.2938   6.1617  21.0066   C.2       7 RES7   0.0000
   187 C82A    12.6200   6.6471  20.7266   C.2       7 RES7   0.0000
   188 H41A    13.1676   6.9010  21.4354   H         7 RES7   0.0000
   189 C83A    13.0766   6.7412  19.5018   C.2       7 RES7   0.0000
   190 H42A    13.9371   7.0640  19.3600   H         7 RES7   0.0000
   191 N25A    12.1595   6.7207  24.3694   N.1       7 RES7   0.0000
   192 C84A    10.7887   6.0885  22.2743   C.2       7 RES7   0.0000
   193 C85A    11.5531   6.4414  23.4360   C.1       7 RES7   0.0000
   194 N26A     8.3700   5.2879  22.7390   N.1       7 RES7   0.0000
   195 C86A     9.4511   5.6300  22.5421   C.1       7 RES7   0.0000
   196 O1       3.0534  -3.5553   6.5484   O.2       8 RES8   0.0000
   197 C87      4.1163  -3.6839   5.9899   C.2       8 RES8   0.0000
   198 C88      5.3871  -3.3144   6.6831   C.3       8 RES8   0.0000
   199 H43      5.6475  -2.4283   6.4231   H         8 RES8   0.0000
   200 H44      6.0774  -3.9359   6.4350   H         8 RES8   0.0000
   201 H45      5.2551  -3.3439   7.6322   H         8 RES8   0.0000
   202 C89      4.1385  -4.1283   4.5919   C.3       8 RES8   0.0000
   203 H46      3.5211  -4.8546   4.4738   H         8 RES8   0.0000
   204 H47      5.0238  -4.4227   4.3635   H         8 RES8   0.0000
   205 H48      3.8862  -3.3993   4.0209   H         8 RES8   0.0000
   206 O2       6.6208   4.6138  13.0081   O.2       9 RES9   0.0000
   207 C90      7.2332   5.3477  13.6772   C.2       9 RES9   0.0000
   208 C91      7.2913   6.8283  13.3937   C.3       9 RES9   0.0000
   209 H49      6.9535   6.9996  12.5115   H         9 RES9   0.0000
   210 H50      8.2006   7.1291  13.4528   H         9 RES9   0.0000
   211 H51      6.7573   7.2982  14.0396   H         9 RES9   0.0000
   212 C92      7.8959   5.0097  14.9414   C.3       9 RES9   0.0000
   213 H52      7.5355   4.1874  15.2801   H         9 RES9   0.0000
   214 H53      7.7477   5.7129  15.5754   H         9 RES9   0.0000
   215 H54      8.8388   4.9077  14.7878   H         9 RES9   0.0000
@<TRIPOS>BOND
     1     1     2    1
     2     2    14    1
     3     3     1    1
     4     4     1    1
     5     5     1    1
     6     6     1    1
     7     7     1    1
     8     8     9    1
     9    10    11    1
    10    12    13    1
    11    14    37   ar
    12    15     4    1
    13    16     2    2
    14    17     3    1
    15    18     6    2
    16    19    20    1
    17    21     7   ar
    18    22     4    2
    19    23    12    1
    20    24     5   ar
    21    25     6    1
    22    26    21   ar
    23    27    26    1
    24    28     7   ar
    25    29    30    1
    26    31    15   ar
    27    32    31    1
    28    33     3    2
    29    34    17   ar
    30    35     8    1
    31    36     5   ar
    32    37    10    1
    33    38    23   ar
    34    39    38    1
    35    40    26   ar
    36    41    40    1
    37    42    38   ar
    38    43    42    1
    39    44    24   ar
    40    45    44    1
    41    46    31   ar
    42    47    46    1
    43    48    25   ar
    44    49    48    1
    45    50    29   ar
    46    51    50    1
    47    52    14   ar
    48    53    52    1
    49    54    17   ar
    50    55    54    1
    51    56    28   ar
    52    57    56    1
    53    58    37   ar
    54    59    58    1
    55    60    52   ar
    56    61    60    1
    57    62    35   ar
    58    63    62    1
    59    64    58   ar
    60    65    64    1
    61    66    48   ar
    62    67    66    1
    63    68    54   ar
    64    69    68    1
    65    70    62   ar
    66    71    70    1
    67    72    34   ar
    68    73    72    1
    69    74    68   ar
    70    75    74    1
    71     8    18    1
    72    10    16    1
    73    12    22    1
    74    15    23   ar
    75    16    21    1
    76    18    24    1
    77    19    33    1
    78    19    34    1
    79    22    36    1
    80    25    35   ar
    81    28    33    1
    82    29    36   ar
    83    40    56   ar
    84    42    46   ar
    85    44    50   ar
    86    60    64   ar
    87    66    70   ar
    88    72    74   ar
    89    76    77    1
    90    77    78    1
    91    79    80    1
    92    81    76    2
    93    82    76    1
    94    83    82    1
    95    84    79    1
    96    85    86    3
    97    86    81    1
    98    87    77    2
    99    88    87    1
   100    89    84    2
   101    90    81    1
   102    91    93    3
   103    92    90    3
   104    93    89    1
   105    94    89    1
   106    95    94    3
   107    79    82    2
   108    84    87    1
   109    96    99    1
   110    97    98    1
   111    99    97    2
   112   100    99    1
   113   101   102    3
   114   102   103    1
   115   103    96    2
   116   104   105    3
   117   105   103    1
   118   106    97    1
   119   107    96    1
   120   108   107    1
   121   109   106    1
   122   110   109    1
   123   111   112    3
   124   112   113    1
   125   113   106    2
   126   114   115    3
   127   115   113    1
   128   107   109    2
   129   116   125    3
   130   117   118    1
   131   119   117    1
   132   120   121    1
   133   121   117    2
   134   122   121    1
   135   123   120    1
   136   124   123    1
   137   125   131    1
   138   126   119    1
   139   127   126    1
   140   128   130    3
   141   129   131    1
   142   130   132    1
   143   131   119    2
   144   132   120    2
   145   133   129    3
   146   134   132    1
   147   135   134    3
   148   123   126    2
   149   136   137    1
   150   137   138    1
   151   139   137    2
   152   140   139    1
   153   141   136    2
   154   142   141    1
   155   143   142    3
   156   144   145    3
   157   145   141    1
   158   146   139    1
   159   147   146    1
   160   148   147    1
   161   149   136    1
   162   150   149    1
   163   151   146    2
   164   152   151    1
   165   153   152    3
   166   154   155    3
   167   155   151    1
   168   147   149    2
   169   156   159    2
   170   157   158    1
   171   159   160    1
   172   160   164    3
   173   161   156    1
   174   162   161    1
   175   163   165    3
   176   165   159    1
   177   166   157    1
   178   167   156    1
   179   168   167    1
   180   169   166    2
   181   170   169    1
   182   171   166    1
   183   172   171    1
   184   173   175    3
   185   174   170    3
   186   175   169    1
   187   157   161    2
   188   167   171    2
   189   176   177    1
   190   177   178    1
   191   179   177    2
   192   180   179    1
   193   181   183    3
   194   182   176    2
   195   183   182    1
   196   184   185    3
   197   185   182    1
   198   186   179    1
   199   187   186    1
   200   188   187    1
   201   189   176    1
   202   190   189    1
   203   191   193    3
   204   192   186    2
   205   193   192    1
   206   194   195    3
   207   195   192    1
   208   187   189    2
   209   196   197    2
   210   197   198    1
   211   198   199    1
   212   200   198    1
   213   201   198    1
   214   202   197    1
   215   203   202    1
   216   204   202    1
   217   205   202    1
   218   206   207    2
   219   207   208    1
   220   208   209    1
   221   210   208    1
   222   211   208    1
   223   212   207    1
   224   213   212    1
   225   214   212    1
   226   215   212    1
@<TRIPOS>SUBSTRUCTURE
     1 RES1        1 GROUP             0 ****  ****    0  
     2 RES2       76 GROUP             0 ****  ****    0  
     3 RES3       96 GROUP             0 ****  ****    0  
     4 RES4      116 GROUP             0 ****  ****    0  
     5 RES5      136 GROUP             0 ****  ****    0  
     6 RES6      156 GROUP             0 ****  ****    0  
     7 RES7      176 GROUP             0 ****  ****    0  
     8 RES8      196 GROUP             0 ****  ****    0  
     9 RES9      206 GROUP             0 ****  ****    0  
@<TRIPOS>CRYSIN
   10.0677   10.2216   39.5788   86.5700   85.3520   88.7430     2     1
