@<TRIPOS>MOLECULE
PABSUG
   115   119     2     0     0
SMALL
USER_CHARGES
****
Generated from the CSD

@<TRIPOS>ATOM
     1 Fe1      1.0074   1.7090   2.1363   Fe        1 RES1   1.0000
     2 P1       1.2271   1.5916   4.4217   P.3       1 RES1   0.0000
     3 C1       2.8334   1.2581   5.2117   C.3       1 RES1   0.0000
     4 C2       3.8824   2.3584   5.0387   C.3       1 RES1   0.0000
     5 C3       0.1486   0.4253   5.2763   C.3       1 RES1   0.0000
     6 C4      -0.0044   0.6105   6.8026   C.3       1 RES1   0.0000
     7 C5       0.6840   3.1847   5.1497   C.3       1 RES1   0.0000
     8 C6       0.5387   4.2238   4.2200   C.3       1 RES1   0.0000
     9 P2      -0.0677   3.6648   2.5885   P.3       1 RES1   0.0000
    10 C7      -1.8762   3.7566   2.7272   C.3       1 RES1   0.0000
    11 C8      -2.5755   2.8030   3.6337   C.3       1 RES1   0.0000
    12 C9       0.2896   5.1098   1.5263   C.3       1 RES1   0.0000
    13 C10     -0.1049   6.4694   2.0454   C.3       1 RES1   0.0000
    14 P3       0.0765   1.4160   0.0968   P.3       1 RES1   0.0000
    15 C11      0.6971   2.5823  -1.1389   C.3       1 RES1   0.0000
    16 C12      0.3191   2.3938  -2.5645   C.3       1 RES1   0.0000
    17 C13     -1.7385   1.4708  -0.1705   C.3       1 RES1   0.0000
    18 C14     -2.5536   0.4607   0.5966   C.3       1 RES1   0.0000
    19 C15      0.4360  -0.2529  -0.4571   C.3       1 RES1   0.0000
    20 C16      1.7265  -0.7169   0.0207   C.3       1 RES1   0.0000
    21 P4       2.0237  -0.2803   1.7368   P.3       1 RES1   0.0000
    22 C17      1.5800  -1.7430   2.6730   C.3       1 RES1   0.0000
    23 C18      0.1005  -2.1183   2.6472   C.3       1 RES1   0.0000
    24 C19      3.9162  -0.2932   1.8336   C.2       1 RES1   0.0000
    25 C20      4.6964  -1.0020   1.8233   C.2       1 RES1   0.0000
    26 Br1      2.9954   2.9273   1.5064   Br        1 RES1   0.0000
    27 H1      -0.1486   1.0358   2.2830   H         1 RES1   0.0000
    28 H2       3.1940   0.4317   4.8269   H         1 RES1   0.0000
    29 H3       2.6793   1.1325   6.1698   H         1 RES1   0.0000
    30 H4       4.5773   2.2681   5.7256   H         1 RES1   0.0000
    31 H5       3.4639   3.2411   5.1265   H         1 RES1   0.0000
    32 H6       4.3041   2.2810   4.1554   H         1 RES1   0.0000
    33 H7       0.5026  -0.4752   5.1213   H         1 RES1   0.0000
    34 H8      -0.7430   0.5010   4.8785   H         1 RES1   0.0000
    35 H9      -0.4688  -0.1595   7.1848   H         1 RES1   0.0000
    36 H10     -0.5081   1.4273   6.9859   H         1 RES1   0.0000
    37 H11      0.8884   0.7024   7.2003   H         1 RES1   0.0000
    38 H12      1.3484   3.4618   5.8160   H         1 RES1   0.0000
    39 H13     -0.1803   3.0430   5.5887   H         1 RES1   0.0000
    40 H14     -0.0973   4.8778   4.5789   H         1 RES1   0.0000
    41 H15      1.4118   4.6523   4.0934   H         1 RES1   0.0000
    42 H16     -2.2389   3.6342   1.8233   H         1 RES1   0.0000
    43 H17     -2.0936   4.6571   3.0475   H         1 RES1   0.0000
    44 H18     -3.5371   2.7434   3.4142   H         1 RES1   0.0000
    45 H19     -2.5012   3.0865   4.5789   H         1 RES1   0.0000
    46 H20     -2.2105   1.8896   3.5640   H         1 RES1   0.0000
    47 H21     -0.1803   4.9728   0.6766   H         1 RES1   0.0000
    48 H22      1.2566   5.1243   1.3662   H         1 RES1   0.0000
    49 H23      0.0852   7.1556   1.3636   H         1 RES1   0.0000
    50 H24      0.4174   6.6901   2.8512   H         1 RES1   0.0000
    51 H25     -1.0545   6.5032   2.2882   H         1 RES1   0.0000
    52 H26      1.6751   2.5533  -1.0950   H         1 RES1   0.0000
    53 H27      0.3846   3.4731  -0.8729   H         1 RES1   0.0000
    54 H28      0.4677   3.2105  -3.0914   H         1 RES1   0.0000
    55 H29     -0.6272   2.1393  -2.6678   H         1 RES1   0.0000
    56 H30      0.8589   1.6834  -2.9881   H         1 RES1   0.0000
    57 H31     -1.9046   1.3258  -1.1260   H         1 RES1   0.0000
    58 H32     -2.0521   2.3632   0.0826   H         1 RES1   0.0000
    59 H33     -3.5163   0.6379   0.5191   H         1 RES1   0.0000
    60 H34     -2.3132   0.4607   1.5521   H         1 RES1   0.0000
    61 H35     -2.3821  -0.4446   0.2453   H         1 RES1   0.0000
    62 H36      0.4589  -0.2513  -1.4359   H         1 RES1   0.0000
    63 H37     -0.2688  -0.8602   0.1472   H         1 RES1   0.0000
    64 H38      1.7461  -1.6947  -0.0594   H         1 RES1   0.0000
    65 H39      2.4400  -0.3302  -0.5269   H         1 RES1   0.0000
    66 H40      1.8379  -1.5932   3.6053   H         1 RES1   0.0000
    67 H41      2.0892  -2.4985   2.3114   H         1 RES1   0.0000
    68 H42     -0.0677  -2.9206   3.1818   H         1 RES1   0.0000
    69 H43     -0.1814  -2.2665   1.7174   H         1 RES1   0.0000
    70 H44     -0.4360  -1.3773   3.0113   H         1 RES1   0.0000
    71 B1       4.0922  10.5707   4.2045   B         2 RES2  -1.0000
    72 C21      3.7152   9.1709   4.9793   C.ar      2 RES2   0.0000
    73 C22      3.7348   9.0726   6.3609   C.ar      2 RES2   0.0000
    74 C23      3.5283   7.8564   7.0453   C.ar      2 RES2   0.0000
    75 C24      3.2715   6.7223   6.3067   C.ar      2 RES2   0.0000
    76 C25      3.2322   6.7674   4.9663   C.ar      2 RES2   0.0000
    77 C26      3.4475   7.9707   4.3207   C.ar      2 RES2   0.0000
    78 C27      5.7170  10.5868   3.9462   C.ar      2 RES2   0.0000
    79 C28      6.5092   9.4624   4.0366   C.ar      2 RES2   0.0000
    80 C29      7.8838   9.4801   3.7499   C.ar      2 RES2   0.0000
    81 C30      8.5416  10.5981   3.4194   C.ar      2 RES2   0.0000
    82 C31      7.7757  11.7837   3.3135   C.ar      2 RES2   0.0000
    83 C32      6.3978  11.7676   3.5846   C.ar      2 RES2   0.0000
    84 C33      3.2934  10.6835   2.7634   C.ar      2 RES2   0.0000
    85 C34      3.8474  11.2618   1.6193   C.ar      2 RES2   0.0000
    86 C35      3.1524  11.4664   0.4416   C.ar      2 RES2   0.0000
    87 C36      1.8248  11.0637   0.3616   C.ar      2 RES2   0.0000
    88 C37      1.2238  10.4725   1.4540   C.ar      2 RES2   0.0000
    89 C38      1.9680  10.2808   2.5929   C.ar      2 RES2   0.0000
    90 C39      3.6157  11.8482   5.1497   C.ar      2 RES2   0.0000
    91 C40      4.4833  12.5715   5.9193   C.ar      2 RES2   0.0000
    92 C41      4.0605  13.6363   6.7561   C.ar      2 RES2   0.0000
    93 C42      2.7460  13.9295   6.8439   C.ar      2 RES2   0.0000
    94 C43      1.8521  13.2110   6.1078   C.ar      2 RES2   0.0000
    95 C44      2.2772  12.1784   5.2917   C.ar      2 RES2   0.0000
    96 H45      3.8977   9.8845   6.8852   H         2 RES2   0.0000
    97 H46      3.5688   7.8193   8.0241   H         2 RES2   0.0000
    98 H47      3.1142   5.8717   6.7664   H         2 RES2   0.0000
    99 H48      3.0530   5.9539   4.4498   H         2 RES2   0.0000
   100 H49      3.4081   7.9804   3.3419   H         2 RES2   0.0000
   101 H50      6.0973   8.6167   4.3104   H         2 RES2   0.0000
   102 H51      8.3832   8.6393   3.7938   H         2 RES2   0.0000
   103 H52      9.5076  10.5949   3.2592   H         2 RES2   0.0000
   104 H53      8.2095  12.6214   3.0501   H         2 RES2   0.0000
   105 H54      5.8918  12.6037   3.5175   H         2 RES2   0.0000
   106 H55      4.7860  11.5405   1.6529   H         2 RES2   0.0000
   107 H56      3.5895  11.8901  -0.3280   H         2 RES2   0.0000
   108 H57      1.3167  11.1990  -0.4649   H         2 RES2   0.0000
   109 H58      0.2852  10.1954   1.4204   H         2 RES2   0.0000
   110 H59      1.5342   9.8249   3.3445   H         2 RES2   0.0000
   111 H60      5.4362  12.3459   5.8909   H         2 RES2   0.0000
   112 H61      4.7183  14.1534   7.2674   H         2 RES2   0.0000
   113 H62      2.4389  14.6511   7.4327   H         2 RES2   0.0000
   114 H63      0.8971  13.4285   6.1569   H         2 RES2   0.0000
   115 H64      1.6085  11.6629   4.7959   H         2 RES2   0.0000
@<TRIPOS>BOND
     1     1     2    1
     2     2     3    1
     3     3     4    1
     4     4    30    1
     5     5     2    1
     6     6     5    1
     7     7     2    1
     8     8     7    1
     9     9     1    1
    10    10     9    1
    11    11    10    1
    12    12     9    1
    13    13    12    1
    14    14     1    1
    15    15    14    1
    16    16    15    1
    17    17    14    1
    18    18    17    1
    19    19    14    1
    20    20    19    1
    21    21     1    1
    22    22    21    1
    23    23    22    1
    24    24    21    1
    25    25    24    1
    26    26     1    1
    27    27     1    1
    28    28     3    1
    29    29     3    1
    30    31     4    1
    31    32     4    1
    32    33     5    1
    33    34     5    1
    34    35     6    1
    35    36     6    1
    36    37     6    1
    37    38     7    1
    38    39     7    1
    39    40     8    1
    40    41     8    1
    41    42    10    1
    42    43    10    1
    43    44    11    1
    44    45    11    1
    45    46    11    1
    46    47    12    1
    47    48    12    1
    48    49    13    1
    49    50    13    1
    50    51    13    1
    51    52    15    1
    52    53    15    1
    53    54    16    1
    54    55    16    1
    55    56    16    1
    56    57    17    1
    57    58    17    1
    58    59    18    1
    59    60    18    1
    60    61    18    1
    61    62    19    1
    62    63    19    1
    63    64    20    1
    64    65    20    1
    65    66    22    1
    66    67    22    1
    67    68    23    1
    68    69    23    1
    69    70    23    1
    70     8     9    1
    71    20    21    1
    72    71    72    1
    73    72    73   ar
    74    73    74   ar
    75    74    75   ar
    76    75    76   ar
    77    76    77   ar
    78    77    72   ar
    79    78    71    1
    80    79    78   ar
    81    80    79   ar
    82    81    80   ar
    83    82    81   ar
    84    83    78   ar
    85    84    71    1
    86    85    84   ar
    87    86    85   ar
    88    87    86   ar
    89    88    87   ar
    90    89    84   ar
    91    90    71    1
    92    91    90   ar
    93    92    91   ar
    94    93    92   ar
    95    94    93   ar
    96    95    90   ar
    97    96    73    1
    98    97    74    1
    99    98    75    1
   100    99    76    1
   101   100    77    1
   102   101    79    1
   103   102    80    1
   104   103    81    1
   105   104    82    1
   106   105    83    1
   107   106    85    1
   108   107    86    1
   109   108    87    1
   110   109    88    1
   111   110    89    1
   112   111    91    1
   113   112    92    1
   114   113    93    1
   115   114    94    1
   116   115    95    1
   117    82    83   ar
   118    88    89   ar
   119    94    95   ar
@<TRIPOS>SUBSTRUCTURE
     1 RES1        1 GROUP             0 ****  ****    0  
     2 RES2       71 GROUP             0 ****  ****    0  
@<TRIPOS>CRYSIN
   10.9270   16.1090   25.8260   90.0000   90.0000   90.0000    19     1
