@<TRIPOS>MOLECULE
PAFZIF
   107   116     5     0     0
SMALL
USER_CHARGES
****
Generated from the CSD

@<TRIPOS>ATOM
     1 Fe1      9.4545   6.0741  12.5270   Fe        1 RES1   2.0000
     2 N1       9.4214   7.9219  13.0477   N.ar      1 RES1   0.0000
     3 N2      10.2193   5.9557  14.3041   N.ar      1 RES1   0.0000
     4 N3      11.0061   7.0278  16.1282   N.ar      1 RES1   0.0000
     5 N4       8.7402   6.8252  10.8960   N.ar      1 RES1   0.0000
     6 N5       7.9348   8.6741   9.8781   N.ar      1 RES1   0.0000
     7 C1       9.8687   8.2538  14.2772   C.ar      1 RES1   0.0000
     8 C2       9.8122   9.5732  14.6686   C.ar      1 RES1   0.0000
     9 C3       9.3178  10.5146  13.7901   C.ar      1 RES1   0.0000
    10 C4       8.8805  10.1668  12.5371   C.ar      1 RES1   0.0000
    11 C5       8.9310   8.7895  12.1826   C.ar      1 RES1   0.0000
    12 C6      10.3489   7.0942  14.9507   C.ar      1 RES1   0.0000
    13 C7      10.8390   5.0499  15.1641   C.ar      1 RES1   0.0000
    14 C8      11.0154   3.6827  15.0314   C.ar      1 RES1   0.0000
    15 C9      11.6885   3.0502  16.0408   C.ar      1 RES1   0.0000
    16 C10     12.2006   3.7270  17.1729   C.ar      1 RES1   0.0000
    17 C11     12.0200   5.0610  17.2754   C.ar      1 RES1   0.0000
    18 C12     11.3266   5.7145  16.2945   C.ar      1 RES1   0.0000
    19 C13      8.5119   8.1329  10.9699   C.ar      1 RES1   0.0000
    20 C14      7.7516   7.6368   8.9980   C.ar      1 RES1   0.0000
    21 C15      7.2020   7.5965   7.7114   C.ar      1 RES1   0.0000
    22 C16      7.1960   6.3711   7.0781   C.ar      1 RES1   0.0000
    23 C17      7.7249   5.2611   7.6778   C.ar      1 RES1   0.0000
    24 C18      8.2691   5.2926   8.9493   C.ar      1 RES1   0.0000
    25 C19      8.2658   6.5022   9.6060   C.ar      1 RES1   0.0000
    26 N6       9.4255   4.2190  12.0970   N.ar      1 RES1   0.0000
    27 N7      11.2849   5.8681  11.7577   N.ar      1 RES1   0.0000
    28 N8      12.8425   4.5501  10.8893   N.ar      1 RES1   0.0000
    29 N9       7.6268   5.5477  13.1367   N.ar      1 RES1   0.0000
    30 N10      6.0481   4.0002  13.3450   N.ar      1 RES1   0.0000
    31 C20     10.5639   3.6251  11.5343   C.ar      1 RES1   0.0000
    32 C21     10.5924   2.2620  11.2555   C.ar      1 RES1   0.0000
    33 C22      9.4917   1.5027  11.6183   C.ar      1 RES1   0.0000
    34 C23      8.3899   2.0963  12.1558   C.ar      1 RES1   0.0000
    35 C24      8.3725   3.4105  12.3473   C.ar      1 RES1   0.0000
    36 C25     11.5541   4.6385  11.3478   C.ar      1 RES1   0.0000
    37 C26     12.4172   6.6234  11.6183   C.ar      1 RES1   0.0000
    38 C27     12.7442   7.9540  11.9122   C.ar      1 RES1   0.0000
    39 C28     14.0253   8.3893  11.6216   C.ar      1 RES1   0.0000
    40 C29     14.9614   7.5305  11.0589   C.ar      1 RES1   0.0000
    41 C30     14.6860   6.2254  10.7314   C.ar      1 RES1   0.0000
    42 C31     13.4051   5.7989  11.0606   C.ar      1 RES1   0.0000
    43 C32      7.3305   4.2554  12.9251   C.ar      1 RES1   0.0000
    44 C33      5.5246   5.1978  13.8186   C.ar      1 RES1   0.0000
    45 C34      4.2350   5.4223  14.3461   C.ar      1 RES1   0.0000
    46 C35      4.0551   6.7042  14.7475   C.ar      1 RES1   0.0000
    47 C36      4.9576   7.6827  14.6820   C.ar      1 RES1   0.0000
    48 C37      6.2205   7.4730  14.1613   C.ar      1 RES1   0.0000
    49 C38      6.5104   6.1664  13.7095   C.ar      1 RES1   0.0000
    50 H1      10.1569   9.8754  15.6596   H         1 RES1   0.0000
    51 H2       9.2780  11.5613  14.0991   H         1 RES1   0.0000
    52 H3       8.5133  10.9163  11.8417   H         1 RES1   0.0000
    53 H4      10.6314   3.1366  14.1747   H         1 RES1   0.0000
    54 H5      11.8535   1.9729  15.9669   H         1 RES1   0.0000
    55 H6      12.7264   3.1854  17.9624   H         1 RES1   0.0000
    56 H7      12.4274   5.6137  18.1203   H         1 RES1   0.0000
    57 H8       6.7831   8.4825   7.2343   H         1 RES1   0.0000
    58 H9       6.7672   6.2828   6.0787   H         1 RES1   0.0000
    59 H10      7.7188   4.3210   7.1302   H         1 RES1   0.0000
    60 H11      8.6714   4.3902   9.4179   H         1 RES1   0.0000
    61 H12     11.2278   7.8560  16.7967   H         1 RES1   0.0000
    62 H13      7.6658   9.7165   9.7320   H         1 RES1   0.0000
    63 H14     11.4473   1.8015  10.7616   H         1 RES1   0.0000
    64 H15      9.5128   0.4230  11.4805   H         1 RES1   0.0000
    65 H16      7.5194   1.4874  12.4161   H         1 RES1   0.0000
    66 H17     12.0209   8.6325  12.3624   H         1 RES1   0.0000
    67 H18     14.3119   9.4198  11.8350   H         1 RES1   0.0000
    68 H19     15.9685   7.8961  10.8708   H         1 RES1   0.0000
    69 H20     15.4045   5.5691  10.2443   H         1 RES1   0.0000
    70 H21      3.4658   4.6595  14.4166   H         1 RES1   0.0000
    71 H22      3.0920   6.9632  15.1809   H         1 RES1   0.0000
    72 H23      4.6909   8.6722  15.0431   H         1 RES1   0.0000
    73 H24      6.9495   8.2766  14.1075   H         1 RES1   0.0000
    74 H25     13.3272   3.6649  10.4744   H         1 RES1   0.0000
    75 H26      5.5249   3.0432  13.3114   H         1 RES1   0.0000
    76 S1      14.8635   1.2078   9.8345   S.o2      2 RES2   0.0000
    77 O1      13.8515   1.9603  10.4963   O.2       2 RES2   0.0000
    78 O2      14.4945   0.4738   8.6369   O.2       2 RES2   0.0000
    79 O3      15.6284   0.4595  10.7885   O.3       2 RES2  -1.0000
    80 F1      15.3418   3.3174   8.4151   F         2 RES2   0.0000
    81 F2      16.9359   2.0120   8.5226   F         2 RES2   0.0000
    82 F3      16.4617   3.1961  10.2208   F         2 RES2   0.0000
    83 C39     15.9675   2.5132   9.2382   C.3       2 RES2   0.0000
    84 S2      10.3015   9.3487  19.1432   S.o2      3 RES3   0.0000
    85 O4      11.1533   8.5473  18.4529   O.2       3 RES3   0.0000
    86 O5      10.0093  10.7069  18.4109   O.2       3 RES3   0.0000
    87 O6      10.5434   9.3938  20.5457   O.3       3 RES3  -1.0000
    88 F4       8.3676   8.5676  17.6181   F         3 RES3   0.0000
    89 F5       8.8781   7.4604  19.4674   F         3 RES3   0.0000
    90 F6       7.8081   9.4499  19.4405   F         3 RES3   0.0000
    91 C40      8.7124   8.6771  18.8123   C.3       3 RES3   0.0000
    92 O7       5.1485   1.3695  13.2879   O.3       4 RES4   0.0000
    93 C41      4.0751   1.0030  14.0084   C.3       4 RES4   0.0000
    94 C42      4.2782   0.9627  15.3018   C.3       4 RES4   0.0000
    95 H27      3.2716   1.7305  13.8338   H         4 RES4   0.0000
    96 H28      3.7494   0.0220  13.6792   H         4 RES4   0.0000
    97 H29      5.0754   0.2310  15.4815   H         4 RES4   0.0000
    98 H30      4.5973   1.9382  15.6360   H         4 RES4   0.0000
    99 H31      3.4109   0.6561  15.8880   H         4 RES4   0.0000
   100 O8       6.7818  11.0600   9.2701   O.3       5 RES5   0.0000
   101 C43      5.3206  11.0805   9.4733   C.3       5 RES5   0.0000
   102 C44      5.0830  11.5945  10.6995   C.3       5 RES5   0.0000
   103 H32      4.8547  11.6935   8.7124   H         5 RES5   0.0000
   104 H33      4.9369  10.0613   9.4162   H         5 RES5   0.0000
   105 H34      5.5496  10.9740  11.4621   H         5 RES5   0.0000
   106 H35      5.4663  12.6061  10.7583   H         5 RES5   0.0000
   107 H36      3.9962  11.6023  10.8523   H         5 RES5   0.0000
@<TRIPOS>BOND
     1     1     2    1
     2     2     7   ar
     3     3     1    1
     4     4    12   ar
     5     5     1    1
     6     6    19   ar
     7     7     8   ar
     8     8     9   ar
     9     9    10   ar
    10    10    11   ar
    11    11     2   ar
    12    12     3   ar
    13    13     3   ar
    14    14    13   ar
    15    15    14   ar
    16    16    15   ar
    17    17    16   ar
    18    18     4   ar
    19    19     5   ar
    20    20     6   ar
    21    21    20   ar
    22    22    21   ar
    23    23    22   ar
    24    24    23   ar
    25    25     5   ar
    26    26     1    1
    27    27     1    1
    28    28    36   ar
    29    29     1    1
    30    30    43   ar
    31    31    26   ar
    32    32    31   ar
    33    33    32   ar
    34    34    33   ar
    35    35    26   ar
    36    36    27   ar
    37    37    27   ar
    38    38    37   ar
    39    39    38   ar
    40    40    39   ar
    41    41    40   ar
    42    42    28   ar
    43    43    29   ar
    44    44    30   ar
    45    45    44   ar
    46    46    45   ar
    47    47    46   ar
    48    48    47   ar
    49    49    29   ar
    50    50     8    1
    51    51     9    1
    52    52    10    1
    53    53    14    1
    54    54    15    1
    55    55    16    1
    56    56    17    1
    57    57    21    1
    58    58    22    1
    59    59    23    1
    60    60    24    1
    61    61     4    1
    62    62     6    1
    63    63    32    1
    64    64    33    1
    65    65    34    1
    66    66    38    1
    67    67    39    1
    68    68    40    1
    69    69    41    1
    70    70    45    1
    71    71    46    1
    72    72    47    1
    73    73    48    1
    74    74    28    1
    75    75    30    1
    76     7    12    1
    77    11    19    1
    78    13    18   ar
    79    17    18   ar
    80    20    25   ar
    81    24    25   ar
    82    31    36    1
    83    34    35   ar
    84    35    43    1
    85    37    42   ar
    86    41    42   ar
    87    44    49   ar
    88    48    49   ar
    89    76    77    2
    90    78    76    2
    91    79    76    1
    92    80    83    1
    93    81    83    1
    94    82    83    1
    95    83    76    1
    96    84    85    2
    97    86    84    2
    98    87    84    1
    99    88    91    1
   100    89    91    1
   101    90    91    1
   102    91    84    1
   103    92    93    1
   104    93    94    1
   105    94    97    1
   106    95    93    1
   107    96    93    1
   108    98    94    1
   109    99    94    1
   110   100   101    1
   111   101   102    1
   112   102   105    1
   113   103   101    1
   114   104   101    1
   115   106   102    1
   116   107   102    1
@<TRIPOS>SUBSTRUCTURE
     1 RES1        1 GROUP             0 ****  ****    0  
     2 RES2       76 GROUP             0 ****  ****    0  
     3 RES3       84 GROUP             0 ****  ****    0  
     4 RES4       92 GROUP             0 ****  ****    0  
     5 RES5      100 GROUP             0 ****  ****    0  
@<TRIPOS>CRYSIN
   10.5910   13.6320   17.8330   74.4800   74.8800   76.2600     2     1
