@<TRIPOS>MOLECULE
PALVED
   158   168     4     0     0
SMALL
USER_CHARGES
****
Generated from the CSD

@<TRIPOS>ATOM
     1 Fe1     10.4024   4.8382   7.2100   Fe        1 RES1   1.0000
     2 N1       9.8435   5.5742   5.4746   N.2       1 RES1   0.0000
     3 N2      12.0255   4.1243   6.3713   N.2       1 RES1   0.0000
     4 N3      10.9472   4.0684   8.9376   N.2       1 RES1   0.0000
     5 N4       8.7793   5.5532   8.0403   N.2       1 RES1   0.0000
     6 N5       9.4511   3.1564   6.7373   N.ar      1 RES1   0.0000
     7 N6      11.3742   6.5223   7.6853   N.ar      1 RES1   0.0000
     8 C1       8.8048   6.4379   5.2325   C.2       1 RES1   0.0000
     9 C2      10.3334   5.2076   4.2261   C.2       1 RES1   0.0000
    10 C3      12.2804   3.9736   5.0287   C.2       1 RES1   0.0000
    11 C4      13.1417   3.6132   7.0128   C.2       1 RES1   0.0000
    12 C5      12.1942   3.5804   9.2606   C.2       1 RES1   0.0000
    13 C6      10.1959   3.9679  10.0811   C.2       1 RES1   0.0000
    14 C7       8.2776   5.2633   9.2892   C.2       1 RES1   0.0000
    15 C8       7.9077   6.4851   7.4955   C.2       1 RES1   0.0000
    16 C9       8.6568   6.6280   3.8172   C.2       1 RES1   0.0000
    17 C10      9.5624   5.8424   3.2054   C.2       1 RES1   0.0000
    18 C11     13.5576   3.3681   4.8185   C.2       1 RES1   0.0000
    19 C12     14.1065   3.1859   6.0428   C.2       1 RES1   0.0000
    20 C13     12.2053   3.1769  10.6320   C.2       1 RES1   0.0000
    21 C14     10.9735   3.3930  11.1324   C.2       1 RES1   0.0000
    22 C15      7.0661   5.9982   9.5177   C.2       1 RES1   0.0000
    23 C16      6.8584   6.7693   8.4269   C.2       1 RES1   0.0000
    24 C17     11.4469   4.4013   4.0010   C.2       1 RES1   0.0000
    25 C18     13.2460   3.3956   8.3759   C.2       1 RES1   0.0000
    26 C19      8.9039   4.4804  10.2522   C.2       1 RES1   0.0000
    27 C20      7.9346   6.9528   6.1869   C.2       1 RES1   0.0000
    28 C21     11.7840   4.0208   2.5893   C.ar      1 RES1   0.0000
    29 C22     12.6673   4.7880   1.8267   C.ar      1 RES1   0.0000
    30 C23     12.9368   4.4018   0.5191   C.ar      1 RES1   0.0000
    31 C24     12.3479   3.2859  -0.0485   C.ar      1 RES1   0.0000
    32 C25     11.4896   2.5299   0.7346   C.ar      1 RES1   0.0000
    33 C26     11.1867   2.8700   2.0486   C.ar      1 RES1   0.0000
    34 C27     13.3420   6.0019   2.4129   C.3       1 RES1   0.0000
    35 C28     12.6509   2.9074  -1.4804   C.3       1 RES1   0.0000
    36 C29     10.2707   2.0115   2.8794   C.3       1 RES1   0.0000
    37 C30     14.5308   2.8538   8.9256   C.ar      1 RES1   0.0000
    38 C31     15.4745   3.7390   9.4280   C.ar      1 RES1   0.0000
    39 C32     16.6515   3.2372   9.9739   C.ar      1 RES1   0.0000
    40 C33     16.9136   1.8739  10.0184   C.ar      1 RES1   0.0000
    41 C34     15.9630   1.0145   9.4980   C.ar      1 RES1   0.0000
    42 C35     14.7726   1.4682   8.9433   C.ar      1 RES1   0.0000
    43 C36     15.2490   5.2349   9.3743   C.3       1 RES1   0.0000
    44 C37     18.2021   1.3413  10.5974   C.3       1 RES1   0.0000
    45 C38     13.7826   0.4998   8.3610   C.3       1 RES1   0.0000
    46 C39      8.2081   4.2941  11.5680   C.ar      1 RES1   0.0000
    47 C40      8.2205   5.3411  12.5028   C.ar      1 RES1   0.0000
    48 C41      7.5386   5.1692  13.6909   C.ar      1 RES1   0.0000
    49 C42      6.8864   3.9965  14.0082   C.ar      1 RES1   0.0000
    50 C43      6.8977   2.9635  13.0858   C.ar      1 RES1   0.0000
    51 C44      7.5377   3.1072  11.8587   C.ar      1 RES1   0.0000
    52 C45      8.9920   6.6022  12.2521   C.3       1 RES1   0.0000
    53 C46      6.1748   3.8425  15.3324   C.3       1 RES1   0.0000
    54 C47      7.5214   1.9604  10.8833   C.3       1 RES1   0.0000
    55 C48      6.9038   7.9348   5.7603   C.ar      1 RES1   0.0000
    56 C49      7.1335   9.3027   5.9335   C.ar      1 RES1   0.0000
    57 C50      6.1977  10.2171   5.4622   C.ar      1 RES1   0.0000
    58 C51      5.0281   9.8021   4.8469   C.ar      1 RES1   0.0000
    59 C52      4.7884   8.4551   4.7412   C.ar      1 RES1   0.0000
    60 C53      5.6991   7.4974   5.1781   C.ar      1 RES1   0.0000
    61 C54      8.3841   9.7883   6.6310   C.3       1 RES1   0.0000
    62 C55      4.0522  10.8235   4.3166   C.3       1 RES1   0.0000
    63 C56      5.4030   6.0410   5.0273   C.3       1 RES1   0.0000
    64 C57     10.0459   1.9606   6.8657   C.ar      1 RES1   0.0000
    65 C58      9.4681   0.7681   6.4508   C.ar      1 RES1   0.0000
    66 C59      8.2028   0.8399   5.8926   C.ar      1 RES1   0.0000
    67 C60      7.5767   2.0692   5.7831   C.ar      1 RES1   0.0000
    68 C61      8.2117   3.2005   6.2154   C.ar      1 RES1   0.0000
    69 C62     10.2291  -0.5158   6.5974   C.3       1 RES1   0.0000
    70 C63      9.5674  -1.7142   5.9743   C.3       1 RES1   0.0000
    71 C64     11.2853   7.0367   8.9242   C.ar      1 RES1   0.0000
    72 C65     11.9931   8.1495   9.3473   C.ar      1 RES1   0.0000
    73 C66     12.7985   8.7856   8.4149   C.ar      1 RES1   0.0000
    74 C67     12.8867   8.2803   7.1405   C.ar      1 RES1   0.0000
    75 C68     12.1606   7.1505   6.7972   C.ar      1 RES1   0.0000
    76 C69     11.9038   8.5772  10.7846   C.3       1 RES1   0.0000
    77 C70     12.6795   7.6086  11.6946   C.3       1 RES1   0.0000
    78 H1       8.0331   7.2023   3.3896   H         1 RES1   0.0000
    79 H2       9.6687   5.7321   2.2684   H         1 RES1   0.0000
    80 H3      13.9485   3.1391   3.9822   H         1 RES1   0.0000
    81 H4      14.9722   2.8377   6.2266   H         1 RES1   0.0000
    82 H5      12.9486   2.8202  11.1057   H         1 RES1   0.0000
    83 H6      10.6796   3.2003  12.0147   H         1 RES1   0.0000
    84 H7       6.5140   5.9506  10.2889   H         1 RES1   0.0000
    85 H8       6.1451   7.3858   8.3028   H         1 RES1   0.0000
    86 H9      13.5421   4.9195   0.0000   H         1 RES1   0.0000
    87 H10     11.0930   1.7520   0.3604   H         1 RES1   0.0000
    88 H11     13.9051   6.3984   1.7579   H         1 RES1   0.0000
    89 H12     13.8658   5.7431   3.1633   H         1 RES1   0.0000
    90 H13     12.6860   6.6300   2.6868   H         1 RES1   0.0000
    91 H14     12.1655   2.1233  -1.7078   H         1 RES1   0.0000
    92 H15     13.5809   2.7459  -1.5757   H         1 RES1   0.0000
    93 H16     12.3914   3.6175  -2.0562   H         1 RES1   0.0000
    94 H17      9.9602   1.2823   2.3565   H         1 RES1   0.0000
    95 H18      9.5311   2.5297   3.1714   H         1 RES1   0.0000
    96 H19     10.7453   1.6821   3.6338   H         1 RES1   0.0000
    97 H20     16.1292   0.0786   9.5221   H         1 RES1   0.0000
    98 H21     17.2937   3.8425  10.3289   H         1 RES1   0.0000
    99 H22     15.9926   5.6819   9.7603   H         1 RES1   0.0000
   100 H23     14.4615   5.4525   9.8604   H         1 RES1   0.0000
   101 H24     15.1493   5.5071   8.4710   H         1 RES1   0.0000
   102 H25     18.7339   2.0644  10.9055   H         1 RES1   0.0000
   103 H26     18.6775   0.8629   9.9265   H         1 RES1   0.0000
   104 H27     18.0081   0.7602  11.3220   H         1 RES1   0.0000
   105 H28     14.1096  -0.3867   8.4609   H         1 RES1   0.0000
   106 H29     13.6591   0.6903   7.4399   H         1 RES1   0.0000
   107 H30     12.9527   0.5854   8.8153   H         1 RES1   0.0000
   108 H31      7.5182   5.8872  14.3151   H         1 RES1   0.0000
   109 H32      6.4630   2.1452  13.2940   H         1 RES1   0.0000
   110 H33      8.8832   7.1914  12.9897   H         1 RES1   0.0000
   111 H34      8.6678   7.0188  11.4621   H         1 RES1   0.0000
   112 H35      9.9122   6.3940  12.1448   H         1 RES1   0.0000
   113 H36      5.7842   2.9775  15.3823   H         1 RES1   0.0000
   114 H37      5.4957   4.5023  15.4043   H         1 RES1   0.0000
   115 H38      6.7988   3.9496  16.0410   H         1 RES1   0.0000
   116 H39      7.0184   1.2430  11.2499   H         1 RES1   0.0000
   117 H40      8.4106   1.6733  10.7173   H         1 RES1   0.0000
   118 H41      7.1215   2.2435  10.0706   H         1 RES1   0.0000
   119 H42      6.3622  11.1475   5.5659   H         1 RES1   0.0000
   120 H43      3.9689   8.1657   4.3566   H         1 RES1   0.0000
   121 H44      8.3798  10.7368   6.6610   H         1 RES1   0.0000
   122 H45      9.1487   9.4895   6.1545   H         1 RES1   0.0000
   123 H46      8.4072   9.4436   7.5159   H         1 RES1   0.0000
   124 H47      3.3106  10.3786   3.9282   H         1 RES1   0.0000
   125 H48      4.4844  11.3572   3.6579   H         1 RES1   0.0000
   126 H49      3.7562  11.3769   5.0293   H         1 RES1   0.0000
   127 H50      4.5538   5.9331   4.6169   H         1 RES1   0.0000
   128 H51      5.3987   5.6295   5.8822   H         1 RES1   0.0000
   129 H52      6.0715   5.6382   4.4847   H         1 RES1   0.0000
   130 H53     10.9081   1.9267   7.2637   H         1 RES1   0.0000
   131 H54      7.7670   0.0524   5.5879   H         1 RES1   0.0000
   132 H55      6.7056   2.1277   5.4077   H         1 RES1   0.0000
   133 H56      7.7672   4.0370   6.1445   H         1 RES1   0.0000
   134 H57     10.3394  -0.6903   7.5240   H         1 RES1   0.0000
   135 H58     11.0800  -0.4041   6.1905   H         1 RES1   0.0000
   136 H59     10.1096  -2.4816   6.1105   H         1 RES1   0.0000
   137 H60      9.4564  -1.5663   5.0433   H         1 RES1   0.0000
   138 H61      8.7173  -1.8503   6.3767   H         1 RES1   0.0000
   139 H62     10.7029   6.6125   9.5461   H         1 RES1   0.0000
   140 H63     13.2860   9.5659   8.6551   H         1 RES1   0.0000
   141 H64     13.4415   8.7052   6.4969   H         1 RES1   0.0000
   142 H65     12.2225   6.8113   5.9102   H         1 RES1   0.0000
   143 H66     10.9913   8.5895  11.0477   H         1 RES1   0.0000
   144 H67     12.2710   9.4480  10.8715   H         1 RES1   0.0000
   145 H68     12.6085   7.8992  12.5973   H         1 RES1   0.0000
   146 H69     13.5922   7.5955  11.4381   H         1 RES1   0.0000
   147 H70     12.3140   6.7370  11.6143   H         1 RES1   0.0000
   148 Cl1     21.3606  -0.2545  16.1419   Cl        2 RES2   0.0000
   149 O1      20.0856  -0.1499  16.7809   O.2       2 RES2   0.0000
   150 O2      22.3374   0.5662  16.7673   O.2       2 RES2   0.0000
   151 O3      21.2230   0.1477  14.7648   O.2       2 RES2   0.0000
   152 O4      21.7997  -1.6113  16.1755   O.3       2 RES2  -1.0000
   153 Cl2      2.6533   3.6621   6.5657   Cl        3 RES3   0.0000
   154 Cl3      5.0643   3.3307   8.1024   Cl        3 RES3   0.0000
   155 C71      3.8504   2.4947   7.0995   C.3       3 RES3   0.0000
   156 Cl4     -5.4311   8.9014  -8.2397   Cl        4 RES4   0.0000
   157 Cl5     -3.2631  10.0701  -9.7163   Cl        4 RES4   0.0000
   158 C72     -4.0483   9.9788  -8.1446   C.3       4 RES4   0.0000
@<TRIPOS>BOND
     1     1     2    1
     2     2     8    1
     3     3     1    1
     4     4     1    1
     5     5     1    1
     6     6     1    1
     7     7     1    1
     8     8    16    1
     9     9     2    1
    10    10     3    2
    11    11     3    1
    12    12     4    1
    13    13     4    1
    14    14     5    1
    15    15     5    2
    16    16    17    2
    17    17     9    1
    18    18    10    1
    19    19    11    1
    20    20    12    2
    21    21    13    2
    22    22    14    1
    23    23    15    1
    24    24     9    2
    25    25    11    2
    26    26    13    1
    27    27     8    2
    28    28    24    1
    29    29    28   ar
    30    30    29   ar
    31    31    30   ar
    32    32    31   ar
    33    33    28   ar
    34    34    29    1
    35    35    31    1
    36    36    33    1
    37    37    25    1
    38    38    37   ar
    39    39    38   ar
    40    40    39   ar
    41    41    40   ar
    42    42    37   ar
    43    43    38    1
    44    44    40    1
    45    45    42    1
    46    46    26    1
    47    47    46   ar
    48    48    47   ar
    49    49    48   ar
    50    50    49   ar
    51    51    46   ar
    52    52    47    1
    53    53    49    1
    54    54    51    1
    55    55    27    1
    56    56    55   ar
    57    57    56   ar
    58    58    57   ar
    59    59    58   ar
    60    60    55   ar
    61    61    56    1
    62    62    58    1
    63    63    60    1
    64    64     6   ar
    65    65    64   ar
    66    66    65   ar
    67    67    66   ar
    68    68     6   ar
    69    69    65    1
    70    70    69    1
    71    71     7   ar
    72    72    71   ar
    73    73    72   ar
    74    74    73   ar
    75    75     7   ar
    76    76    72    1
    77    77    76    1
    78    78    16    1
    79    79    17    1
    80    80    18    1
    81    81    19    1
    82    82    20    1
    83    83    21    1
    84    84    22    1
    85    85    23    1
    86    86    30    1
    87    87    32    1
    88    88    34    1
    89    89    34    1
    90    90    34    1
    91    91    35    1
    92    92    35    1
    93    93    35    1
    94    94    36    1
    95    95    36    1
    96    96    36    1
    97    97    41    1
    98    98    39    1
    99    99    43    1
   100   100    43    1
   101   101    43    1
   102   102    44    1
   103   103    44    1
   104   104    44    1
   105   105    45    1
   106   106    45    1
   107   107    45    1
   108   108    48    1
   109   109    50    1
   110   110    52    1
   111   111    52    1
   112   112    52    1
   113   113    53    1
   114   114    53    1
   115   115    53    1
   116   116    54    1
   117   117    54    1
   118   118    54    1
   119   119    57    1
   120   120    59    1
   121   121    61    1
   122   122    61    1
   123   123    61    1
   124   124    62    1
   125   125    62    1
   126   126    62    1
   127   127    63    1
   128   128    63    1
   129   129    63    1
   130   130    64    1
   131   131    66    1
   132   132    67    1
   133   133    68    1
   134   134    69    1
   135   135    69    1
   136   136    70    1
   137   137    70    1
   138   138    70    1
   139   139    71    1
   140   140    73    1
   141   141    74    1
   142   142    75    1
   143   143    76    1
   144   144    76    1
   145   145    77    1
   146   146    77    1
   147   147    77    1
   148    10    24    1
   149    12    25    1
   150    14    26    2
   151    15    27    1
   152    18    19    2
   153    20    21    1
   154    22    23    2
   155    32    33   ar
   156    41    42   ar
   157    50    51   ar
   158    59    60   ar
   159    67    68   ar
   160    74    75   ar
   161   148   149    2
   162   150   148    2
   163   151   148    2
   164   152   148    1
   165   153   155    1
   166   154   155    1
   167   156   158    1
   168   157   158    1
@<TRIPOS>SUBSTRUCTURE
     1 RES1        1 GROUP             0 ****  ****    0  
     2 RES2      148 GROUP             0 ****  ****    0  
     3 RES3      153 GROUP             0 ****  ****    0  
     4 RES4      156 GROUP             0 ****  ****    0  
@<TRIPOS>CRYSIN
   15.1190   21.8450   20.3890   90.0000  100.9000   90.0000   231     1
