@<TRIPOS>MOLECULE
PALVON
   152   162     4     0     0
SMALL
USER_CHARGES
****
Generated from the CSD

@<TRIPOS>ATOM
     1 Fe1      0.7631   4.7452  12.2047   Fe        1 RES1   1.0000
     2 N1       1.2963   5.5541  13.9031   N.2       1 RES1   0.0000
     3 N2      -0.9106   4.1477  13.0584   N.2       1 RES1   0.0000
     4 N3       0.2167   3.9427  10.5026   N.2       1 RES1   0.0000
     5 N4       2.4403   5.3278  11.3817   N.2       1 RES1   0.0000
     6 N5       1.5630   2.9744  12.7621   N.ar      1 RES1   0.0000
     7 N6      -0.1312   6.4245  11.5830   N.ar      1 RES1   0.0000
     8 C1       2.3342   6.4112  14.1101   C.2       1 RES1   0.0000
     9 C2       0.7646   5.2859  15.1501   C.2       1 RES1   0.0000
    10 C3      -1.1769   4.0548  14.4045   C.2       1 RES1   0.0000
    11 C4      -2.0182   3.6487  12.4227   C.2       1 RES1   0.0000
    12 C5      -1.0309   3.4964  10.1877   C.2       1 RES1   0.0000
    13 C6       0.9792   3.7777   9.3577   C.2       1 RES1   0.0000
    14 C7       2.9520   4.9623  10.1426   C.2       1 RES1   0.0000
    15 C8       3.3538   6.2229  11.9007   C.2       1 RES1   0.0000
    16 C9       2.4284   6.7602  15.4994   C.2       1 RES1   0.0000
    17 C10      1.4677   6.0283  16.1273   C.2       1 RES1   0.0000
    18 C11     -2.4731   3.4732  14.6066   C.2       1 RES1   0.0000
    19 C12     -3.0148   3.2616  13.3920   C.2       1 RES1   0.0000
    20 C13     -1.0923   3.0861   8.8044   C.2       1 RES1   0.0000
    21 C14      0.1631   3.2595   8.3001   C.2       1 RES1   0.0000
    22 C15      4.1971   5.6328   9.9169   C.2       1 RES1   0.0000
    23 C16      4.4249   6.4323  10.9785   C.2       1 RES1   0.0000
    24 C17     -0.3494   4.5286  15.4091   C.2       1 RES1   0.0000
    25 C18     -2.1377   3.3632  11.0530   C.2       1 RES1   0.0000
    26 C19      2.2920   4.2304   9.1988   C.2       1 RES1   0.0000
    27 C20      3.3122   6.8046  13.1742   C.2       1 RES1   0.0000
    28 C21     -0.6631   4.1373  16.8435   C.ar      1 RES1   0.0000
    29 C22     -1.5889   4.8523  17.6068   C.ar      1 RES1   0.0000
    30 C23     -1.8019   4.4229  18.9234   C.ar      1 RES1   0.0000
    31 C24     -1.1723   3.3251  19.4512   C.ar      1 RES1   0.0000
    32 C25     -0.2810   2.6313  18.6742   C.ar      1 RES1   0.0000
    33 C26      0.0204   3.0522  17.3635   C.ar      1 RES1   0.0000
    34 C27     -2.3450   6.0051  17.0632   C.3       1 RES1   0.0000
    35 C28     -1.4677   2.8830  20.8699   C.3       1 RES1   0.0000
    36 C29      1.0751   2.3077  16.5707   C.3       1 RES1   0.0000
    37 C30     -3.3982   2.7921  10.5429   C.ar      1 RES1   0.0000
    38 C31     -4.3374   3.6381   9.9797   C.ar      1 RES1   0.0000
    39 C32     -5.4978   3.0607   9.4617   C.ar      1 RES1   0.0000
    40 C33     -5.7284   1.7281   9.4990   C.ar      1 RES1   0.0000
    41 C34     -4.7802   0.8947  10.0719   C.ar      1 RES1   0.0000
    42 C35     -3.6061   1.4278  10.6155   C.ar      1 RES1   0.0000
    43 C36     -4.1098   5.1188   9.9503   C.3       1 RES1   0.0000
    44 C37     -7.0266   1.1676   8.9672   C.3       1 RES1   0.0000
    45 C38     -2.6365   0.5119  11.2885   C.3       1 RES1   0.0000
    46 C39      2.9598   4.0189   7.8586   C.ar      1 RES1   0.0000
    47 C40      2.9039   5.0596   6.9344   C.ar      1 RES1   0.0000
    48 C41      3.5833   4.8882   5.7139   C.ar      1 RES1   0.0000
    49 C42      4.2836   3.7608   5.4157   C.ar      1 RES1   0.0000
    50 C43      4.3234   2.7455   6.3438   C.ar      1 RES1   0.0000
    51 C44      3.6750   2.8788   7.5800   C.ar      1 RES1   0.0000
    52 C45      2.1152   6.3223   7.1856   C.3       1 RES1   0.0000
    53 C46      5.0198   3.6551   4.0971   C.3       1 RES1   0.0000
    54 C47      3.7659   1.7323   8.5650   C.3       1 RES1   0.0000
    55 C48      4.3688   7.7480  13.6039   C.ar      1 RES1   0.0000
    56 C49      4.1176   9.1165  13.5862   C.ar      1 RES1   0.0000
    57 C50      5.0982   9.9584  14.0513   C.ar      1 RES1   0.0000
    58 C51      6.3052   9.4972  14.5595   C.ar      1 RES1   0.0000
    59 C52      6.5313   8.1626  14.5458   C.ar      1 RES1   0.0000
    60 C53      5.5848   7.2594  14.0886   C.ar      1 RES1   0.0000
    61 C54      2.8187   9.6665  13.0996   C.3       1 RES1   0.0000
    62 C55      7.3441  10.4512  15.1167   C.3       1 RES1   0.0000
    63 C56      5.8394   5.7935  14.1455   C.3       1 RES1   0.0000
    64 C57      0.8670   1.8677  12.5737   C.ar      1 RES1   0.0000
    65 C58      1.2769   0.6240  12.9976   C.ar      1 RES1   0.0000
    66 C59      2.5007   0.5330  13.6804   C.ar      1 RES1   0.0000
    67 C60      3.2301   1.6943  13.8629   C.ar      1 RES1   0.0000
    68 C61      2.7341   2.9042  13.3881   C.ar      1 RES1   0.0000
    69 C62      2.9577  -0.7636  14.1494   C.1       1 RES1   0.0000
    70 N7       3.2428  -1.8064  14.4731   N.1       1 RES1   0.0000
    71 C63      0.0492   6.8490  10.3172   C.ar      1 RES1   0.0000
    72 C64     -0.7474   7.8199   9.7344   C.ar      1 RES1   0.0000
    73 C65     -1.7716   8.3952  10.4958   C.ar      1 RES1   0.0000
    74 C66     -1.8684   8.0293  11.8340   C.ar      1 RES1   0.0000
    75 C67     -1.0398   7.0521  12.3285   C.ar      1 RES1   0.0000
    76 C68     -2.6776   9.3259   9.8953   C.1       1 RES1   0.0000
    77 N8      -3.4323  10.0345   9.3852   N.1       1 RES1   0.0000
    78 H1       3.0309   7.3757  15.8997   H         1 RES1   0.0000
    79 H2       1.2994   6.0135  17.0632   H         1 RES1   0.0000
    80 H3      -2.8792   3.2807  15.4444   H         1 RES1   0.0000
    81 H4      -3.8780   2.9147  13.2075   H         1 RES1   0.0000
    82 H5      -1.8542   2.7625   8.3413   H         1 RES1   0.0000
    83 H6       0.4417   3.0734   7.4092   H         1 RES1   0.0000
    84 H7       4.7597   5.5376   9.1576   H         1 RES1   0.0000
    85 H8       5.1590   7.0182  11.0942   H         1 RES1   0.0000
    86 H9      -2.4068   4.9073  19.4709   H         1 RES1   0.0000
    87 H10      0.1393   1.8571  19.0254   H         1 RES1   0.0000
    88 H11     -2.9209   6.3541  17.7363   H         1 RES1   0.0000
    89 H12     -2.8650   5.7258  16.3196   H         1 RES1   0.0000
    90 H13     -1.7386   6.6840  16.7885   H         1 RES1   0.0000
    91 H14     -0.9508   2.1110  21.0759   H         1 RES1   0.0000
    92 H15     -2.3914   2.6736  20.9523   H         1 RES1   0.0000
    93 H16     -1.2457   3.5789  21.4743   H         1 RES1   0.0000
    94 H17      1.4289   1.6012  17.0966   H         1 RES1   0.0000
    95 H18      1.7744   2.9084  16.3353   H         1 RES1   0.0000
    96 H19      0.6838   1.9523  15.7819   H         1 RES1   0.0000
    97 H20     -6.1514   3.6276   9.0712   H         1 RES1   0.0000
    98 H21     -4.9276  -0.0444  10.1014   H         1 RES1   0.0000
    99 H22     -4.8428   5.5482   9.5304   H         1 RES1   0.0000
   100 H23     -3.3119   5.3092   9.4676   H         1 RES1   0.0000
   101 H24     -4.0183   5.4424  10.8411   H         1 RES1   0.0000
   102 H25     -7.0267   0.2221   9.0673   H         1 RES1   0.0000
   103 H26     -7.1129   1.3897   8.0489   H         1 RES1   0.0000
   104 H27     -7.7512   1.5378   9.4539   H         1 RES1   0.0000
   105 H28     -2.9560  -0.3786  11.2316   H         1 RES1   0.0000
   106 H29     -2.5471   0.7615  12.1990   H         1 RES1   0.0000
   107 H30     -1.7930   0.5753  10.8588   H         1 RES1   0.0000
   108 H31      3.5502   5.5862   5.0723   H         1 RES1   0.0000
   109 H32      4.7992   1.9481   6.1495   H         1 RES1   0.0000
   110 H33      2.2040   6.9040   6.4360   H         1 RES1   0.0000
   111 H34      2.4488   6.7559   7.9606   H         1 RES1   0.0000
   112 H35      1.1992   6.1066   7.3092   H         1 RES1   0.0000
   113 H36      5.4562   2.8111   4.0480   H         1 RES1   0.0000
   114 H37      5.6667   4.3489   4.0441   H         1 RES1   0.0000
   115 H38      4.4034   3.7376   3.3828   H         1 RES1   0.0000
   116 H39      4.3011   1.0407   8.1922   H         1 RES1   0.0000
   117 H40      2.8975   1.4003   8.7475   H         1 RES1   0.0000
   118 H41      4.1661   2.0412   9.3714   H         1 RES1   0.0000
   119 H42      4.9417  10.8954  14.0218   H         1 RES1   0.0000
   120 H43      7.3708   7.8389  14.8577   H         1 RES1   0.0000
   121 H44      2.8387  10.6183  13.1663   H         1 RES1   0.0000
   122 H45      2.1080   9.3301  13.6274   H         1 RES1   0.0000
   123 H46      2.6873   9.4211  12.1911   H         1 RES1   0.0000
   124 H47      8.0994   9.9584  15.4170   H         1 RES1   0.0000
   125 H48      6.9755  10.9377  15.8447   H         1 RES1   0.0000
   126 H49      7.6145  11.0583  14.4359   H         1 RES1   0.0000
   127 H50      6.7063   5.6349  14.5006   H         1 RES1   0.0000
   128 H51      5.7801   5.4255  13.2723   H         1 RES1   0.0000
   129 H52      5.1904   5.3790  14.7067   H         1 RES1   0.0000
   130 H53      0.0297   1.9333  12.1264   H         1 RES1   0.0000
   131 H54      0.7516  -0.1481  12.8288   H         1 RES1   0.0000
   132 H55      4.0675   1.6647  14.3103   H         1 RES1   0.0000
   133 H56      3.2428   3.6953  13.5136   H         1 RES1   0.0000
   134 H57      0.7516   6.4641   9.8012   H         1 RES1   0.0000
   135 H58     -0.6046   8.0864   8.8358   H         1 RES1   0.0000
   136 H59     -2.5058   8.4502  12.3991   H         1 RES1   0.0000
   137 H60     -1.1165   6.8131  13.2448   H         1 RES1   0.0000
   138 C69      7.2767   2.3606  12.6738   C.3       2 RES2   0.0000
   139 Cl1      5.9784   2.7161  11.6154   Cl        2 RES2   0.0000
   140 Cl2      8.5737   3.4639  12.5949   Cl        2 RES2   0.0000
   141 H61      7.6821   1.4679  12.5345   H         2 RES2   0.0000
   142 H62      7.0169   2.3352  13.6373   H         2 RES2   0.0000
   143 C70     10.1334   0.8609  17.9090   C.3       3 RES3   0.0000
   144 Cl3     11.2636   2.1613  17.6831   Cl        3 RES3   0.0000
   145 Cl4      9.7154   0.7105  19.5637   Cl        3 RES3   0.0000
   146 H63     10.5040   0.0254  17.5754   H         3 RES3   0.0000
   147 H64      9.3275   1.0174  17.3752   H         3 RES3   0.0000
   148 Cl5     -5.4475   0.6671  -3.6230   Cl        4 RES4   0.0000
   149 O1      -5.2502  -0.3680  -2.8118   O.2       4 RES4   0.0000
   150 O2      -5.8408   0.1417  -4.9055   O.2       4 RES4   0.0000
   151 O3      -4.2071   1.2310  -3.7988   O.2       4 RES4   0.0000
   152 O4      -6.3409   1.5208  -3.3063   O.3       4 RES4  -1.0000
@<TRIPOS>BOND
     1     1     2    1
     2     2     8    1
     3     3     1    1
     4     4     1    1
     5     5     1    1
     6     6     1    1
     7     7     1    1
     8     8    16    1
     9     9     2    1
    10    10     3    2
    11    11     3    1
    12    12     4    1
    13    13     4    1
    14    14     5    1
    15    15     5    2
    16    16    17    2
    17    17     9    1
    18    18    10    1
    19    19    11    1
    20    20    12    2
    21    21    13    2
    22    22    14    1
    23    23    15    1
    24    24     9    2
    25    25    11    2
    26    26    13    1
    27    27     8    2
    28    28    24    1
    29    29    28   ar
    30    30    29   ar
    31    31    30   ar
    32    32    31   ar
    33    33    28   ar
    34    34    29    1
    35    35    31    1
    36    36    33    1
    37    37    25    1
    38    38    37   ar
    39    39    38   ar
    40    40    39   ar
    41    41    40   ar
    42    42    37   ar
    43    43    38    1
    44    44    40    1
    45    45    42    1
    46    46    26    1
    47    47    46   ar
    48    48    47   ar
    49    49    48   ar
    50    50    49   ar
    51    51    46   ar
    52    52    47    1
    53    53    49    1
    54    54    51    1
    55    55    27    1
    56    56    55   ar
    57    57    56   ar
    58    58    57   ar
    59    59    58   ar
    60    60    55   ar
    61    61    56    1
    62    62    58    1
    63    63    60    1
    64    64     6   ar
    65    65    64   ar
    66    66    65   ar
    67    67    66   ar
    68    68     6   ar
    69    69    66    1
    70    70    69    3
    71    71     7   ar
    72    72    71   ar
    73    73    72   ar
    74    74    73   ar
    75    75     7   ar
    76    76    73    1
    77    77    76    3
    78    78    16    1
    79    79    17    1
    80    80    18    1
    81    81    19    1
    82    82    20    1
    83    83    21    1
    84    84    22    1
    85    85    23    1
    86    86    30    1
    87    87    32    1
    88    88    34    1
    89    89    34    1
    90    90    34    1
    91    91    35    1
    92    92    35    1
    93    93    35    1
    94    94    36    1
    95    95    36    1
    96    96    36    1
    97    97    39    1
    98    98    41    1
    99    99    43    1
   100   100    43    1
   101   101    43    1
   102   102    44    1
   103   103    44    1
   104   104    44    1
   105   105    45    1
   106   106    45    1
   107   107    45    1
   108   108    48    1
   109   109    50    1
   110   110    52    1
   111   111    52    1
   112   112    52    1
   113   113    53    1
   114   114    53    1
   115   115    53    1
   116   116    54    1
   117   117    54    1
   118   118    54    1
   119   119    57    1
   120   120    59    1
   121   121    61    1
   122   122    61    1
   123   123    61    1
   124   124    62    1
   125   125    62    1
   126   126    62    1
   127   127    63    1
   128   128    63    1
   129   129    63    1
   130   130    64    1
   131   131    65    1
   132   132    67    1
   133   133    68    1
   134   134    71    1
   135   135    72    1
   136   136    74    1
   137   137    75    1
   138    10    24    1
   139    12    25    1
   140    14    26    2
   141    15    27    1
   142    18    19    2
   143    20    21    1
   144    22    23    2
   145    32    33   ar
   146    41    42   ar
   147    50    51   ar
   148    59    60   ar
   149    67    68   ar
   150    74    75   ar
   151   138   139    1
   152   140   138    1
   153   141   138    1
   154   142   138    1
   155   143   144    1
   156   145   143    1
   157   146   143    1
   158   147   143    1
   159   148   149    2
   160   150   148    2
   161   151   148    2
   162   152   148    1
@<TRIPOS>SUBSTRUCTURE
     1 RES1        1 GROUP             0 ****  ****    0  
     2 RES2      138 GROUP             0 ****  ****    0  
     3 RES3      143 GROUP             0 ****  ****    0  
     4 RES4      148 GROUP             0 ****  ****    0  
@<TRIPOS>CRYSIN
   15.4230   21.1520   19.9600   90.0000  100.5600   90.0000   231     1
