@<TRIPOS>MOLECULE
PALYEJ
   206   223     8     0     0
SMALL
USER_CHARGES
****
Generated from the CSD

@<TRIPOS>ATOM
     1 C1      15.4921   4.0990  -6.8657   C.3       1 RES1   0.0000
     2 H1      15.2678   3.8403  -7.7843   H         1 RES1   0.0000
     3 C2      14.8530   5.3814  -6.5865   C.3       1 RES1   0.0000
     4 H2      15.1744   5.9987  -7.2770   H         1 RES1   0.0000
     5 C3      14.8256   3.5451  -4.1999   C.2       1 RES1   0.0000
     6 C4      14.9073   4.8417  -3.8816   C.2       1 RES1   0.0000
     7 C5      14.1447   3.6559  -1.6872   C.2       1 RES1   0.0000
     8 C6      13.4344   3.3697  -0.5884   C.2       1 RES1   0.0000
     9 C7      11.9279   2.2076   1.1438   C.2       1 RES1   0.0000
    10 C8      11.9619   3.4855   1.5401   C.2       1 RES1   0.0000
    11 C9      10.8595   1.4853   3.5904   C.3       1 RES1   0.0000
    12 H3      11.7671   1.4918   3.9597   H         1 RES1   0.0000
    13 C10     10.3967   2.8229   3.7526   C.3       1 RES1   0.0000
    14 H4       9.5007   2.8284   3.3563   H         1 RES1   0.0000
    15 C11     17.1036   4.2978  -6.7756   C.3       1 RES1   0.0000
    16 H5      17.5386   3.4608  -6.9527   H         1 RES1   0.0000
    17 H6      17.3391   4.6031  -5.8990   H         1 RES1   0.0000
    18 H7      17.3817   4.9457  -7.4271   H         1 RES1   0.0000
    19 C12     13.3299   5.2358  -6.8237   C.3       1 RES1   0.0000
    20 H8      12.8954   6.0739  -6.6495   H         1 RES1   0.0000
    21 H9      12.9765   4.5648  -6.2323   H         1 RES1   0.0000
    22 H10     13.1692   4.9764  -7.7333   H         1 RES1   0.0000
    23 C13     10.1448   0.3850   4.3500   C.3       1 RES1   0.0000
    24 H11     10.5605  -0.4581   4.1578   H         1 RES1   0.0000
    25 H12      9.2244   0.3591   4.0858   H         1 RES1   0.0000
    26 H13     10.2009   0.5606   5.2926   H         1 RES1   0.0000
    27 C14     10.1802   3.2532   5.2086   C.3       1 RES1   0.0000
    28 H14      9.8565   4.1567   5.2296   H         1 RES1   0.0000
    29 H15     11.0120   3.1989   5.6859   H         1 RES1   0.0000
    30 H16      9.5367   2.6723   5.6198   H         1 RES1   0.0000
    31 S1      14.9527   2.7621  -5.7555   S.3       1 RES1   0.0000
    32 S2      15.2479   6.1835  -4.9582   S.3       1 RES1   0.0000
    33 S3      14.5484   2.4046  -2.8760   S.3       1 RES1   0.0000
    34 S4      14.7010   5.2507  -2.1693   S.3       1 RES1   0.0000
    35 S5      12.9252   1.7298  -0.2303   S.3       1 RES1   0.0000
    36 S6      13.0366   4.5597   0.6337   S.3       1 RES1   0.0000
    37 S7      11.0615   0.8779   1.8952   S.3       1 RES1   0.0000
    38 S8      11.2550   4.1797   2.9657   S.3       1 RES1   0.0000
    39 C15     18.3388  11.6215  26.9194   C.3       2 RES2   0.0000
    40 H17     17.5081  11.9281  26.4991   H         2 RES2   0.0000
    41 C16     18.8337  12.7818  27.5738   C.3       2 RES2   0.0000
    42 H18     19.6257  12.4363  28.0361   H         2 RES2   0.0000
    43 C17     17.1634  10.9300  29.3720   C.2       2 RES2   0.0000
    44 C18     17.2227  12.2472  29.7323   C.2       2 RES2   0.0000
    45 C19     15.9318  11.0174  31.6386   C.2       2 RES2   0.0000
    46 C20     15.3171  10.7488  32.8094   C.2       2 RES2   0.0000
    47 C21     14.0935   9.5804  34.7787   C.2       2 RES2   0.0000
    48 C22     14.1618  10.8938  35.1210   C.2       2 RES2   0.0000
    49 C23     13.9082   8.9039  37.4115   C.3       2 RES2   0.0000
    50 H19     14.8841   8.9790  37.4175   H         2 RES2   0.0000
    51 C24     13.4113  10.1805  37.7898   C.3       2 RES2   0.0000
    52 H20     12.4420  10.0401  37.8108   H         2 RES2   0.0000
    53 C25     19.1357  11.0573  25.7606   C.3       2 RES2   0.0000
    54 H21     18.6943  10.2747  25.4183   H         2 RES2   0.0000
    55 H22     20.0162  10.8222  26.0608   H         2 RES2   0.0000
    56 H23     19.2004  11.7160  25.0641   H         2 RES2   0.0000
    57 C26     19.4154  13.9146  26.7362   C.3       2 RES2   0.0000
    58 H24     19.7048  14.6237  27.3156   H         2 RES2   0.0000
    59 H25     18.7443  14.2455  26.1358   H         2 RES2   0.0000
    60 H26     20.1633  13.5883  26.2319   H         2 RES2   0.0000
    61 C27     13.5610   7.7652  38.4022   C.3       2 RES2   0.0000
    62 H27     13.9324   6.9386  38.0840   H         2 RES2   0.0000
    63 H28     12.6077   7.6815  38.4742   H         2 RES2   0.0000
    64 H29     13.9295   7.9693  39.2638   H         2 RES2   0.0000
    65 C28     13.7002  10.7152  39.1617   C.3       2 RES2   0.0000
    66 H30     13.2981  11.5820  39.2578   H         2 RES2   0.0000
    67 H31     14.6495  10.7868  39.2818   H         2 RES2   0.0000
    68 H32     13.3369  10.1197  39.8192   H         2 RES2   0.0000
    69 S9      17.8170  10.2188  27.9151   S.3       2 RES2   0.0000
    70 S10     17.9369  13.5929  28.9046   S.3       2 RES2   0.0000
    71 S11     16.3398   9.8370  30.4426   S.3       2 RES2   0.0000
    72 S12     16.4513  12.6588  31.2603   S.3       2 RES2   0.0000
    73 S13     14.8334   9.1196  33.2510   S.3       2 RES2   0.0000
    74 S14     14.9440  11.9689  34.0054   S.3       2 RES2   0.0000
    75 S15     13.4599   8.2800  35.7583   S.3       2 RES2   0.0000
    76 S16     13.5942  11.5870  36.6232   S.3       2 RES2   0.0000
    77 C29     14.8142  11.0024  -7.1569   C.3       3 RES3   0.0000
    78 H33     14.6068  10.8342  -8.1025   H         3 RES3   0.0000
    79 C30     14.5252  12.2075  -6.8597   C.3       3 RES3   0.0000
    80 H34     14.8956  12.8362  -7.5141   H         3 RES3   0.0000
    81 C31     14.0333  10.1894  -4.6472   C.2       3 RES3   0.0000
    82 C32     14.0700  11.4835  -4.2539   C.2       3 RES3   0.0000
    83 C33     13.0999  10.2054  -2.2215   C.2       3 RES3   0.0000
    84 C34     12.4967   9.8512  -1.0627   C.2       3 RES3   0.0000
    85 C35     11.0728   8.6455   0.7355   C.2       3 RES3   0.0000
    86 C36     11.1165   9.9399   1.1138   C.2       3 RES3   0.0000
    87 C37      9.5856   8.0328   2.9540   C.3       3 RES3   0.0000
    88 H35     10.4197   7.8638   3.4403   H         3 RES3   0.0000
    89 C38      9.5860   9.3060   3.3383   C.3       3 RES3   0.0000
    90 H36      8.7474   9.4769   2.8610   H         3 RES3   0.0000
    91 C39      8.8768   6.9524   3.7255   C.3       3 RES3   0.0000
    92 H37      8.9767   6.1148   3.2662   H         3 RES3   0.0000
    93 H38      7.9448   7.1689   3.7976   H         3 RES3   0.0000
    94 H39      9.2590   6.8828   4.6051   H         3 RES3   0.0000
    95 C40      9.0112   9.7960   4.6141   C.3       3 RES3   0.0000
    96 H40      9.1562  10.7423   4.6862   H         3 RES3   0.0000
    97 H41      9.4339   9.3479   5.3496   H         3 RES3   0.0000
    98 H42      8.0677   9.6147   4.6292   H         3 RES3   0.0000
    99 S17     14.4823   9.5251  -6.1896   S.3       3 RES3   1.0000
   100 S18     14.5768  12.8813  -5.1857   S.3       3 RES3   0.0000
   101 S19     13.4611   9.0127  -3.4662   S.3       3 RES3   0.0000
   102 S20     13.5090  11.8462  -2.6286   S.3       3 RES3   0.0000
   103 S21     12.0237   8.2131  -0.6860   S.3       3 RES3   0.0000
   104 S22     12.1114  11.0311   0.1738   S.3       3 RES3   0.0000
   105 S23     10.2535   7.3201   1.4833   S.3       3 RES3   0.0000
   106 S24     10.3867  10.6669   2.5166   S.3       3 RES3   0.0000
   107 C41     16.5757  11.4361  -6.9678   C.3       3 RES3   0.0000
   108 H43     17.1160  10.6626  -7.1419   H         3 RES3   0.0000
   109 H44     16.7351  11.7415  -6.0701   H         3 RES3   0.0000
   110 H45     16.8034  12.1329  -7.5892   H         3 RES3   0.0000
   111 C42     12.7446  11.9031  -7.1569   C.3       3 RES3   0.0000
   112 H46     12.2491  12.7089  -6.9918   H         3 RES3   0.0000
   113 H47     12.4347  11.2104  -6.5685   H         3 RES3   0.0000
   114 H48     12.6135  11.6296  -8.0695   H         3 RES3   0.0000
   115 C43     10.3839  12.9336  16.8565   C.ar      4 RES4   0.0000
   116 C44      8.1576  11.6131  18.2044   C.ar      4 RES4   0.0000
   117 C45     10.8803  10.5857  18.5707   C.ar      4 RES4   0.0000
   118 C46      9.5449  10.2360  15.9739   C.ar      4 RES4   0.0000
   119 C47      9.4675  14.0095  16.6974   C.ar      4 RES4   0.0000
   120 H49      8.5718  13.9090  16.9285   H         4 RES4   0.0000
   121 C48      7.0055  11.7427  17.4419   C.ar      4 RES4   0.0000
   122 H50      7.0392  11.6244  16.5203   H         4 RES4   0.0000
   123 C49     11.6178  11.3604  19.4202   C.ar      4 RES4   0.0000
   124 H51     11.5769  12.2876  19.3632   H         4 RES4   0.0000
   125 C50      8.5553   9.2656  15.9739   C.ar      4 RES4   0.0000
   126 H52      7.9974   9.1723  16.7124   H         4 RES4   0.0000
   127 C51      9.9360  15.2012  16.1960   C.ar      4 RES4   0.0000
   128 H53      9.3461  15.9145  16.1060   H         4 RES4   0.0000
   129 C52      5.7889  12.0546  18.0663   C.ar      4 RES4   0.0000
   130 H54      5.0058  12.1191  17.5710   H         4 RES4   0.0000
   131 C53     12.4403  10.7485  20.3899   C.ar      4 RES4   0.0000
   132 H55     12.9520  11.2688  20.9693   H         4 RES4   0.0000
   133 C54      8.4011   8.4510  14.8962   C.ar      4 RES4   0.0000
   134 H56      7.7113   7.8290  14.8781   H         4 RES4   0.0000
   135 C55     11.2378  15.3703  15.8208   C.ar      4 RES4   0.0000
   136 H57     11.5170  16.1770  15.4515   H         4 RES4   0.0000
   137 C56      5.7782  12.2626  19.4232   C.ar      4 RES4   0.0000
   138 H58      4.9791  12.4917  19.8405   H         4 RES4   0.0000
   139 C57     12.4797   9.3899  20.4740   C.ar      4 RES4   0.0000
   140 H59     13.0300   8.9866  21.1074   H         4 RES4   0.0000
   141 C58      9.2857   8.5533  13.8124   C.ar      4 RES4   0.0000
   142 H60      9.1925   7.9798  13.0859   H         4 RES4   0.0000
   143 C59     12.1640  14.3059  16.0009   C.ar      4 RES4   0.0000
   144 H61     13.0602  14.4184  15.7788   H         4 RES4   0.0000
   145 C60      6.9127  12.1413  20.1768   C.ar      4 RES4   0.0000
   146 H62      6.8822  12.2797  21.0954   H         4 RES4   0.0000
   147 C61     11.7250   8.6053  19.6454   C.ar      4 RES4   0.0000
   148 H63     11.7559   7.6802  19.7325   H         4 RES4   0.0000
   149 C62     10.2848   9.4860  13.8154   C.ar      4 RES4   0.0000
   150 H64     10.8693   9.5374  13.0949   H         4 RES4   0.0000
   151 C63     11.7183  13.1111  16.5113   C.ar      4 RES4   0.0000
   152 H65     12.3162  12.4083  16.6253   H         4 RES4   0.0000
   153 C64      8.1150  11.8091  19.5523   C.ar      4 RES4   0.0000
   154 H66      8.8906  11.7214  20.0597   H         4 RES4   0.0000
   155 C65     10.9088   9.1783  18.6637   C.ar      4 RES4   0.0000
   156 H67     10.3992   8.6485  18.0933   H         4 RES4   0.0000
   157 C66     10.4306  10.3514  14.8781   C.ar      4 RES4   0.0000
   158 H68     11.0977  10.9986  14.8751   H         4 RES4   0.0000
   159 P1       9.7535  11.3431  17.3852   P.3       4 RES4   1.0000
   160 C67     15.1242   8.6488  18.2254   C.2       5 RES5   0.0000
   161 C68     13.2042   4.7357  19.5643   C.2       5 RES5   0.0000
   162 C69     18.3186   5.0868  18.5256   C.2       5 RES5   0.0000
   163 C70     15.9307   8.7205  19.4983   C.2       5 RES5   0.0000
   164 C71     13.6704   4.1237  18.2464   C.2       5 RES5   0.0000
   165 C72     17.7539   4.1822  19.6034   C.2       5 RES5   0.0000
   166 C73     16.3296   9.9430  19.9726   C.2       5 RES5   0.0000
   167 C74     12.8874   3.1460  17.6490   C.2       5 RES5   0.0000
   168 C75     18.4763   3.0735  20.0026   C.2       5 RES5   0.0000
   169 C76     15.8668  11.1478  19.3692   C.2       5 RES5   0.0000
   170 C77     11.6367   2.7164  18.1954   C.2       5 RES5   0.0000
   171 C78     19.7280   2.7696  19.4383   C.2       5 RES5   0.0000
   172 C79     15.0058  11.0486  18.1023   C.2       5 RES5   0.0000
   173 C80     11.2131   3.2865  19.5854   C.2       5 RES5   0.0000
   174 C81     20.3878   3.8025  18.4746   C.2       5 RES5   0.0000
   175 C82     14.6580   9.7736  17.6190   C.2       5 RES5   0.0000
   176 C83     12.0567   4.3225  20.1467   C.2       5 RES5   0.0000
   177 C84     19.6072   4.9555  18.1294   C.2       5 RES5   0.0000
   178 Cl1     17.3380  10.0496  21.3833   Cl        5 RES5   0.0000
   179 Cl2     13.4034   2.4585  16.1414   Cl        5 RES5   0.0000
   180 Cl3     17.7774   1.9859  21.1797   Cl        5 RES5   0.0000
   181 Cl4     13.6847   9.6609  16.1846   Cl        5 RES5   0.0000
   182 Cl5     11.5769   4.9686  21.7015   Cl        5 RES5   0.0000
   183 Cl6     20.3294   6.1175  17.0558   Cl        5 RES5   0.0000
   184 Fe1     15.6667   5.9666  18.9444   Fe        5 RES5   0.0000
   185 K1      15.2195  14.1323  18.6700   K         5 RES5   0.0000
   186 O1      14.9088   7.4349  17.8021   O.3       5 RES5   0.0000
   187 O2      13.9997   5.6370  20.0297   O.3       5 RES5  -1.0000
   188 O3      17.4833   5.9646  18.0843   O.3       5 RES5   0.0000
   189 O4      16.1724   7.5816  20.0477   O.3       5 RES5   0.0000
   190 O5      14.7754   4.5941  17.7961   O.3       5 RES5   0.0000
   191 O6      16.6036   4.5356  20.0597   O.3       5 RES5  -1.0000
   192 O7      16.1042  12.2945  19.8105   O.2       5 RES5   0.0000
   193 O8      10.8791   1.9336  17.6490   O.2       5 RES5   0.0000
   194 O9      20.3858   1.7453  19.6844   O.2       5 RES5   0.0000
   195 O10     14.6407  12.1260  17.5800   O.2       5 RES5   0.0000
   196 O11     10.1898   2.8438  20.1077   O.2       5 RES5   0.0000
   197 O12     21.5004   3.5449  18.0483   O.2       5 RES5   0.0000
   198 K1       8.8693   1.4634  18.6700   K         5 RES5   0.0000
   199 K1      22.4673   1.4634  18.6700   K         5 RES5   0.0000
   200 O8      17.2293  14.6025  17.6490   O.2       5 RES5   0.0000
   201 O9      13.1380  14.4141  19.6844   O.2       5 RES5   0.0000
   202 O11     16.5400  15.5127  20.1077   O.2       5 RES5   0.0000
   203 O12     14.2526  16.2138  18.0483   O.2       5 RES5   0.0000
   204 O13     14.3885   2.6960  21.9240   O.3       6 RES6   0.0000
   205 O14      3.6429   7.3745  15.0102   O.3       7 RES7   0.0000
   206 O15     14.9031   1.1716  23.3079   O.3       8 RES8   0.0000
@<TRIPOS>BOND
     1     1     2    1
     2     3     1    1
     3     4     3    1
     4     5     6    2
     5     6    32    1
     6     7     8    2
     7     8    35    1
     8     9    10    2
     9    10    36    1
    10    11    12    1
    11    13    11    1
    12    14    13    1
    13    15     1    1
    14    16    15    1
    15    17    15    1
    16    18    15    1
    17    19     3    1
    18    20    19    1
    19    21    19    1
    20    22    19    1
    21    23    11    1
    22    24    23    1
    23    25    23    1
    24    26    23    1
    25    27    13    1
    26    28    27    1
    27    29    27    1
    28    30    27    1
    29    31     1    1
    30    32     3    1
    31    33     5    1
    32    34     6    1
    33    35     9    1
    34    36     8    1
    35    37     9    1
    36    38    10    1
    37     5    31    1
    38     7    33    1
    39     7    34    1
    40    11    37    1
    41    13    38    1
    42    39    40    1
    43    41    39    1
    44    42    41    1
    45    43    44    2
    46    44    70    1
    47    45    46    2
    48    46    73    1
    49    47    48    2
    50    48    74    1
    51    49    50    1
    52    51    49    1
    53    52    51    1
    54    53    39    1
    55    54    53    1
    56    55    53    1
    57    56    53    1
    58    57    41    1
    59    58    57    1
    60    59    57    1
    61    60    57    1
    62    61    49    1
    63    62    61    1
    64    63    61    1
    65    64    61    1
    66    65    51    1
    67    66    65    1
    68    67    65    1
    69    68    65    1
    70    69    39    1
    71    70    41    1
    72    71    43    1
    73    72    44    1
    74    73    47    1
    75    74    46    1
    76    75    47    1
    77    76    48    1
    78    43    69    1
    79    45    71    1
    80    45    72    1
    81    49    75    1
    82    51    76    1
    83    77    78    1
    84    79    77    1
    85    80    79    1
    86    81    82    2
    87    82   100    1
    88    83    84    2
    89    84   103    1
    90    85    86    2
    91    86   104    1
    92    87    88    1
    93    89    87    1
    94    90    89    1
    95    91    87    1
    96    92    91    1
    97    93    91    1
    98    94    91    1
    99    95    89    1
   100    96    95    1
   101    97    95    1
   102    98    95    1
   103    99    77    1
   104   100    79    1
   105   101    81    1
   106   102    82    1
   107   103    85    1
   108   104    84    1
   109   105    85    1
   110   106    86    1
   111   107    77    1
   112   108   107    1
   113   109   107    1
   114   110   107    1
   115   111    79    1
   116   112   111    1
   117   113   111    1
   118   114   111    1
   119    81    99    1
   120    83   101    1
   121    83   102    1
   122    87   105    1
   123    89   106    1
   124   115   119   ar
   125   116   121   ar
   126   117   123   ar
   127   118   125   ar
   128   119   120    1
   129   121   122    1
   130   123   124    1
   131   125   126    1
   132   127   119   ar
   133   128   127    1
   134   129   121   ar
   135   130   129    1
   136   131   123   ar
   137   132   131    1
   138   133   125   ar
   139   134   133    1
   140   135   127   ar
   141   136   135    1
   142   137   129   ar
   143   138   137    1
   144   139   131   ar
   145   140   139    1
   146   141   133   ar
   147   142   141    1
   148   143   135   ar
   149   144   143    1
   150   145   137   ar
   151   146   145    1
   152   147   139   ar
   153   148   147    1
   154   149   141   ar
   155   150   149    1
   156   151   115   ar
   157   152   151    1
   158   153   116   ar
   159   154   153    1
   160   155   117   ar
   161   156   155    1
   162   157   118   ar
   163   158   157    1
   164   159   115    1
   165   116   159    1
   166   117   159    1
   167   118   159    1
   168   143   151   ar
   169   145   153   ar
   170   147   155   ar
   171   149   157   ar
   172   160   163    1
   173   161   164    1
   174   162   165    1
   175   163   166    2
   176   164   167    2
   177   165   168    2
   178   166   169    1
   179   167   170    1
   180   168   171    1
   181   169   172    1
   182   170   173    1
   183   171   174    1
   184   172   175    1
   185   173   176    1
   186   174   177    1
   187   175   160    2
   188   176   161    2
   189   177   162    2
   190   178   166    1
   191   179   167    1
   192   180   168    1
   193   181   175    1
   194   182   176    1
   195   183   177    1
   196   184   186    1
   197   185   192    1
   198   186   160    1
   199   187   161    1
   200   188   162    1
   201   189   163    1
   202   190   164    1
   203   191   165    1
   204   192   169    2
   205   193   170    2
   206   194   171    2
   207   195   172    2
   208   196   173    2
   209   197   174    2
   210   198   193   un
   211   199   194   un
   212   200   185   un
   213   201   185   un
   214   202   185   un
   215   203   185   un
   216   184   187    1
   217   184   188    1
   218   184   189    1
   219   184   190    1
   220   184   191    1
   221   185   195    1
   222   196   198   un
   223   197   199   un
@<TRIPOS>SUBSTRUCTURE
     1 RES1        1 GROUP             0 ****  ****    0  
     2 RES2       39 GROUP             0 ****  ****    0  
     3 RES3       77 GROUP             0 ****  ****    0  
     4 RES4      115 GROUP             0 ****  ****    0  
     5 RES5      160 GROUP             0 ****  ****    0  
     6 RES6      204 GROUP             0 ****  ****    0  
     7 RES7      205 GROUP             0 ****  ****    0  
     8 RES8      206 GROUP             0 ****  ****    0  
@<TRIPOS>CRYSIN
   13.5980   14.1713   30.1070   85.6590   88.2190   63.3780     2     1
