@<TRIPOS>MOLECULE
PARFEV
   137   140     1     0     0
SMALL
NO_CHARGES
****
Generated from the CSD

@<TRIPOS>ATOM
     1 Fe1      0.9050   1.5804  11.5086   Fe        1 RES1   0.0000
     2 O1      -0.9278   2.0036  12.2722   O.3       1 RES1   0.0000
     3 O2       1.6196  -0.0690  12.4055   O.3       1 RES1   0.0000
     4 O3       5.6981  -1.0305  10.2095   O.2       1 RES1   0.0000
     5 O4       5.0110  -2.3738  11.8509   O.3       1 RES1   0.0000
     6 O5      -3.5723   5.2038  11.5886   O.2       1 RES1   0.0000
     7 O6      -2.3347   5.7638   9.8147   O.3       1 RES1   0.0000
     8 O7       3.0301   5.8351   6.8201   O.3       1 RES1   0.0000
     9 O8       4.9588   4.2232   6.9188   O.3       1 RES1   0.0000
    10 O9       1.7426   2.6294  13.2551   O.3       1 RES1   0.0000
    11 H1       1.6470   2.3298  13.9767   H         1 RES1   0.0000
    12 O10     -0.1344   0.2951  10.0114   O.3       1 RES1   0.0000
    13 H2      -0.8018  -0.0700  10.2036   H         1 RES1   0.0000
    14 N1       0.6398   3.2765  10.3078   N.2       1 RES1   0.0000
    15 N2       2.6681   1.5508  10.3822   N.2       1 RES1   0.0000
    16 C1      -1.8171   2.8880  12.0053   C.2       1 RES1   0.0000
    17 C2      -1.5971   3.9288  11.0777   C.2       1 RES1   0.0000
    18 C3      -0.4147   4.0426  10.2856   C.2       1 RES1   0.0000
    19 H3      -0.3938   4.7640   9.6682   H         1 RES1   0.0000
    20 C4       1.7252   3.5383   9.4253   C.ar      1 RES1   0.0000
    21 C5       1.7773   4.6244   8.5314   C.ar      1 RES1   0.0000
    22 H4       1.0516   5.2364   8.4959   H         1 RES1   0.0000
    23 C6       2.8591   4.8134   7.7120   C.ar      1 RES1   0.0000
    24 C7       3.9423   3.9129   7.7686   C.ar      1 RES1   0.0000
    25 C8       3.9011   2.8495   8.6298   C.ar      1 RES1   0.0000
    26 H5       4.6338   2.2450   8.6594   H         1 RES1   0.0000
    27 C9       2.7955   2.6350   9.4675   C.ar      1 RES1   0.0000
    28 C10      3.6031   0.6450  10.4524   C.2       1 RES1   0.0000
    29 H6       4.3293   0.7469   9.8485   H         1 RES1   0.0000
    30 C11      3.6686  -0.4800  11.3265   C.2       1 RES1   0.0000
    31 C12      2.6637  -0.7745  12.2947   C.2       1 RES1   0.0000
    32 C13      2.7464  -1.9178  13.2706   C.3       1 RES1   0.0000
    33 H7       2.0064  -1.8562  13.9091   H         1 RES1   0.0000
    34 H8       3.5982  -1.8758  13.7513   H         1 RES1   0.0000
    35 H9       2.6885  -2.7667  12.7848   H         1 RES1   0.0000
    36 C14      4.8679  -1.2841  11.0864   C.2       1 RES1   0.0000
    37 C15      6.1093  -3.2740  11.5114   C.3       1 RES1   0.0000
    38 H10      6.1993  -3.3115  10.5248   H         1 RES1   0.0000
    39 H11      5.8873  -4.1842  11.8295   H         1 RES1   0.0000
    40 C16      7.4203  -2.8624  12.1014   C.3       1 RES1   0.0000
    41 H12      7.6838  -1.9917  11.7365   H         1 RES1   0.0000
    42 H13      8.1026  -3.5291  11.8774   H         1 RES1   0.0000
    43 H14      7.3343  -2.7964  13.0750   H         1 RES1   0.0000
    44 C17     -3.1088   2.7080  12.7360   C.3       1 RES1   0.0000
    45 H15     -3.2076   1.7696  12.9989   H         1 RES1   0.0000
    46 H16     -3.8534   2.9624  12.1507   H         1 RES1   0.0000
    47 H17     -3.1138   3.2741  13.5371   H         1 RES1   0.0000
    48 C18     -2.6100   4.9800  10.8940   C.2       1 RES1   0.0000
    49 C19     -3.2154   6.8920   9.6059   C.3       1 RES1   0.0000
    50 H18     -3.2430   7.4632  10.4149   H         1 RES1   0.0000
    51 H19     -4.1335   6.5813   9.4061   H         1 RES1   0.0000
    52 C20     -2.6556   7.6569   8.4424   C.3       1 RES1   0.0000
    53 H20     -1.7277   7.9076   8.6312   H         1 RES1   0.0000
    54 H21     -3.1891   8.4657   8.2959   H         1 RES1   0.0000
    55 H22     -2.6846   7.0956   7.6393   H         1 RES1   0.0000
    56 C21      2.0809   6.8943   6.7872   C.3       1 RES1   0.0000
    57 H23      1.9474   7.2693   7.6928   H         1 RES1   0.0000
    58 H24      1.2094   6.5699   6.4473   H         1 RES1   0.0000
    59 C22      2.6576   7.9451   5.8550   C.3       1 RES1   0.0000
    60 H25      3.5401   8.2284   6.2050   H         1 RES1   0.0000
    61 H26      2.0642   8.7378   5.8640   H         1 RES1   0.0000
    62 C23      2.8290   7.4830   4.4176   C.3       1 RES1   0.0000
    63 H27      1.9437   7.2400   4.0493   H         1 RES1   0.0000
    64 H28      3.3955   6.6710   4.4044   H         1 RES1   0.0000
    65 C24      3.4623   8.5458   3.5311   C.3       1 RES1   0.0000
    66 H29      2.9274   9.3756   3.6013   H         1 RES1   0.0000
    67 H30      4.3697   8.7449   3.8746   H         1 RES1   0.0000
    68 C25      3.5703   8.1573   2.0669   C.3       1 RES1   0.0000
    69 H31      2.6655   7.9458   1.7245   H         1 RES1   0.0000
    70 H32      4.1190   7.3366   1.9951   H         1 RES1   0.0000
    71 C26      4.1861   9.2390   1.1897   C.3       1 RES1   0.0000
    72 H33      3.6694  10.0751   1.3075   H         1 RES1   0.0000
    73 H34      5.1104   9.4122   1.5019   H         1 RES1   0.0000
    74 C27      4.2281   8.8976  -0.2888   C.3       1 RES1   0.0000
    75 H35      3.3053   8.7204  -0.6002   H         1 RES1   0.0000
    76 H36      4.7496   8.0644  -0.4086   H         1 RES1   0.0000
    77 C28      4.8352   9.9810  -1.1613   C.3       1 RES1   0.0000
    78 H37      5.7664  10.1447  -0.8651   H         1 RES1   0.0000
    79 H38      4.3265  10.8200  -1.0285   H         1 RES1   0.0000
    80 C29      4.8444   9.6424  -2.6418   C.3       1 RES1   0.0000
    81 H39      5.3422   8.7959  -2.7672   H         1 RES1   0.0000
    82 H40      3.9110   9.4861  -2.9362   H         1 RES1   0.0000
    83 C30      5.4601  10.7033  -3.5345   C.3       1 RES1   0.0000
    84 H41      4.9664  11.5528  -3.4096   H         1 RES1   0.0000
    85 H42      6.3968  10.8559  -3.2518   H         1 RES1   0.0000
    86 C31      5.4454  10.3387  -5.0071   C.3       1 RES1   0.0000
    87 H43      4.5074  10.2004  -5.2920   H         1 RES1   0.0000
    88 H44      5.9257   9.4813  -5.1286   H         1 RES1   0.0000
    89 C32      6.0824  11.3892  -5.9083   C.3       1 RES1   0.0000
    90 H45      5.6188  12.2439  -5.7908   H         1 RES1   0.0000
    91 H46      6.0114  11.1034  -6.8418   H         1 RES1   0.0000
    92 H47      7.0275  11.4944  -5.6696   H         1 RES1   0.0000
    93 C33      6.1994   3.5254   7.0250   C.3       1 RES1   0.0000
    94 H48      6.1060   2.5916   6.7094   H         1 RES1   0.0000
    95 H49      6.5181   3.5160   7.9634   H         1 RES1   0.0000
    96 C34      7.1533   4.2961   6.1427   C.3       1 RES1   0.0000
    97 H50      8.0631   3.9186   6.2416   H         1 RES1   0.0000
    98 H51      7.1825   5.2386   6.4445   H         1 RES1   0.0000
    99 C35      6.7582   4.2568   4.6729   C.3       1 RES1   0.0000
   100 H52      6.9484   3.3531   4.3170   H         1 RES1   0.0000
   101 H53      5.7827   4.4089   4.6016   H         1 RES1   0.0000
   102 C36      7.4757   5.2805   3.8137   C.3       1 RES1   0.0000
   103 H54      8.4517   5.1688   3.9310   H         1 RES1   0.0000
   104 H55      7.2359   6.1874   4.1310   H         1 RES1   0.0000
   105 C37      7.1452   5.1746   2.3369   C.3       1 RES1   0.0000
   106 H56      7.4270   4.2816   2.0148   H         1 RES1   0.0000
   107 H57      6.1630   5.2355   2.2290   H         1 RES1   0.0000
   108 C38      7.7932   6.2282   1.4673   C.3       1 RES1   0.0000
   109 H58      8.7703   6.2181   1.6287   H         1 RES1   0.0000
   110 H59      7.4537   7.1177   1.7386   H         1 RES1   0.0000
   111 C39      7.5423   6.0432  -0.0175   C.3       1 RES1   0.0000
   112 H60      6.5648   6.0482  -0.1775   H         1 RES1   0.0000
   113 H61      7.8854   5.1549  -0.2874   H         1 RES1   0.0000
   114 C40      8.1841   7.1006  -0.8972   C.3       1 RES1   0.0000
   115 H62      7.8042   7.9843  -0.6622   H         1 RES1   0.0000
   116 H63      9.1542   7.1300  -0.7045   H         1 RES1   0.0000
   117 C41      7.9890   6.8666  -2.3822   C.3       1 RES1   0.0000
   118 H64      7.0191   6.8382  -2.5756   H         1 RES1   0.0000
   119 H65      8.3688   5.9828  -2.6178   H         1 RES1   0.0000
   120 C42      8.6302   7.9221  -3.2609   C.3       1 RES1   0.0000
   121 H66      9.5991   7.9598  -3.0602   H         1 RES1   0.0000
   122 H67      8.2419   8.8046  -3.0349   H         1 RES1   0.0000
   123 C43      8.4494   7.6725  -4.7535   C.3       1 RES1   0.0000
   124 H68      8.8371   6.7911  -4.9792   H         1 RES1   0.0000
   125 H69      7.4815   7.6386  -4.9567   H         1 RES1   0.0000
   126 C44      9.0999   8.7361  -5.6262   C.3       1 RES1   0.0000
   127 H70      8.6843   9.6052  -5.4470   H         1 RES1   0.0000
   128 H71      8.9760   8.5041  -6.5713   H         1 RES1   0.0000
   129 H72     10.0572   8.7834  -5.4244   H         1 RES1   0.0000
   130 C45      1.8074   4.0422  13.4064   C.3       1 RES1   0.0000
   131 H73      2.1535   4.4435  12.5819   H         1 RES1   0.0000
   132 H74      2.4033   4.2637  14.1514   H         1 RES1   0.0000
   133 H75      0.9114   4.3934  13.5907   H         1 RES1   0.0000
   134 C46     -0.0336   0.3385   8.6382   C.3       1 RES1   0.0000
   135 H76     -0.5561   1.0935   8.2959   H         1 RES1   0.0000
   136 H77     -0.3797  -0.4974   8.2592   H         1 RES1   0.0000
   137 H78      0.9062   0.4488   8.3832   H         1 RES1   0.0000
@<TRIPOS>BOND
     1     1     2    1
     2     2    16    1
     3     3     1    1
     4     4    36    2
     5     5    36    1
     6     6    48    2
     7     7    48    1
     8     8    23    1
     9     9    24    1
    10    10     1    1
    11    11    10    1
    12    12     1    1
    13    13    12    1
    14    14     1    1
    15    15     1    1
    16    16    17    2
    17    17    18    1
    18    18    14    2
    19    19    18    1
    20    20    14    1
    21    21    20   ar
    22    22    21    1
    23    23    21   ar
    24    24    23   ar
    25    25    24   ar
    26    26    25    1
    27    27    15    1
    28    28    15    2
    29    29    28    1
    30    30    28    1
    31    31     3    1
    32    32    31    1
    33    33    32    1
    34    34    32    1
    35    35    32    1
    36    36    30    1
    37    37     5    1
    38    38    37    1
    39    39    37    1
    40    40    37    1
    41    41    40    1
    42    42    40    1
    43    43    40    1
    44    44    16    1
    45    45    44    1
    46    46    44    1
    47    47    44    1
    48    48    17    1
    49    49     7    1
    50    50    49    1
    51    51    49    1
    52    52    49    1
    53    53    52    1
    54    54    52    1
    55    55    52    1
    56    56     8    1
    57    57    56    1
    58    58    56    1
    59    59    56    1
    60    60    59    1
    61    61    59    1
    62    62    59    1
    63    63    62    1
    64    64    62    1
    65    65    62    1
    66    66    65    1
    67    67    65    1
    68    68    65    1
    69    69    68    1
    70    70    68    1
    71    71    68    1
    72    72    71    1
    73    73    71    1
    74    74    71    1
    75    75    74    1
    76    76    74    1
    77    77    74    1
    78    78    77    1
    79    79    77    1
    80    80    77    1
    81    81    80    1
    82    82    80    1
    83    83    80    1
    84    84    83    1
    85    85    83    1
    86    86    83    1
    87    87    86    1
    88    88    86    1
    89    89    86    1
    90    90    89    1
    91    91    89    1
    92    92    89    1
    93    93     9    1
    94    94    93    1
    95    95    93    1
    96    96    93    1
    97    97    96    1
    98    98    96    1
    99    99    96    1
   100   100    99    1
   101   101    99    1
   102   102    99    1
   103   103   102    1
   104   104   102    1
   105   105   102    1
   106   106   105    1
   107   107   105    1
   108   108   105    1
   109   109   108    1
   110   110   108    1
   111   111   108    1
   112   112   111    1
   113   113   111    1
   114   114   111    1
   115   115   114    1
   116   116   114    1
   117   117   114    1
   118   118   117    1
   119   119   117    1
   120   120   117    1
   121   121   120    1
   122   122   120    1
   123   123   120    1
   124   124   123    1
   125   125   123    1
   126   126   123    1
   127   127   126    1
   128   128   126    1
   129   129   126    1
   130   130    10    1
   131   131   130    1
   132   132   130    1
   133   133   130    1
   134   134    12    1
   135   135   134    1
   136   136   134    1
   137   137   134    1
   138    20    27   ar
   139    25    27   ar
   140    30    31    2
@<TRIPOS>SUBSTRUCTURE
     1 RES1        1 GROUP             0 ****  ****    0  
@<TRIPOS>CRYSIN
    8.1996   10.7339   28.4255   82.4756   88.8122   75.9810     2     1
