@<TRIPOS>MOLECULE
PARFIZ
   131   134     1     0     0
SMALL
NO_CHARGES
****
Generated from the CSD

@<TRIPOS>ATOM
     1 Fe1      4.1256   2.4806  10.6026   Fe        1 RES1   0.0000
     2 O1       3.6587   0.6832  11.3646   O.3       1 RES1   0.0000
     3 O2       5.8883   3.0978  11.3732   O.3       1 RES1   0.0000
     4 O3       8.2953   6.4374  10.6150   O.2       1 RES1   0.0000
     5 O4       6.8443   7.0623   9.0395   O.3       1 RES1   0.0000
     6 O5      -0.6512  -0.3523   9.7338   O.2       1 RES1   0.0000
     7 O6       0.3126  -1.7311  11.1489   O.3       1 RES1   0.0000
     8 O7       5.4695   1.4864   9.1217   O.3       1 RES1   0.0000
     9 H1       6.4018   1.4358   9.2960   H         1 RES1   0.0000
    10 O8       3.1755   3.3487  12.3876   O.3       1 RES1   0.0000
    11 H2       2.7354   2.7681  12.9966   H         1 RES1   0.0000
    12 O9      -0.4443   4.8280   6.3753   O.3       1 RES1   0.0000
    13 O10      1.3545   6.8464   6.4436   O.3       1 RES1   0.0000
    14 N1       2.3470   2.2856   9.5255   N.2       1 RES1   0.0000
    15 N2       4.1401   4.2695   9.5129   N.2       1 RES1   0.0000
    16 C1       2.6642  -0.0948  11.3237   C.2       1 RES1   0.0000
    17 C2       1.5248   0.1986  10.5017   C.2       1 RES1   0.0000
    18 C3       1.4579   1.3542   9.6883   C.2       1 RES1   0.0000
    19 H3       0.6540   1.4635   9.1939   H         1 RES1   0.0000
    20 C4       2.0642   3.4101   8.6846   C.ar      1 RES1   0.0000
    21 C5       0.9109   3.5121   7.8919   C.ar      1 RES1   0.0000
    22 H4       0.2866   2.7954   7.8749   H         1 RES1   0.0000
    23 C6       0.6754   4.6358   7.1379   C.ar      1 RES1   0.0000
    24 C7       1.6038   5.6718   7.1308   C.ar      1 RES1   0.0000
    25 C8       2.7344   5.5863   7.9100   C.ar      1 RES1   0.0000
    26 H5       3.3533   6.3079   7.9194   H         1 RES1   0.0000
    27 C9       2.9872   4.4518   8.6901   C.ar      1 RES1   0.0000
    28 C10      5.1024   5.1495   9.4936   C.2       1 RES1   0.0000
    29 H6       4.9684   5.9075   8.9374   H         1 RES1   0.0000
    30 C11      6.3408   5.0988  10.2175   C.2       1 RES1   0.0000
    31 C12      6.6942   4.0419  11.0712   C.2       1 RES1   0.0000
    32 C13      7.2701   6.2139  10.0081   C.2       1 RES1   0.0000
    33 C14      7.6614   8.2208   8.8019   C.3       1 RES1   0.0000
    34 H7       7.6730   8.7830   9.6048   H         1 RES1   0.0000
    35 H8       7.2940   8.7319   8.0502   H         1 RES1   0.0000
    36 H9       8.5753   7.9385   8.5894   H         1 RES1   0.0000
    37 C15      8.0662   3.8986  11.6778   C.3       1 RES1   0.0000
    38 H10      8.1258   4.4517  12.4836   H         1 RES1   0.0000
    39 H11      8.7418   4.1918  11.0311   H         1 RES1   0.0000
    40 H12      8.2235   2.9603  11.9131   H         1 RES1   0.0000
    41 C16      0.3254  -0.6270  10.4195   C.2       1 RES1   0.0000
    42 C17     -0.8844  -2.5411  11.0652   C.3       1 RES1   0.0000
    43 H13     -1.6604  -2.0064  11.3347   H         1 RES1   0.0000
    44 H14     -0.7982  -3.3150  11.6592   H         1 RES1   0.0000
    45 H15     -1.0063  -2.8507  10.1439   H         1 RES1   0.0000
    46 C18      2.7713  -1.3197  12.1793   C.3       1 RES1   0.0000
    47 H16      3.6571  -1.3491  12.5988   H         1 RES1   0.0000
    48 H17      2.6456  -2.1180  11.6252   H         1 RES1   0.0000
    49 H18      2.0813  -1.2937  12.8762   H         1 RES1   0.0000
    50 C19      4.9529   0.9303   7.9275   C.3       1 RES1   0.0000
    51 H19      4.2113   0.3270   8.1418   H         1 RES1   0.0000
    52 H20      5.6592   0.4305   7.4692   H         1 RES1   0.0000
    53 H21      4.6308   1.6503   7.3462   H         1 RES1   0.0000
    54 C20      3.1931   4.7363  12.6650   C.3       1 RES1   0.0000
    55 H22      4.1211   5.0484  12.7113   H         1 RES1   0.0000
    56 H23      2.7501   4.9032  13.5226   H         1 RES1   0.0000
    57 H24      2.7205   5.2173  11.9550   H         1 RES1   0.0000
    58 C21     -1.5039   3.8680   6.4805   C.3       1 RES1   0.0000
    59 H25     -1.7507   3.7232   7.4274   H         1 RES1   0.0000
    60 H26     -1.2291   3.0017   6.0874   H         1 RES1   0.0000
    61 C22     -2.6681   4.4537   5.7124   C.3       1 RES1   0.0000
    62 H27     -2.8490   5.3651   6.0534   H         1 RES1   0.0000
    63 H28     -3.4732   3.9040   5.8859   H         1 RES1   0.0000
    64 C23     -2.4374   4.5270   4.2149   C.3       1 RES1   0.0000
    65 H29     -2.4429   3.6108   3.8393   H         1 RES1   0.0000
    66 H30     -1.5461   4.9219   4.0408   H         1 RES1   0.0000
    67 C24     -3.5003   5.3620   3.5158   C.3       1 RES1   0.0000
    68 H31     -4.3906   4.9872   3.7320   H         1 RES1   0.0000
    69 H32     -3.4680   6.2831   3.8786   H         1 RES1   0.0000
    70 C25     -3.3574   5.4292   2.0092   C.3       1 RES1   0.0000
    71 H33     -3.4513   4.5167   1.6357   H         1 RES1   0.0000
    72 H34     -2.4495   5.7545   1.7849   H         1 RES1   0.0000
    73 C26     -4.3856   6.3399   1.3525   C.3       1 RES1   0.0000
    74 H35     -5.2917   6.0319   1.6043   H         1 RES1   0.0000
    75 H36     -4.2709   7.2582   1.7064   H         1 RES1   0.0000
    76 C27     -4.2861   6.3820  -0.1628   C.3       1 RES1   0.0000
    77 H37     -4.4114   5.4677  -0.5182   H         1 RES1   0.0000
    78 H38     -3.3776   6.6833  -0.4161   H         1 RES1   0.0000
    79 C28     -5.3119   7.3091  -0.8063   C.3       1 RES1   0.0000
    80 H39     -6.2204   7.0080  -0.5522   H         1 RES1   0.0000
    81 H40     -5.1861   8.2246  -0.4501   H         1 RES1   0.0000
    82 C29     -5.2141   7.3508  -2.3180   C.3       1 RES1   0.0000
    83 H41     -5.3622   6.4378  -2.6721   H         1 RES1   0.0000
    84 H42     -4.2975   7.6257  -2.5700   H         1 RES1   0.0000
    85 C30     -6.2057   8.2967  -2.9743   C.3       1 RES1   0.0000
    86 H43     -7.1254   8.0103  -2.7427   H         1 RES1   0.0000
    87 H44     -6.0725   9.2066  -2.6093   H         1 RES1   0.0000
    88 C31     -6.0729   8.3489  -4.4870   C.3       1 RES1   0.0000
    89 H45     -5.1421   8.5927  -4.7187   H         1 RES1   0.0000
    90 H46     -6.2489   7.4471  -4.8547   H         1 RES1   0.0000
    91 C32     -7.0185   9.3405  -5.1387   C.3       1 RES1   0.0000
    92 H47     -7.9445   9.0793  -4.9516   H         1 RES1   0.0000
    93 H48     -6.8697   9.3454  -6.1083   H         1 RES1   0.0000
    94 H49     -6.8521  10.2355  -4.7788   H         1 RES1   0.0000
    95 C33      1.2559   6.7331   5.0115   C.3       1 RES1   0.0000
    96 H50      1.0537   5.7964   4.7631   H         1 RES1   0.0000
    97 H51      2.1186   6.9849   4.5957   H         1 RES1   0.0000
    98 C34      0.1652   7.6391   4.5080   C.3       1 RES1   0.0000
    99 H52      0.3194   8.5571   4.8443   H         1 RES1   0.0000
   100 H53     -0.7074   7.3277   4.8547   H         1 RES1   0.0000
   101 C35      0.1268   7.6605   2.9851   C.3       1 RES1   0.0000
   102 H54      1.0147   7.9436   2.6511   H         1 RES1   0.0000
   103 H55     -0.0353   6.7387   2.6616   H         1 RES1   0.0000
   104 C36     -0.9313   8.5775   2.3868   C.3       1 RES1   0.0000
   105 H56     -1.8260   8.2718   2.6825   H         1 RES1   0.0000
   106 H57     -0.7954   9.4941   2.7323   H         1 RES1   0.0000
   107 C37     -0.8969   8.6123   0.8728   C.3       1 RES1   0.0000
   108 H58     -1.0417   7.6933   0.5313   H         1 RES1   0.0000
   109 H59      0.0057   8.8979   0.5836   H         1 RES1   0.0000
   110 C38     -1.9279   9.5361   0.2337   C.3       1 RES1   0.0000
   111 H60     -2.8335   9.2416   0.5051   H         1 RES1   0.0000
   112 H61     -1.7932  10.4541   0.5810   H         1 RES1   0.0000
   113 C39     -1.8586   9.5699  -1.2800   C.3       1 RES1   0.0000
   114 H62     -1.9937   8.6512  -1.6252   H         1 RES1   0.0000
   115 H63     -0.9527   9.8611  -1.5519   H         1 RES1   0.0000
   116 C40     -2.8853  10.4922  -1.9265   C.3       1 RES1   0.0000
   117 H64     -3.7914  10.2054  -1.6488   H         1 RES1   0.0000
   118 H65     -2.7450  11.4121  -1.5860   H         1 RES1   0.0000
   119 C41     -2.8244  10.5180  -3.4431   C.3       1 RES1   0.0000
   120 H66     -2.9745   9.6001  -3.7843   H         1 RES1   0.0000
   121 H67     -1.9151  10.7962  -3.7215   H         1 RES1   0.0000
   122 C42     -3.8416  11.4534  -4.0882   C.3       1 RES1   0.0000
   123 H68     -4.7506  11.1788  -3.8079   H         1 RES1   0.0000
   124 H69     -3.6880  12.3722  -3.7529   H         1 RES1   0.0000
   125 C43     -3.7841  11.4701  -5.6022   C.3       1 RES1   0.0000
   126 H70     -3.9559  10.5543  -5.9382   H         1 RES1   0.0000
   127 H71     -2.8705  11.7264  -5.8833   H         1 RES1   0.0000
   128 C44     -4.7830  12.4250  -6.2455   C.3       1 RES1   0.0000
   129 H72     -5.6859  12.2181  -5.9251   H         1 RES1   0.0000
   130 H73     -4.7514  12.3243  -7.2206   H         1 RES1   0.0000
   131 H74     -4.5545  13.3476  -6.0037   H         1 RES1   0.0000
@<TRIPOS>BOND
     1     1     2    1
     2     2    16    1
     3     3     1    1
     4     4    32    2
     5     5    32    1
     6     6    41    2
     7     7    41    1
     8     8     1    1
     9     9     8    1
    10    10     1    1
    11    11    10    1
    12    12    23    1
    13    13    24    1
    14    14     1    1
    15    15     1    1
    16    16    17    2
    17    17    18    1
    18    18    14    2
    19    19    18    1
    20    20    14    1
    21    21    20   ar
    22    22    21    1
    23    23    21   ar
    24    24    23   ar
    25    25    24   ar
    26    26    25    1
    27    27    15    1
    28    28    15    2
    29    29    28    1
    30    30    28    1
    31    31     3    1
    32    32    30    1
    33    33     5    1
    34    34    33    1
    35    35    33    1
    36    36    33    1
    37    37    31    1
    38    38    37    1
    39    39    37    1
    40    40    37    1
    41    41    17    1
    42    42     7    1
    43    43    42    1
    44    44    42    1
    45    45    42    1
    46    46    16    1
    47    47    46    1
    48    48    46    1
    49    49    46    1
    50    50     8    1
    51    51    50    1
    52    52    50    1
    53    53    50    1
    54    54    10    1
    55    55    54    1
    56    56    54    1
    57    57    54    1
    58    58    12    1
    59    59    58    1
    60    60    58    1
    61    61    58    1
    62    62    61    1
    63    63    61    1
    64    64    61    1
    65    65    64    1
    66    66    64    1
    67    67    64    1
    68    68    67    1
    69    69    67    1
    70    70    67    1
    71    71    70    1
    72    72    70    1
    73    73    70    1
    74    74    73    1
    75    75    73    1
    76    76    73    1
    77    77    76    1
    78    78    76    1
    79    79    76    1
    80    80    79    1
    81    81    79    1
    82    82    79    1
    83    83    82    1
    84    84    82    1
    85    85    82    1
    86    86    85    1
    87    87    85    1
    88    88    85    1
    89    89    88    1
    90    90    88    1
    91    91    88    1
    92    92    91    1
    93    93    91    1
    94    94    91    1
    95    95    13    1
    96    96    95    1
    97    97    95    1
    98    98    95    1
    99    99    98    1
   100   100    98    1
   101   101    98    1
   102   102   101    1
   103   103   101    1
   104   104   101    1
   105   105   104    1
   106   106   104    1
   107   107   104    1
   108   108   107    1
   109   109   107    1
   110   110   107    1
   111   111   110    1
   112   112   110    1
   113   113   110    1
   114   114   113    1
   115   115   113    1
   116   116   113    1
   117   117   116    1
   118   118   116    1
   119   119   116    1
   120   120   119    1
   121   121   119    1
   122   122   119    1
   123   123   122    1
   124   124   122    1
   125   125   122    1
   126   126   125    1
   127   127   125    1
   128   128   125    1
   129   129   128    1
   130   130   128    1
   131   131   128    1
   132    20    27   ar
   133    25    27   ar
   134    30    31    2
@<TRIPOS>SUBSTRUCTURE
     1 RES1        1 GROUP             0 ****  ****    0  
@<TRIPOS>CRYSIN
    8.0145   11.3292   26.7290   78.2990   86.7890   70.2430     2     1
