@<TRIPOS>MOLECULE
PASNTP
   103   108     3     0     0
SMALL
USER_CHARGES
****
Generated from the CSD

@<TRIPOS>ATOM
     1 As1      0.8450   8.0813   1.1068   As        1 RES1   1.0000
     2 C1      -0.9773   8.2248   1.7195   C.ar      1 RES1   0.0000
     3 C2      -1.7076   7.1148   1.6245   C.ar      1 RES1   0.0000
     4 C3      -3.0574   7.2069   2.0093   C.ar      1 RES1   0.0000
     5 C4      -3.6305   8.3406   2.5176   C.ar      1 RES1   0.0000
     6 C5      -2.7245   9.3992   2.6506   C.ar      1 RES1   0.0000
     7 C6      -1.3835   9.3542   2.2682   C.ar      1 RES1   0.0000
     8 C7       1.8685   9.5942   1.8098   C.ar      1 RES1   0.0000
     9 C8       2.5261  10.5050   1.0379   C.ar      1 RES1   0.0000
    10 C9       3.2059  11.5851   1.7409   C.ar      1 RES1   0.0000
    11 C10      3.1838  11.6558   3.0187   C.ar      1 RES1   0.0000
    12 C11      2.5947  10.6636   3.9212   C.ar      1 RES1   0.0000
    13 C12      1.9103   9.5942   3.2040   C.ar      1 RES1   0.0000
    14 C13      1.5654   6.4697   1.6079   C.ar      1 RES1   0.0000
    15 C14      2.1836   5.5825   0.7980   C.ar      1 RES1   0.0000
    16 C15      2.6425   4.2946   1.2517   C.ar      1 RES1   0.0000
    17 C16      2.5559   4.1424   2.7289   C.ar      1 RES1   0.0000
    18 C17      1.8837   4.8453   3.4153   C.ar      1 RES1   0.0000
    19 C18      1.4700   6.0625   3.0234   C.ar      1 RES1   0.0000
    20 C19      0.8273   8.2034  -0.7743   C.ar      1 RES1   0.0000
    21 C20      2.1073   8.2870  -1.5485   C.ar      1 RES1   0.0000
    22 C21      2.0769   8.2848  -2.8881   C.ar      1 RES1   0.0000
    23 C22      0.8796   8.1070  -3.5222   C.ar      1 RES1   0.0000
    24 C23     -0.2771   7.9741  -2.9356   C.ar      1 RES1   0.0000
    25 C24     -0.3549   7.9891  -1.4820   C.ar      1 RES1   0.0000
    26 H1      -1.2553   6.2640   1.2659   H         1 RES1   0.0000
    27 H2      -3.6888   6.4226   1.9333   H         1 RES1   0.0000
    28 H3      -4.6507   8.3791   2.7503   H         1 RES1   0.0000
    29 H4      -3.0574  10.2435   3.0899   H         1 RES1   0.0000
    30 H5      -0.7290  10.1021   2.3679   H         1 RES1   0.0000
    31 H6       2.4779  10.4128   0.0000   H         1 RES1   0.0000
    32 H7       3.7627  12.3330   1.2825   H         1 RES1   0.0000
    33 H8       3.6665  12.5087   3.3251   H         1 RES1   0.0000
    34 H9       2.6777  10.7814   4.9330   H         1 RES1   0.0000
    35 H10      1.4559   8.8142   3.6956   H         1 RES1   0.0000
    36 H11      2.3009   5.9275  -0.1686   H         1 RES1   0.0000
    37 H12      2.9614   3.5745   0.5819   H         1 RES1   0.0000
    38 H13      3.0442   3.5102   3.3488   H         1 RES1   0.0000
    39 H14      1.6649   4.4939   4.3772   H         1 RES1   0.0000
    40 H15      1.0721   6.6412   3.7716   H         1 RES1   0.0000
    41 H16      3.0491   8.3727  -1.1709   H         1 RES1   0.0000
    42 H17      2.9731   8.4220  -3.4011   H         1 RES1   0.0000
    43 H18      0.7891   7.9998  -4.5506   H         1 RES1   0.0000
    44 H19     -1.0590   7.8498  -3.5840   H         1 RES1   0.0000
    45 H20     -1.2568   7.8520  -0.9571   H         1 RES1   0.0000
    46 As2     -2.4220   1.7658   3.0971   As        2 RES2   1.0000
    47 C25     -2.7984   3.3174   4.1706   C.ar      2 RES2   0.0000
    48 C26     -1.7815   4.2646   4.1754   C.ar      2 RES2   0.0000
    49 C27     -1.9861   5.4689   4.9425   C.ar      2 RES2   0.0000
    50 C28     -3.1570   5.5932   5.6313   C.ar      2 RES2   0.0000
    51 C29     -4.0966   4.5667   5.6550   C.ar      2 RES2   0.0000
    52 C30     -3.9344   3.4438   4.9829   C.ar      2 RES2   0.0000
    53 C31     -1.2292   0.5400   4.0020   C.ar      2 RES2   0.0000
    54 C32     -1.2986  -0.7050   3.8215   C.ar      2 RES2   0.0000
    55 C33     -0.4613  -1.5151   4.4200   C.ar      2 RES2   0.0000
    56 C34      0.3780  -1.0286   5.4674   C.ar      2 RES2   0.0000
    57 C35      0.4423   0.2100   5.5648   C.ar      2 RES2   0.0000
    58 C36     -0.3744   1.0758   5.0209   C.ar      2 RES2   0.0000
    59 C37     -4.0879   0.7350   2.8928   C.ar      2 RES2   0.0000
    60 C38     -4.7194   1.0522   1.5723   C.ar      2 RES2   0.0000
    61 C39     -5.9315   0.2914   1.3918   C.ar      2 RES2   0.0000
    62 C40     -6.3815  -0.5465   2.3584   C.ar      2 RES2   0.0000
    63 C41     -5.7688  -0.7136   3.4890   C.ar      2 RES2   0.0000
    64 C42     -4.6222   0.0386   3.7621   C.ar      2 RES2   0.0000
    65 C43     -1.6334   2.3230   1.3942   C.ar      2 RES2   0.0000
    66 C44     -0.4570   1.8580   0.9904   C.ar      2 RES2   0.0000
    67 C45      0.1384   2.2309  -0.1758   C.ar      2 RES2   0.0000
    68 C46     -0.4444   3.2316  -0.8028   C.ar      2 RES2   0.0000
    69 C47     -1.6266   3.7674  -0.4584   C.ar      2 RES2   0.0000
    70 C48     -2.2099   3.2981   0.6888   C.ar      2 RES2   0.0000
    71 H21     -0.9205   4.0996   3.6505   H         2 RES2   0.0000
    72 H22     -1.3056   6.2318   5.0185   H         2 RES2   0.0000
    73 H23     -3.2936   6.4783   6.1134   H         2 RES2   0.0000
    74 H24     -4.9819   4.6567   6.1680   H         2 RES2   0.0000
    75 H25     -4.6300   2.7023   5.1230   H         2 RES2   0.0000
    76 H26     -2.0111  -1.0372   3.1398   H         2 RES2   0.0000
    77 H27     -0.4325  -2.4773   4.1183   H         2 RES2   0.0000
    78 H28      0.9378  -1.5472   6.1561   H         2 RES2   0.0000
    79 H29      1.2184   0.5207   6.1466   H         2 RES2   0.0000
    80 H30     -0.3435   2.0659   5.3415   H         2 RES2   0.0000
    81 H31     -4.3524   1.7123   0.8740   H         2 RES2   0.0000
    82 H32     -6.5301   0.3407   0.5629   H         2 RES2   0.0000
    83 H33     -7.2293  -1.1208   2.2397   H         2 RES2   0.0000
    84 H34     -6.1447  -1.3758   4.1540   H         2 RES2   0.0000
    85 H35     -4.1338   0.0386   4.6741   H         2 RES2   0.0000
    86 H36      0.0146   1.1701   1.5794   H         2 RES2   0.0000
    87 H37      0.9873   1.7851  -0.5391   H         2 RES2   0.0000
    88 H38     -0.0177   3.6302  -1.6459   H         2 RES2   0.0000
    89 H39     -2.0576   4.4917  -1.0284   H         2 RES2   0.0000
    90 H40     -3.1082   3.6902   0.9714   H         2 RES2   0.0000
    91 Fe1      1.0654   5.9597   8.3911   Fe        3 RES3  -2.0000
    92 C49      1.6566   4.8518   9.8589   C.1       3 RES3   0.0000
    93 C50      1.4269   4.5003   7.2582   C.1       3 RES3   0.0000
    94 C51      2.9900   6.3690   8.2153   C.1       3 RES3   0.0000
    95 C52      0.8848   7.4812   9.6095   C.1       3 RES3   0.0000
    96 C53      0.8062   7.1298   6.9470   C.1       3 RES3   0.0000
    97 N1       1.9810   4.1853  10.6830   N.1       3 RES3   0.0000
    98 N2       1.6097   3.5167   6.6549   N.1       3 RES3   0.0000
    99 N3       4.0441   6.6004   8.0134   N.1       3 RES3   0.0000
   100 N4       0.6356   8.2248  10.3909   N.1       3 RES3   0.0000
   101 N5       0.6772   7.7598   5.9519   N.1       3 RES3   0.0000
   102 N6      -0.5269   5.7154   8.5003   N.2       3 RES3   0.0000
   103 O1      -1.6716   5.6382   8.6476   O.2       3 RES3   0.0000
@<TRIPOS>BOND
     1     1     2    1
     2     2     3   ar
     3     3     4   ar
     4     4     5   ar
     5     5     6   ar
     6     6     7   ar
     7     7     2   ar
     8     8     1    1
     9     9     8   ar
    10    10     9   ar
    11    11    10   ar
    12    12    11   ar
    13    13     8   ar
    14    14     1    1
    15    15    14   ar
    16    16    15   ar
    17    17    16   ar
    18    18    17   ar
    19    19    14   ar
    20    20     1    1
    21    21    20   ar
    22    22    21   ar
    23    23    22   ar
    24    24    23   ar
    25    25    20   ar
    26    26     3    1
    27    27     4    1
    28    28     5    1
    29    29     6    1
    30    30     7    1
    31    31     9    1
    32    32    10    1
    33    33    11    1
    34    34    12    1
    35    35    13    1
    36    36    15    1
    37    37    16    1
    38    38    17    1
    39    39    18    1
    40    40    19    1
    41    41    21    1
    42    42    22    1
    43    43    23    1
    44    44    24    1
    45    45    25    1
    46    12    13   ar
    47    18    19   ar
    48    24    25   ar
    49    46    47    1
    50    47    48   ar
    51    48    49   ar
    52    49    50   ar
    53    50    51   ar
    54    51    52   ar
    55    52    47   ar
    56    53    46    1
    57    54    53   ar
    58    55    54   ar
    59    56    55   ar
    60    57    56   ar
    61    58    53   ar
    62    59    46    1
    63    60    59   ar
    64    61    60   ar
    65    62    61   ar
    66    63    62   ar
    67    64    59   ar
    68    65    46    1
    69    66    65   ar
    70    67    66   ar
    71    68    67   ar
    72    69    68   ar
    73    70    65   ar
    74    71    48    1
    75    72    49    1
    76    73    50    1
    77    74    51    1
    78    75    52    1
    79    76    54    1
    80    77    55    1
    81    78    56    1
    82    79    57    1
    83    80    58    1
    84    81    60    1
    85    82    61    1
    86    83    62    1
    87    84    63    1
    88    85    64    1
    89    86    66    1
    90    87    67    1
    91    88    68    1
    92    89    69    1
    93    90    70    1
    94    57    58   ar
    95    63    64   ar
    96    69    70   ar
    97    91    92    1
    98    92    97    3
    99    93    91    1
   100    94    91    1
   101    95    91    1
   102    96    91    1
   103    98    93    3
   104    99    94    3
   105   100    95    3
   106   101    96    3
   107   102    91    1
   108   103   102    2
@<TRIPOS>SUBSTRUCTURE
     1 RES1        1 GROUP             0 ****  ****    0  
     2 RES2       46 GROUP             0 ****  ****    0  
     3 RES3       91 GROUP             0 ****  ****    0  
@<TRIPOS>CRYSIN
    9.0900   21.4300   24.5100   90.0000  104.3000   90.0000    14     1
