@<TRIPOS>MOLECULE
PATJAW
   112   121     5     0     0
SMALL
USER_CHARGES
****
Generated from the CSD

@<TRIPOS>ATOM
     1 Fe1     14.0113   1.2009   4.7006   Fe        1 RES1   2.0000
     2 N1      15.8058   1.2027   4.1509   N.ar      1 RES1   0.0000
     3 C1      16.6884   2.0146   4.7815   C.ar      1 RES1   0.0000
     4 C2      16.0344   2.8353   5.8145   C.ar      1 RES1   0.0000
     5 N2      14.7065   2.5666   5.9189   N.ar      1 RES1   0.0000
     6 C3      13.9826   3.2602   6.8235   C.ar      1 RES1   0.0000
     7 H1      13.0596   3.0903   6.8930   H         1 RES1   0.0000
     8 C4      14.5403   4.2021   7.6451   C.ar      1 RES1   0.0000
     9 H2      14.0119   4.6574   8.2750   H         1 RES1   0.0000
    10 C5      15.8826   4.4737   7.5361   C.ar      1 RES1   0.0000
    11 H3      16.2814   5.1195   8.0907   H         1 RES1   0.0000
    12 C6      16.6409   3.7908   6.6053   C.ar      1 RES1   0.0000
    13 H4      17.5591   3.9735   6.5132   H         1 RES1   0.0000
    14 C7      18.0208   1.9921   4.3588   C.ar      1 RES1   0.0000
    15 C8      19.0886   2.8841   4.9112   C.ar      1 RES1   0.0000
    16 N3      19.6248   2.5099   6.0714   N.ar      1 RES1   0.0000
    17 C9      20.6053   3.3140   6.5471   C.ar      1 RES1   0.0000
    18 H5      21.0097   3.0815   7.3631   H         1 RES1   0.0000
    19 C10     21.0400   4.4444   5.9115   C.ar      1 RES1   0.0000
    20 H6      21.7230   4.9720   6.2857   H         1 RES1   0.0000
    21 C11     20.4723   4.7893   4.7364   C.ar      1 RES1   0.0000
    22 H7      20.7505   5.5611   4.2795   H         1 RES1   0.0000
    23 C12     19.4694   3.9871   4.2174   C.ar      1 RES1   0.0000
    24 H8      19.0594   4.2031   3.3995   H         1 RES1   0.0000
    25 N4      18.4281   1.1626   3.3931   N.ar      1 RES1   0.0000
    26 C13     17.5454   0.3654   2.7984   C.ar      1 RES1   0.0000
    27 C14     18.1202  -0.5540   1.7736   C.ar      1 RES1   0.0000
    28 N5      17.9954  -1.8690   2.0391   N.ar      1 RES1   0.0000
    29 C15     18.5192  -2.7209   1.1488   C.ar      1 RES1   0.0000
    30 H9      18.4466  -3.6432   1.3143   H         1 RES1   0.0000
    31 C16     19.1528  -2.3096   0.0132   C.ar      1 RES1   0.0000
    32 H10     19.5008  -2.9427  -0.5885   H         1 RES1   0.0000
    33 C17     19.2827  -0.9672  -0.2482   C.ar      1 RES1   0.0000
    34 H11     19.7161  -0.6673  -1.0266   H         1 RES1   0.0000
    35 C18     18.7600  -0.0635   0.6675   C.ar      1 RES1   0.0000
    36 H12     18.8440   0.8627   0.5302   H         1 RES1   0.0000
    37 C19     16.1872   0.3986   3.1425   C.ar      1 RES1   0.0000
    38 C20     15.0399  -0.3107   2.5517   C.ar      1 RES1   0.0000
    39 N6      13.8905  -0.1290   3.2589   N.ar      1 RES1   0.0000
    40 C21     12.7723  -0.7357   2.8298   C.ar      1 RES1   0.0000
    41 H13     11.9811  -0.6302   3.3281   H         1 RES1   0.0000
    42 C22     12.7352  -1.5026   1.6904   C.ar      1 RES1   0.0000
    43 H14     11.9380  -1.9227   1.4252   H         1 RES1   0.0000
    44 C23     13.8805  -1.6502   0.9439   C.ar      1 RES1   0.0000
    45 H15     13.8689  -2.1494   0.1467   H         1 RES1   0.0000
    46 C24     15.0452  -1.0561   1.3801   C.ar      1 RES1   0.0000
    47 H16     15.8392  -1.1548   0.8856   H         1 RES1   0.0000
    48 N1B     12.2168   1.2027   5.2504   N.ar      1 RES1   0.0000
    49 C1B     11.3342   2.0146   4.6198   C.ar      1 RES1   0.0000
    50 C2B     11.9882   2.8353   3.5868   C.ar      1 RES1   0.0000
    51 N2B     13.3161   2.5666   3.4824   N.ar      1 RES1   0.0000
    52 C3B     14.0400   3.2602   2.5778   C.ar      1 RES1   0.0000
    53 H1B     14.9630   3.0903   2.5083   H         1 RES1   0.0000
    54 C4B     13.4823   4.2021   1.7562   C.ar      1 RES1   0.0000
    55 H2B     14.0108   4.6574   1.1263   H         1 RES1   0.0000
    56 C5B     12.1400   4.4737   1.8652   C.ar      1 RES1   0.0000
    57 H3B     11.7413   5.1195   1.3105   H         1 RES1   0.0000
    58 C6B     11.3817   3.7908   2.7959   C.ar      1 RES1   0.0000
    59 H4B     10.4635   3.9735   2.8881   H         1 RES1   0.0000
    60 C7B     10.0018   1.9921   5.0425   C.ar      1 RES1   0.0000
    61 C8B      8.9340   2.8841   4.4901   C.ar      1 RES1   0.0000
    62 N3B      8.3978   2.5099   3.3299   N.ar      1 RES1   0.0000
    63 C9B      7.4173   3.3140   2.8542   C.ar      1 RES1   0.0000
    64 H5B      7.0129   3.0815   2.0382   H         1 RES1   0.0000
    65 C10B     6.9827   4.4444   3.4898   C.ar      1 RES1   0.0000
    66 H6B      6.2996   4.9720   3.1156   H         1 RES1   0.0000
    67 C11B     7.5504   4.7893   4.6649   C.ar      1 RES1   0.0000
    68 H7B      7.2721   5.5611   5.1218   H         1 RES1   0.0000
    69 C12B     8.5532   3.9871   5.1839   C.ar      1 RES1   0.0000
    70 H8B      8.9632   4.2031   6.0018   H         1 RES1   0.0000
    71 N4B      9.5945   1.1626   6.0082   N.ar      1 RES1   0.0000
    72 C13B    10.4772   0.3654   6.6029   C.ar      1 RES1   0.0000
    73 C14B     9.9025  -0.5540   7.6276   C.ar      1 RES1   0.0000
    74 N5B     10.0272  -1.8690   7.3622   N.ar      1 RES1   0.0000
    75 C15B     9.5035  -2.7209   8.2525   C.ar      1 RES1   0.0000
    76 H9B      9.5761  -3.6432   8.0870   H         1 RES1   0.0000
    77 C16B     8.8698  -2.3096   9.3881   C.ar      1 RES1   0.0000
    78 H10B     8.5218  -2.9427   9.9898   H         1 RES1   0.0000
    79 C17B     8.7400  -0.9672   9.6495   C.ar      1 RES1   0.0000
    80 H11B     8.3066  -0.6673  10.4279   H         1 RES1   0.0000
    81 C18B     9.2627  -0.0635   8.7338   C.ar      1 RES1   0.0000
    82 H12B     9.1786   0.8627   8.8711   H         1 RES1   0.0000
    83 C19B    11.8354   0.3986   6.2588   C.ar      1 RES1   0.0000
    84 C20B    12.9827  -0.3107   6.8496   C.ar      1 RES1   0.0000
    85 N6B     14.1322  -0.1290   6.1424   N.ar      1 RES1   0.0000
    86 C21B    15.2503  -0.7357   6.5715   C.ar      1 RES1   0.0000
    87 H13B    16.0416  -0.6302   6.0732   H         1 RES1   0.0000
    88 C22B    15.2874  -1.5026   7.7109   C.ar      1 RES1   0.0000
    89 H14B    16.0846  -1.9227   7.9761   H         1 RES1   0.0000
    90 C23B    14.1421  -1.6502   8.4574   C.ar      1 RES1   0.0000
    91 H15B    14.1538  -2.1494   9.2546   H         1 RES1   0.0000
    92 C24B    12.9775  -1.0561   8.0212   C.ar      1 RES1   0.0000
    93 H16B    12.1834  -1.1548   8.5157   H         1 RES1   0.0000
    94 Cl1     17.2100   3.5380   1.2406   Cl        2 RES2  -1.0000
    95 O1      16.6057  -2.7463   4.3284   O.3       3 RES3   0.0000
    96 H17     16.9643  -2.9554   5.0466   H         3 RES3   0.0000
    97 C25     15.7243  -3.7126   3.9655   C.3       3 RES3   0.0000
    98 H18     15.1337  -3.9090   4.7100   H         3 RES3   0.0000
    99 H19     16.2098  -4.5157   3.7154   H         3 RES3   0.0000
   100 H20     15.1986  -3.4039   3.2096   H         3 RES3   0.0000
   101 O2      19.7633   4.0057  -0.3967   O.3       4 RES4   0.0000
   102 H21     19.1025   3.7566   0.0414   H         4 RES4   0.0000
   103 C26     20.8487   4.0438   0.4061   C.3       4 RES4   0.0000
   104 H22     20.8875   4.9026   0.8574   H         4 RES4   0.0000
   105 H23     21.6517   3.9217  -0.1260   H         4 RES4   0.0000
   106 H24     20.7897   3.3355   1.0661   H         4 RES4   0.0000
   107 O3      19.5551   1.8104  -2.1529   O.3       5 RES5   0.0000
   108 H25     19.1133   2.5128  -2.1755   H         5 RES5   0.0000
   109 C27     20.2406   1.6970  -3.2416   C.3       5 RES5   0.0000
   110 H26     19.9846   2.3985  -3.8602   H         5 RES5   0.0000
   111 H27     20.0688   0.8314  -3.6439   H         5 RES5   0.0000
   112 H28     21.1853   1.7762  -3.0366   H         5 RES5   0.0000
@<TRIPOS>BOND
     1     1     2    1
     2     2     3   ar
     3     3     4    1
     4     4     5   ar
     5     5     1    1
     6     6     5   ar
     7     7     6    1
     8     8     6   ar
     9     9     8    1
    10    10     8   ar
    11    11    10    1
    12    12     4   ar
    13    13    12    1
    14    14     3   ar
    15    15    14    1
    16    16    15   ar
    17    17    16   ar
    18    18    17    1
    19    19    17   ar
    20    20    19    1
    21    21    19   ar
    22    22    21    1
    23    23    15   ar
    24    24    23    1
    25    25    14   ar
    26    26    25   ar
    27    27    26    1
    28    28    27   ar
    29    29    28   ar
    30    30    29    1
    31    31    29   ar
    32    32    31    1
    33    33    31   ar
    34    34    33    1
    35    35    27   ar
    36    36    35    1
    37    37     2   ar
    38    38    37    1
    39    39     1    1
    40    40    39   ar
    41    41    40    1
    42    42    40   ar
    43    43    42    1
    44    44    42   ar
    45    45    44    1
    46    46    38   ar
    47    47    46    1
    48    48     1    1
    49    49    48   ar
    50    50    49    1
    51    51     1    1
    52    52    51   ar
    53    53    52    1
    54    54    52   ar
    55    55    54    1
    56    56    54   ar
    57    57    56    1
    58    58    50   ar
    59    59    58    1
    60    60    49   ar
    61    61    60    1
    62    62    61   ar
    63    63    62   ar
    64    64    63    1
    65    65    63   ar
    66    66    65    1
    67    67    65   ar
    68    68    67    1
    69    69    61   ar
    70    70    69    1
    71    71    60   ar
    72    72    71   ar
    73    73    72    1
    74    74    73   ar
    75    75    74   ar
    76    76    75    1
    77    77    75   ar
    78    78    77    1
    79    79    77   ar
    80    80    79    1
    81    81    73   ar
    82    82    81    1
    83    83    48   ar
    84    84    83    1
    85    85     1    1
    86    86    85   ar
    87    87    86    1
    88    88    86   ar
    89    89    88    1
    90    90    88   ar
    91    91    90    1
    92    92    84   ar
    93    93    92    1
    94    10    12   ar
    95    21    23   ar
    96    26    37   ar
    97    33    35   ar
    98    38    39   ar
    99    44    46   ar
   100    50    51   ar
   101    56    58   ar
   102    67    69   ar
   103    72    83   ar
   104    79    81   ar
   105    84    85   ar
   106    90    92   ar
   107    95    96    1
   108    97    95    1
   109    98    97    1
   110    99    97    1
   111   100    97    1
   112   101   102    1
   113   103   101    1
   114   104   103    1
   115   105   103    1
   116   106   103    1
   117   107   108    1
   118   109   107    1
   119   110   109    1
   120   111   109    1
   121   112   109    1
@<TRIPOS>SUBSTRUCTURE
     1 RES1        1 GROUP             0 ****  ****    0  
     2 RES2       94 GROUP             0 ****  ****    0  
     3 RES3       95 GROUP             0 ****  ****    0  
     4 RES4      101 GROUP             0 ****  ****    0  
     5 RES5      107 GROUP             0 ****  ****    0  
@<TRIPOS>CRYSIN
   29.0290    9.7700   18.9100   90.0000   96.1100   90.0000    15     1
