@<TRIPOS>MOLECULE
PCPOFE
    69    81     3     0     0
SMALL
NO_CHARGES
****
Generated from the CSD

@<TRIPOS>ATOM
     1 Fe1      1.4571   2.4723   6.1140   Fe        1 RES1   0.0000
     2 O1       1.3298   5.3729   6.1996   O.2       1 RES1   0.0000
     3 N1       3.4452   2.5736   5.6066   N.2       1 RES1   0.0000
     4 N2       0.9940   2.5359   4.1776   N.2       1 RES1   0.0000
     5 N3      -0.4775   2.3576   6.6187   N.2       1 RES1   0.0000
     6 N4       1.9622   2.3597   8.0664   N.2       1 RES1   0.0000
     7 N5       1.5603   0.3800   5.9556   N.ar      1 RES1   0.0000
     8 C1       1.3812   4.2454   6.1719   C.1       1 RES1   0.0000
     9 C2       0.5474  -0.2615   5.3852   C.ar      1 RES1   0.0000
    10 C3       0.6529  -1.6622   5.1002   C.ar      1 RES1   0.0000
    11 C4       1.8204  -2.3075   5.3898   C.ar      1 RES1   0.0000
    12 C5       2.8382  -1.6270   5.9808   C.ar      1 RES1   0.0000
    13 C6       2.6700  -0.2757   6.2865   C.ar      1 RES1   0.0000
    14 C7       4.4706   2.5989   6.5287   C.2       1 RES1   0.0000
    15 C8       5.7196   2.6485   5.7262   C.2       1 RES1   0.0000
    16 C9       5.3676   2.6581   4.4341   C.2       1 RES1   0.0000
    17 C10      3.9547   2.6006   4.3323   C.2       1 RES1   0.0000
    18 C11      3.1944   2.6036   3.1660   C.2       1 RES1   0.0000
    19 C12      1.8146   2.5427   3.1024   C.2       1 RES1   0.0000
    20 C13      1.0811   2.5848   1.8871   C.2       1 RES1   0.0000
    21 C14     -0.2251   2.6075   2.1935   C.2       1 RES1   0.0000
    22 C15     -0.3015   2.5515   3.6353   C.2       1 RES1   0.0000
    23 C16     -1.4667   2.5406   4.3604   C.2       1 RES1   0.0000
    24 C17     -1.5639   2.4729   5.7436   C.2       1 RES1   0.0000
    25 C18     -2.7722   2.4600   6.5186   C.2       1 RES1   0.0000
    26 C19     -2.4457   2.3857   7.7974   C.2       1 RES1   0.0000
    27 C20     -1.0007   2.3546   7.8838   C.2       1 RES1   0.0000
    28 C21     -0.2928   2.2936   9.0576   C.2       1 RES1   0.0000
    29 C22      1.0951   2.3034   9.1399   C.2       1 RES1   0.0000
    30 C23      1.8539   2.2606  10.3403   C.2       1 RES1   0.0000
    31 C24      3.1465   2.3079  10.0159   C.2       1 RES1   0.0000
    32 C25      3.2416   2.4066   8.5927   C.2       1 RES1   0.0000
    33 C26      4.4517   2.5222   7.9017   C.2       1 RES1   0.0000
    34 C27      3.9451   2.6208   1.8510   C.ar      1 RES1   0.0000
    35 C28      4.3936   3.8343   1.3387   C.ar      1 RES1   0.0000
    36 C29      5.0864   3.8670   0.1318   C.ar      1 RES1   0.0000
    37 C30      5.3308   2.6863  -0.5627   C.ar      1 RES1   0.0000
    38 C31      4.8823   1.4727  -0.0504   C.ar      1 RES1   0.0000
    39 C32      4.1895   1.4398   1.1564   C.ar      1 RES1   0.0000
    40 C33     -2.7840   2.5375   3.5975   C.ar      1 RES1   0.0000
    41 C34     -3.4645   1.3583   3.3098   C.ar      1 RES1   0.0000
    42 C35     -4.6257   1.3941   2.5436   C.ar      1 RES1   0.0000
    43 C36     -5.1071   2.6090   2.0653   C.ar      1 RES1   0.0000
    44 C37     -4.4273   3.7884   2.3532   C.ar      1 RES1   0.0000
    45 C38     -3.2646   3.7524   3.1192   C.ar      1 RES1   0.0000
    46 C39     -1.0784   2.3429  10.3426   C.ar      1 RES1   0.0000
    47 C40     -1.3264   3.5627  10.9647   C.ar      1 RES1   0.0000
    48 C41     -1.9739   3.5971  12.1964   C.ar      1 RES1   0.0000
    49 C42     -2.3733   2.4117  12.8062   C.ar      1 RES1   0.0000
    50 C43     -2.1253   1.1919  12.1842   C.ar      1 RES1   0.0000
    51 C44     -1.4778   1.1575  10.9523   C.ar      1 RES1   0.0000
    52 C45      5.7052   2.5437   8.6454   C.ar      1 RES1   0.0000
    53 C46      6.1805   1.3859   9.2536   C.ar      1 RES1   0.0000
    54 C47      7.3281   1.4336  10.0404   C.ar      1 RES1   0.0000
    55 C48      7.9997   2.6389  10.2190   C.ar      1 RES1   0.0000
    56 C49      7.5240   3.7968   9.6108   C.ar      1 RES1   0.0000
    57 C50      6.3764   3.7491   8.8240   C.ar      1 RES1   0.0000
    58 C51     -1.1038   7.4231   7.5703   C.ar      2 RES2   0.0000
    59 C52     -1.7910   8.6003   7.8534   C.ar      2 RES2   0.0000
    60 C53     -3.1615   8.5653   8.0956   C.ar      2 RES2   0.0000
    61 C54     -3.8445   7.3546   8.0546   C.ar      2 RES2   0.0000
    62 C55     -3.1577   6.1772   7.7713   C.ar      2 RES2   0.0000
    63 C56     -1.7872   6.2122   7.5291   C.ar      2 RES2   0.0000
    64 C57     -7.5220   7.8572   6.4177   C.ar      3 RES3   0.0000
    65 C58     -8.3183   8.8385   5.8353   C.ar      3 RES3   0.0000
    66 C59     -9.2909   8.4845   4.9044   C.ar      3 RES3   0.0000
    67 C60     -9.4671   7.1493   4.5560   C.ar      3 RES3   0.0000
    68 C61     -8.6709   6.1673   5.1384   C.ar      3 RES3   0.0000
    69 C62     -7.6984   6.5212   6.0693   C.ar      3 RES3   0.0000
@<TRIPOS>BOND
     1     1     3    1
     2     2     8    3
     3     3    14    1
     4     4     1    1
     5     5     1    1
     6     6     1    1
     7     7     1    1
     8     8     1    1
     9     9     7   ar
    10    10     9   ar
    11    11    10   ar
    12    12    11   ar
    13    13     7   ar
    14    14    15    2
    15    15    16    1
    16    16    17    2
    17    17     3    1
    18    18    17    1
    19    19     4    1
    20    20    19    1
    21    21    20    2
    22    22     4    2
    23    23    22    1
    24    24     5    1
    25    25    24    1
    26    26    25    2
    27    27     5    1
    28    28    27    2
    29    29     6    2
    30    30    29    1
    31    31    30    2
    32    32     6    1
    33    33    14    1
    34    34    18    1
    35    35    34   ar
    36    36    35   ar
    37    37    36   ar
    38    38    37   ar
    39    39    34   ar
    40    40    23    1
    41    41    40   ar
    42    42    41   ar
    43    43    42   ar
    44    44    43   ar
    45    45    40   ar
    46    46    28    1
    47    47    46   ar
    48    48    47   ar
    49    49    48   ar
    50    50    49   ar
    51    51    46   ar
    52    52    33    1
    53    53    52   ar
    54    54    53   ar
    55    55    54   ar
    56    56    55   ar
    57    57    52   ar
    58    12    13   ar
    59    18    19    2
    60    21    22    1
    61    23    24    2
    62    26    27    1
    63    28    29    1
    64    31    32    1
    65    32    33    2
    66    38    39   ar
    67    44    45   ar
    68    50    51   ar
    69    56    57   ar
    70    58    59   ar
    71    59    60   ar
    72    60    61   ar
    73    61    62   ar
    74    62    63   ar
    75    63    58   ar
    76    64    65   ar
    77    65    66   ar
    78    66    67   ar
    79    67    68   ar
    80    68    69   ar
    81    69    64   ar
@<TRIPOS>SUBSTRUCTURE
     1 RES1        1 GROUP             0 ****  ****    0  
     2 RES2       58 GROUP             0 ****  ****    0  
     3 RES3       64 GROUP             0 ****  ****    0  
@<TRIPOS>CRYSIN
   13.2460   19.5550   19.8220   90.0000  105.4900   90.0000    14     1
