@<TRIPOS>MOLECULE
PECKEP
   107   111     9     0     0
SMALL
USER_CHARGES
****
Generated from the CSD

@<TRIPOS>ATOM
     1 C1      17.1095  17.6653   9.4842   C.ar      1 RES1   0.0000
     2 H1      16.4736  17.7481   8.8105   H         1 RES1   0.0000
     3 C2      18.3229  18.3010   9.3195   C.ar      1 RES1   0.0000
     4 H2      18.4845  18.7840   8.5405   H         1 RES1   0.0000
     5 C3      19.2913  18.2443  10.2824   C.ar      1 RES1   0.0000
     6 H3      20.1011  18.6900  10.1815   H         1 RES1   0.0000
     7 C4      19.0200  17.4874  11.4234   C.ar      1 RES1   0.0000
     8 C5      19.9890  17.2802  12.4888   C.ar      1 RES1   0.0000
     9 H4      20.8344  17.6616  12.4190   H         1 RES1   0.0000
    10 C6      19.6839  16.5558  13.5749   C.ar      1 RES1   0.0000
    11 H5      20.3017  16.4880  14.2663   H         1 RES1   0.0000
    12 C7      18.4174  15.8770  13.6906   C.ar      1 RES1   0.0000
    13 C8      18.0362  15.0380  14.7589   C.ar      1 RES1   0.0000
    14 H6      18.6151  14.9032  15.4741   H         1 RES1   0.0000
    15 C9      16.8165  14.4274  14.7396   C.ar      1 RES1   0.0000
    16 H7      16.5647  13.8664  15.4370   H         1 RES1   0.0000
    17 C10     15.9417  14.6419  13.6639   C.ar      1 RES1   0.0000
    18 H8      15.1201  14.2069  13.6624   H         1 RES1   0.0000
    19 C11     17.4745  16.0430  12.6461   C.ar      1 RES1   0.0000
    20 C12     17.8038  16.8478  11.5332   C.ar      1 RES1   0.0000
    21 C13     16.5958  13.2814  10.3908   C.ar      1 RES1   0.0000
    22 H9      16.8733  13.2414  11.2780   H         1 RES1   0.0000
    23 C14     16.9805  12.2559   9.5420   C.ar      1 RES1   0.0000
    24 H10     17.4370  11.5174   9.8744   H         1 RES1   0.0000
    25 C15     16.6617  12.3048   8.1918   C.ar      1 RES1   0.0000
    26 H11     16.9595  11.6423   7.6117   H         1 RES1   0.0000
    27 C16     15.8792  13.4072   7.7141   C.ar      1 RES1   0.0000
    28 C17     15.4402  13.5588   6.4024   C.ar      1 RES1   0.0000
    29 H12     15.6557  12.9072   5.7748   H         1 RES1   0.0000
    30 C18     14.6783  14.6564   6.0196   C.ar      1 RES1   0.0000
    31 H13     14.4608  14.7706   5.1219   H         1 RES1   0.0000
    32 C19     14.2476  15.5890   6.9618   C.ar      1 RES1   0.0000
    33 C20     13.4023  16.6941   6.6843   C.ar      1 RES1   0.0000
    34 H14     13.1043  16.8367   5.8148   H         1 RES1   0.0000
    35 C21     13.0212  17.5357   7.6681   C.ar      1 RES1   0.0000
    36 H15     12.4641  18.2565   7.4826   H         1 RES1   0.0000
    37 C22     13.4930  17.3113   9.0005   C.ar      1 RES1   0.0000
    38 H16     13.2097  17.8805   9.6800   H         1 RES1   0.0000
    39 C23     14.6686  15.4359   8.2794   C.ar      1 RES1   0.0000
    40 C24     15.5008  14.3542   8.6726   C.ar      1 RES1   0.0000
    41 C25     13.2806  13.6281  11.5718   C.ar      1 RES1   0.0000
    42 H17     13.8362  13.0567  11.0926   H         1 RES1   0.0000
    43 C26     12.1092  13.1054  12.1727   C.ar      1 RES1   0.0000
    44 H18     11.9153  12.1992  12.0926   H         1 RES1   0.0000
    45 C27     11.2582  13.9228  12.8790   C.ar      1 RES1   0.0000
    46 H19     10.4858  13.5761  13.2618   H         1 RES1   0.0000
    47 C28     11.5826  15.2958  13.0185   C.ar      1 RES1   0.0000
    48 C29     10.7740  16.2066  13.6936   C.ar      1 RES1   0.0000
    49 H20      9.9832  15.9306  14.0972   H         1 RES1   0.0000
    50 C30     11.1596  17.5377  13.7841   C.ar      1 RES1   0.0000
    51 H21     10.6040  18.1357  14.2322   H         1 RES1   0.0000
    52 C31     12.3462  17.9902  13.2114   C.ar      1 RES1   0.0000
    53 C32     12.8257  19.3620  13.2900   C.ar      1 RES1   0.0000
    54 H22     12.3309  20.0073  13.7411   H         1 RES1   0.0000
    55 C33     13.9807  19.6680  12.7024   C.ar      1 RES1   0.0000
    56 H23     14.2853  20.5465  12.7188   H         1 RES1   0.0000
    57 C34     14.7485  18.6827  12.0570   C.ar      1 RES1   0.0000
    58 H24     15.5697  18.9267  11.6965   H         1 RES1   0.0000
    59 C35     13.1527  17.0801  12.5348   C.ar      1 RES1   0.0000
    60 C36     12.7574  15.7471  12.4220   C.ar      1 RES1   0.0000
    61 Fe1     15.2032  15.8842  11.0139   Fe        1 RES1   2.0000
    62 N1      16.8075  16.9166  10.5635   N.ar      1 RES1   0.0000
    63 N2      16.2436  15.4508  12.6336   N.ar      1 RES1   0.0000
    64 N3      15.8633  14.3243   9.9809   N.ar      1 RES1   0.0000
    65 N4      14.3179  16.3100   9.2993   N.ar      1 RES1   0.0000
    66 N5      13.6133  14.9421  11.6724   N.ar      1 RES1   0.0000
    67 N6      14.3471  17.4079  11.9300   N.ar      1 RES1   0.0000
    68 C37     12.3597   3.5146   5.8564   C.2       2 RES2   0.0000
    69 C38     11.8287   4.2172   4.7065   C.ar      2 RES2   0.0000
    70 C39     11.0393   5.3770   4.8148   C.ar      2 RES2   0.0000
    71 H25     10.8137   5.7131   5.6516   H         2 RES2   0.0000
    72 C40     10.5935   5.9949   3.6901   C.ar      2 RES2   0.0000
    73 H26     10.0422   6.7393   3.7702   H         2 RES2   0.0000
    74 C41     10.9476   5.5460   2.4141   C.ar      2 RES2   0.0000
    75 H27     12.6411   2.9512   3.3548   H         2 RES2   0.0000
    76 C42     11.7286   4.3937   2.2894   C.ar      2 RES2   0.0000
    77 H28     11.9647   4.0730   1.4481   H         2 RES2   0.0000
    78 C43     12.1463   3.7368   3.4379   C.ar      2 RES2   0.0000
    79 N7      10.5634   6.1856   1.2584   N.pl3     2 RES2   0.0000
    80 H29     10.6538   5.6277   0.5698   H         2 RES2   0.0000
    81 H30      9.7099   6.4302   1.3294   H         2 RES2   0.0000
    82 O1      11.8604   3.7471   7.0231   O.3       2 RES2   0.0000
    83 H31     12.1914   3.2998   7.7675   H         2 RES2   0.0000
    84 O2      13.2599   2.7030   5.7868   O.2       2 RES2   0.0000
    85 N8       7.6466   8.4272   1.7591   N.pl3     3 RES3   0.0000
    86 O3       8.2651   8.9555   2.6599   O.3       3 RES3  -1.0000
    87 O4       6.5021   8.0419   1.9600   O.2       3 RES3   0.0000
    88 O5       8.1455   8.2712   0.6718   O.2       3 RES3   0.0000
    89 N9       4.3836   7.6788  10.7878   N.pl3     4 RES4   0.0000
    90 O6       4.7856   6.6918  10.1379   O.3       4 RES4  -1.0000
    91 O7       3.4226   7.5822  11.5239   O.2       4 RES4   0.0000
    92 O8       4.9625   8.7415  10.6939   O.2       4 RES4   0.0000
    93 O9       4.3073   6.1995   1.9808   O.3       5 RES5   0.0000
    94 H32      4.7119   5.3401   1.7805   H         5 RES5   0.0000
    95 H33      4.8876   6.7184   2.3206   H         5 RES5   0.0000
    96 O10      4.5787   8.2737   6.4440   O.3       6 RES6   0.0000
    97 H34      4.5306   7.9152   5.6769   H         6 RES6   0.0000
    98 H35      3.9072   8.0408   6.9099   H         6 RES6   0.0000
    99 O11      6.9946   8.7908   8.0212   O.3       7 RES7   0.0000
   100 H36      6.7780   9.1619   8.7557   H         7 RES7   0.0000
   101 H37      7.3877   8.0549   8.1814   H         7 RES7   0.0000
   102 O12      8.8139   8.6324   6.4974   O.3       8 RES8   0.0000
   103 H38      9.5428   8.7727   6.9113   H         8 RES8   0.0000
   104 H39      8.7220   9.2119   5.8816   H         8 RES8   0.0000
   105 O13      6.1156  10.3671  14.5794   O.3       9 RES9   0.0000
   106 H40      5.5107  10.3168  13.9859   H         9 RES9   0.0000
   107 H41      5.8071  10.7637  15.2664   H         9 RES9   0.0000
@<TRIPOS>BOND
     1     1     2    1
     2     3     1   ar
     3     4     3    1
     4     5     3   ar
     5     6     5    1
     6     7     5   ar
     7     8     7   ar
     8     9     8    1
     9    10     8   ar
    10    11    10    1
    11    12    10   ar
    12    13    12   ar
    13    14    13    1
    14    15    13   ar
    15    16    15    1
    16    17    15   ar
    17    18    17    1
    18    19    12   ar
    19    20     7   ar
    20    21    22    1
    21    23    21   ar
    22    24    23    1
    23    25    23   ar
    24    26    25    1
    25    27    25   ar
    26    28    27   ar
    27    29    28    1
    28    30    28   ar
    29    31    30    1
    30    32    30   ar
    31    33    32   ar
    32    34    33    1
    33    35    33   ar
    34    36    35    1
    35    37    35   ar
    36    38    37    1
    37    39    32   ar
    38    40    27   ar
    39    41    42    1
    40    43    41   ar
    41    44    43    1
    42    45    43   ar
    43    46    45    1
    44    47    45   ar
    45    48    47   ar
    46    49    48    1
    47    50    48   ar
    48    51    50    1
    49    52    50   ar
    50    53    52   ar
    51    54    53    1
    52    55    53   ar
    53    56    55    1
    54    57    55   ar
    55    58    57    1
    56    59    52   ar
    57    60    47   ar
    58    61    62    1
    59    62     1   ar
    60    63    17   ar
    61    64    21   ar
    62    65    37   ar
    63    66    41   ar
    64    67    57   ar
    65    19    20   ar
    66    19    63   ar
    67    20    62   ar
    68    39    40   ar
    69    39    65   ar
    70    40    64   ar
    71    59    60   ar
    72    59    67   ar
    73    60    66   ar
    74    61    63    1
    75    61    64    1
    76    61    65    1
    77    61    66    1
    78    61    67    1
    79    68    69    1
    80    69    70   ar
    81    70    71    1
    82    72    70   ar
    83    73    72    1
    84    74    72   ar
    85    75    78    1
    86    76    74   ar
    87    77    76    1
    88    78    69   ar
    89    79    74    1
    90    80    79    1
    91    81    79    1
    92    82    68    1
    93    83    82    1
    94    84    68    2
    95    76    78   ar
    96    85    86    1
    97    87    85    2
    98    88    85    2
    99    89    90    1
   100    91    89    2
   101    92    89    2
   102    93    94    1
   103    95    93    1
   104    96    97    1
   105    98    96    1
   106    99   100    1
   107   101    99    1
   108   102   103    1
   109   104   102    1
   110   105   106    1
   111   107   105    1
@<TRIPOS>SUBSTRUCTURE
     1 RES1        1 GROUP             0 ****  ****    0  
     2 RES2       68 GROUP             0 ****  ****    0  
     3 RES3       85 GROUP             0 ****  ****    0  
     4 RES4       89 GROUP             0 ****  ****    0  
     5 RES5       93 GROUP             0 ****  ****    0  
     6 RES6       96 GROUP             0 ****  ****    0  
     7 RES7       99 GROUP             0 ****  ****    0  
     8 RES8      102 GROUP             0 ****  ****    0  
     9 RES9      105 GROUP             0 ****  ****    0  
@<TRIPOS>CRYSIN
   12.7835   13.5070   15.7852   71.0240   87.2630   64.2910     2     1
