@<TRIPOS>MOLECULE
PEDTEB
   113   119     3     0     0
SMALL
USER_CHARGES
****
Generated from the CSD

@<TRIPOS>ATOM
     1 Fe1      3.3047   8.1384   5.8833   Fe        1 RES1   1.0000
     2 S1       1.8493   6.4984   6.3763   S.3       1 RES1   0.0000
     3 S2       3.5860   8.5432   8.0874   S.3       1 RES1   0.0000
     4 O1       4.7641   9.2837   5.4564   O.3       1 RES1   0.0000
     5 O2       2.8881   8.0826   4.0198   O.3       1 RES1   0.0000
     6 N1       4.6002   6.7747   5.6527   N.2       1 RES1   0.0000
     7 N2       2.1607   9.6446   5.8664   N.2       1 RES1   0.0000
     8 C1       2.4879   9.2574   3.6057   C.ar      1 RES1   0.0000
     9 C2       5.6807   7.1954   4.9373   C.ar      1 RES1   0.0000
    10 C3       6.8540   9.2944   4.2944   C.ar      1 RES1   0.0000
    11 C4       4.3496   5.4621   6.1086   C.ar      1 RES1   0.0000
    12 C5       6.6443   6.4246   4.2505   C.ar      1 RES1   0.0000
    13 H1       6.5671   5.4978   4.2195   H         1 RES1   0.0000
    14 C6       7.6972   7.0538   3.6305   C.ar      1 RES1   0.0000
    15 C7       2.0729  10.1883   4.6149   C.ar      1 RES1   0.0000
    16 C8       2.3525   9.8355   8.2224   C.ar      1 RES1   0.0000
    17 C9       5.3292   4.4588   6.2746   C.ar      1 RES1   0.0000
    18 H2       6.2161   4.6322   6.0534   H         1 RES1   0.0000
    19 C10      2.4742   9.6240   2.2378   C.ar      1 RES1   0.0000
    20 C11      3.0503   5.1743   6.5055   C.ar      1 RES1   0.0000
    21 C12      5.7236   8.6318   4.8915   C.ar      1 RES1   0.0000
    22 C13      1.7184  10.2511   7.0549   C.ar      1 RES1   0.0000
    23 C14      7.7803   8.4773   3.6896   C.ar      1 RES1   0.0000
    24 H3       8.5149   8.8817   3.2889   H         1 RES1   0.0000
    25 C15      1.7242  11.5172   4.2505   C.ar      1 RES1   0.0000
    26 H4       1.4882  12.1293   4.9092   H         1 RES1   0.0000
    27 C16      4.9699   3.2242   6.7630   C.ar      1 RES1   0.0000
    28 H5       5.6166   2.5600   6.8392   H         1 RES1   0.0000
    29 C17      0.6761  11.1866   7.1732   C.ar      1 RES1   0.0000
    30 H6       0.2077  11.4601   6.4170   H         1 RES1   0.0000
    31 C18      6.9470  10.8156   4.2963   C.3       1 RES1   0.0000
    32 C19      1.7328  11.9002   2.9456   C.ar      1 RES1   0.0000
    33 C20      1.4726   6.7443   8.1538   C.3       1 RES1   0.0000
    34 H7       0.7970   7.4338   8.2499   H         1 RES1   0.0000
    35 H8       1.1190   5.9221   8.5275   H         1 RES1   0.0000
    36 C21      2.9357   8.6478   1.1504   C.3       1 RES1   0.0000
    37 C22      2.7158   7.1478   8.9111   C.3       1 RES1   0.0000
    38 H9       3.3148   6.3880   8.9723   H         1 RES1   0.0000
    39 H10      2.4714   7.4102   9.8123   H         1 RES1   0.0000
    40 C23      8.7622   6.2881   2.8483   C.3       1 RES1   0.0000
    41 C24      3.6770   2.9478   7.1407   C.ar      1 RES1   0.0000
    42 H11      3.4573   2.1092   7.4775   H         1 RES1   0.0000
    43 C25      2.0899  10.9099   1.9574   C.ar      1 RES1   0.0000
    44 H12      2.0563  11.1630   1.0640   H         1 RES1   0.0000
    45 C26      2.0489  10.3746   9.4587   C.ar      1 RES1   0.0000
    46 H13      2.5246  10.1187  10.2152   H         1 RES1   0.0000
    47 C27      2.6963   3.9329   7.0148   C.ar      1 RES1   0.0000
    48 H14      1.8182   3.7592   7.2682   H         1 RES1   0.0000
    49 C28      4.4211   8.2593   1.3774   C.3       1 RES1   0.0000
    50 H15      4.9652   9.0504   1.3618   H         1 RES1   0.0000
    51 H16      4.7053   7.6629   0.6798   H         1 RES1   0.0000
    52 H17      4.5127   7.8241   2.2273   H         1 RES1   0.0000
    53 C29      0.3474  11.6999   8.4151   C.ar      1 RES1   0.0000
    54 H18     -0.3409  12.3210   8.4877   H         1 RES1   0.0000
    55 C30      8.4915   4.7974   2.7987   C.3       1 RES1   0.0000
    56 H19      8.4481   4.4495   3.6917   H         1 RES1   0.0000
    57 H20      9.1978   4.3591   2.3179   H         1 RES1   0.0000
    58 H21      7.6556   4.6387   2.3524   H         1 RES1   0.0000
    59 C31      8.8094   6.8363   1.4175   C.3       1 RES1   0.0000
    60 H22      7.9453   6.7426   1.0101   H         1 RES1   0.0000
    61 H23      9.4581   6.3446   0.9076   H         1 RES1   0.0000
    62 H24      9.0552   7.7638   1.4377   H         1 RES1   0.0000
    63 C32      5.7747  11.4301   3.5294   C.3       1 RES1   0.0000
    64 H25      5.7762  11.1024   2.6267   H         1 RES1   0.0000
    65 H26      5.8625  12.3857   3.5230   H         1 RES1   0.0000
    66 H27      4.9506  11.1866   3.9567   H         1 RES1   0.0000
    67 C33      1.4368  13.3159   2.4686   C.3       1 RES1   0.0000
    68 C34     10.1212   6.5253   3.5446   C.3       1 RES1   0.0000
    69 H28     10.3020   7.4675   3.5806   H         1 RES1   0.0000
    70 H29     10.8157   6.0848   3.0497   H         1 RES1   0.0000
    71 H30     10.0895   6.1714   4.4364   H         1 RES1   0.0000
    72 C35      1.0296  11.3001   9.5522   C.ar      1 RES1   0.0000
    73 H31      0.7997  11.6557  10.3797   H         1 RES1   0.0000
    74 C36      8.2417  11.3197   3.6495   C.3       1 RES1   0.0000
    75 H32      8.9957  10.9418   4.1081   H         1 RES1   0.0000
    76 H33      8.2776  12.2774   3.7107   H         1 RES1   0.0000
    77 H34      8.2628  11.0568   2.7271   H         1 RES1   0.0000
    78 C37      2.0717   7.3938   1.1656   C.3       1 RES1   0.0000
    79 H35      2.1114   6.9879   2.0353   H         1 RES1   0.0000
    80 H36      2.3963   6.7736   0.5087   H         1 RES1   0.0000
    81 H37      1.1633   7.6283   0.9635   H         1 RES1   0.0000
    82 C38      2.8459   9.2685  -0.2556   C.3       1 RES1   0.0000
    83 H38      1.9371   9.5192  -0.4365   H         1 RES1   0.0000
    84 H39      3.1377   8.6277  -0.9070   H         1 RES1   0.0000
    85 H40      3.4068  10.0469  -0.2978   H         1 RES1   0.0000
    86 C39      6.9275  11.3298   5.7538   C.3       1 RES1   0.0000
    87 H41      6.1220  11.0352   6.1854   H         1 RES1   0.0000
    88 H42      6.9590  12.2888   5.7550   H         1 RES1   0.0000
    89 H43      7.6883  10.9830   6.2247   H         1 RES1   0.0000
    90 C40      0.2141  13.3016   1.5586   C.3       1 RES1   0.0000
    91 H44      0.3643  12.6933   0.8309   H         1 RES1   0.0000
    92 H45      0.0630  14.1839   1.2118   H         1 RES1   0.0000
    93 H46     -0.5540  13.0182   2.0593   H         1 RES1   0.0000
    94 C41      2.6486  13.8543   1.7074   C.3       1 RES1   0.0000
    95 H47      3.4190  13.8388   2.2804   H         1 RES1   0.0000
    96 H48      2.4767  14.7558   1.4268   H         1 RES1   0.0000
    97 H49      2.8127  13.3050   0.9368   H         1 RES1   0.0000
    98 C42      1.1615  14.2680   3.6572   C.3       1 RES1   0.0000
    99 H50      0.4104  13.9436   4.1600   H         1 RES1   0.0000
   100 H51      0.9693  15.1477   3.3259   H         1 RES1   0.0000
   101 H52      1.9352  14.3019   4.2255   H         1 RES1   0.0000
   102 P1      -0.5929   7.5231  11.8432   P.3       2 RES2  -1.0000
   103 F1       0.4202   7.6359  13.0741   F         2 RES2   0.0000
   104 F2      -1.6394   8.4295  12.6286   F         2 RES2   0.0000
   105 F3      -1.2292   6.2078  12.4922   F         2 RES2   0.0000
   106 F4       0.4739   6.6196  11.0608   F         2 RES2   0.0000
   107 F5       0.0406   8.8212  11.1741   F         2 RES2   0.0000
   108 F6      -1.6147   7.3796  10.6239   F         2 RES2   0.0000
   109 Cl1      1.8884   3.4831  10.8126   Cl        3 RES3   0.0000
   110 Cl2     -0.6038   2.2677  11.7589   Cl        3 RES3   0.0000
   111 C43      0.2934   3.7690  11.5057   C.3       3 RES3   0.0000
   112 H53     -0.2131   4.3465  10.9126   H         3 RES3   0.0000
   113 H54      0.3921   4.2282  12.3546   H         3 RES3   0.0000
@<TRIPOS>BOND
     1     1     2    1
     2     2    20    1
     3     3     1    1
     4     4     1    1
     5     5     1    1
     6     6     1    1
     7     7     1    1
     8     8     5    1
     9     9     6    1
    10    10    21   ar
    11    11     6    1
    12    12     9   ar
    13    13    12    1
    14    14    12   ar
    15    15     7    1
    16    16     3    1
    17    17    11   ar
    18    18    17    1
    19    19     8   ar
    20    20    11   ar
    21    21     4    1
    22    22     7    1
    23    23    10   ar
    24    24    23    1
    25    25    15   ar
    26    26    25    1
    27    27    17   ar
    28    28    27    1
    29    29    22   ar
    30    30    29    1
    31    31    10    1
    32    32    25   ar
    33    33     2    1
    34    34    33    1
    35    35    33    1
    36    36    19    1
    37    37     3    1
    38    38    37    1
    39    39    37    1
    40    40    14    1
    41    41    27   ar
    42    42    41    1
    43    43    19   ar
    44    44    43    1
    45    45    16   ar
    46    46    45    1
    47    47    20   ar
    48    48    47    1
    49    49    36    1
    50    50    49    1
    51    51    49    1
    52    52    49    1
    53    53    29   ar
    54    54    53    1
    55    55    40    1
    56    56    55    1
    57    57    55    1
    58    58    55    1
    59    59    40    1
    60    60    59    1
    61    61    59    1
    62    62    59    1
    63    63    31    1
    64    64    63    1
    65    65    63    1
    66    66    63    1
    67    67    32    1
    68    68    40    1
    69    69    68    1
    70    70    68    1
    71    71    68    1
    72    72    45   ar
    73    73    72    1
    74    74    31    1
    75    75    74    1
    76    76    74    1
    77    77    74    1
    78    78    36    1
    79    79    78    1
    80    80    78    1
    81    81    78    1
    82    82    36    1
    83    83    82    1
    84    84    82    1
    85    85    82    1
    86    86    31    1
    87    87    86    1
    88    88    86    1
    89    89    86    1
    90    90    67    1
    91    91    90    1
    92    92    90    1
    93    93    90    1
    94    94    67    1
    95    95    94    1
    96    96    94    1
    97    97    94    1
    98    98    67    1
    99    99    98    1
   100   100    98    1
   101   101    98    1
   102     8    15   ar
   103     9    21   ar
   104    14    23   ar
   105    16    22   ar
   106    32    43   ar
   107    33    37    1
   108    41    47   ar
   109    53    72   ar
   110   102   103    1
   111   104   102    1
   112   105   102    1
   113   106   102    1
   114   107   102    1
   115   108   102    1
   116   109   111    1
   117   110   111    1
   118   111   112    1
   119   113   111    1
@<TRIPOS>SUBSTRUCTURE
     1 RES1        1 GROUP             0 ****  ****    0  
     2 RES2      102 GROUP             0 ****  ****    0  
     3 RES3      109 GROUP             0 ****  ****    0  
@<TRIPOS>CRYSIN
   10.8296   11.2024   19.1350   90.1170   94.4240   93.1800     2     1
