@<TRIPOS>MOLECULE
PEWHAC
   100   108     2     0     0
SMALL
USER_CHARGES
****
Generated from the CSD

@<TRIPOS>ATOM
     1 Fe1      7.9332   5.9992  16.1749   Fe        1 RES1   1.0000
     2 S1      12.1018   6.5097  18.5100   S.2       1 RES1   0.0000
     3 N1       7.6009   9.6214  13.7395   N.pl3     1 RES1   0.0000
     4 N2       7.8876   7.8639  14.9899   N.2       1 RES1   0.0000
     5 N3       7.3409   7.5058  17.6223   N.2       1 RES1   0.0000
     6 N4       7.7430   4.2914  17.6729   N.3       1 RES1   0.0000
     7 N5       8.3573   4.3984  14.8105   N.2       1 RES1   0.0000
     8 N6       6.0274   5.6773  15.0458   N.2       1 RES1   0.0000
     9 N7       4.2451   5.5968  13.7943   N.pl3     1 RES1   0.0000
    10 N8       9.9399   6.2520  16.8044   N.2       1 RES1   0.0000
    11 C1       8.4491   7.5600  12.5949   C.3       1 RES1   0.0000
    12 C2       7.9819   8.3235  13.7661   C.2       1 RES1   0.0000
    13 C3       7.2408  10.0063  14.9887   C.2       1 RES1   0.0000
    14 C4       7.4119   8.9146  15.7688   C.2       1 RES1   0.0000
    15 C5       7.2061   8.6907  17.1632   C.2       1 RES1   0.0000
    16 C6       7.2363   7.2909  19.0649   C.3       1 RES1   0.0000
    17 C7       6.7553   5.9036  19.4001   C.3       1 RES1   0.0000
    18 C8       7.7378   4.7944  19.0709   C.3       1 RES1   0.0000
    19 C9       6.4754   3.5605  17.4237   C.3       1 RES1   0.0000
    20 C10      8.8751   3.3329  17.5842   C.3       1 RES1   0.0000
    21 C11      9.0979   2.6198  16.2539   C.3       1 RES1   0.0000
    22 C12      9.4689   3.4914  15.0733   C.3       1 RES1   0.0000
    23 C13      7.4593   4.0523  13.9864   C.2       1 RES1   0.0000
    24 C14      6.2157   4.7742  14.0006   C.2       1 RES1   0.0000
    25 C15      5.1030   4.7214  13.2421   C.2       1 RES1   0.0000
    26 C16      4.8141   6.1602  14.8986   C.2       1 RES1   0.0000
    27 C17      4.1627   7.1450  15.7801   C.3       1 RES1   0.0000
    28 C18     10.8389   6.3803  17.5179   C.1       1 RES1   0.0000
    29 H1       7.5962  10.1622  12.9816   H         1 RES1   0.0000
    30 H2       3.3901   5.7867  13.4796   H         1 RES1   0.0000
    31 H3       9.2336   8.0065  12.2127   H         1 RES1   0.0000
    32 H4       8.6940   6.6545  12.8754   H         1 RES1   0.0000
    33 H5       7.7398   7.5135  11.9210   H         1 RES1   0.0000
    34 H6       6.9334  10.8426  15.2571   H         1 RES1   0.0000
    35 H7       6.9810   9.3950  17.7284   H         1 RES1   0.0000
    36 H8       8.1354   7.4179  19.4370   H         1 RES1   0.0000
    37 H9       6.6352   7.9738  19.4287   H         1 RES1   0.0000
    38 H10      6.5276   5.8634  20.3518   H         1 RES1   0.0000
    39 H11      5.9493   5.7502  18.8640   H         1 RES1   0.0000
    40 H12      7.5617   4.0221  19.6475   H         1 RES1   0.0000
    41 H13      8.6412   5.1314  19.2432   H         1 RES1   0.0000
    42 H14      5.7174   4.1743  17.5137   H         1 RES1   0.0000
    43 H15      6.4886   3.1883  16.5177   H         1 RES1   0.0000
    44 H16      6.3876   2.8336  18.0742   H         1 RES1   0.0000
    45 H17      9.6826   3.8511  17.7825   H         1 RES1   0.0000
    46 H18      8.7330   2.6663  18.2889   H         1 RES1   0.0000
    47 H19      9.8064   1.9545  16.3781   H         1 RES1   0.0000
    48 H20      8.2587   2.1670  16.0301   H         1 RES1   0.0000
    49 H21      9.6256   2.9707  14.2569   H         1 RES1   0.0000
    50 H22     10.2599   4.0372  15.2654   H         1 RES1   0.0000
    51 H23      7.6002   3.3530  13.3900   H         1 RES1   0.0000
    52 H24      4.9652   4.1919  12.4919   H         1 RES1   0.0000
    53 H25      3.3518   6.7652  16.1760   H         1 RES1   0.0000
    54 H26      4.7850   7.4016  16.4906   H         1 RES1   0.0000
    55 H27      3.9279   7.9348  15.2508   H         1 RES1   0.0000
    56 C19      3.6377  11.1483  19.3397   C.ar      2 RES2   0.0000
    57 C20      2.6035  11.4715  20.2226   C.ar      2 RES2   0.0000
    58 C21      1.8804  10.5244  20.9265   C.ar      2 RES2   0.0000
    59 C22      2.1521   9.1888  20.7768   C.ar      2 RES2   0.0000
    60 C23      3.1512   8.8165  19.9288   C.ar      2 RES2   0.0000
    61 C24      3.8729   9.7723  19.2286   C.ar      2 RES2   0.0000
    62 C25      6.1298  11.8941  18.6444   C.ar      2 RES2   0.0000
    63 C26      6.6806  11.2388  19.7656   C.ar      2 RES2   0.0000
    64 C27      8.0295  10.9973  19.9123   C.ar      2 RES2   0.0000
    65 C28      8.9220  11.3797  18.9390   C.ar      2 RES2   0.0000
    66 C29      8.4309  12.0186  17.8205   C.ar      2 RES2   0.0000
    67 C30      7.0819  12.2726  17.6969   C.ar      2 RES2   0.0000
    68 C31      4.2650  13.7240  19.1955   C.ar      2 RES2   0.0000
    69 C32      5.0576  14.2158  20.2367   C.ar      2 RES2   0.0000
    70 C33      4.8135  15.4181  20.8669   C.ar      2 RES2   0.0000
    71 C34      3.7513  16.1954  20.4897   C.ar      2 RES2   0.0000
    72 C35      2.9336  15.7426  19.4812   C.ar      2 RES2   0.0000
    73 C36      3.1992  14.5428  18.8473   C.ar      2 RES2   0.0000
    74 C37      4.1566  12.2550  16.9074   C.ar      2 RES2   0.0000
    75 C38      4.4131  13.3492  16.0993   C.ar      2 RES2   0.0000
    76 C39      4.2878  13.3040  14.7007   C.ar      2 RES2   0.0000
    77 C40      3.8701  12.1506  14.0922   C.ar      2 RES2   0.0000
    78 C41      3.5709  11.0829  14.8570   C.ar      2 RES2   0.0000
    79 C42      3.7179  11.1118  16.2191   C.ar      2 RES2   0.0000
    80 B1       4.5297  12.2525  18.5231   B         2 RES2  -1.0000
    81 H28      2.4014  12.3720  20.3413   H         2 RES2   0.0000
    82 H29      1.2043  10.7923  21.5061   H         2 RES2   0.0000
    83 H30      1.6654   8.5524  21.2478   H         2 RES2   0.0000
    84 H31      3.3467   7.9122  19.8246   H         2 RES2   0.0000
    85 H32      4.5435   9.4856  18.6514   H         2 RES2   0.0000
    86 H33      6.0997  10.9483  20.4309   H         2 RES2   0.0000
    87 H34      8.3429  10.5785  20.6810   H         2 RES2   0.0000
    88 H35      9.8304  11.2023  19.0328   H         2 RES2   0.0000
    89 H36      9.0178  12.2877  17.1512   H         2 RES2   0.0000
    90 H37      6.7805  12.7191  16.9386   H         2 RES2   0.0000
    91 H38      5.7777  13.7001  20.5185   H         2 RES2   0.0000
    92 H39      5.3797  15.7074  21.5457   H         2 RES2   0.0000
    93 H40      3.5802  17.0079  20.9102   H         2 RES2   0.0000
    94 H41      2.1964  16.2457  19.2224   H         2 RES2   0.0000
    95 H42      2.6375  14.2636  18.1597   H         2 RES2   0.0000
    96 H43      4.6646  14.1416  16.5156   H         2 RES2   0.0000
    97 H44      4.4797  14.0598  14.1964   H         2 RES2   0.0000
    98 H45      3.8175  12.1054  13.1650   H         2 RES2   0.0000
    99 H46      3.2520  10.3144  14.4423   H         2 RES2   0.0000
   100 H47      3.5085  10.3546  16.7157   H         2 RES2   0.0000
@<TRIPOS>BOND
     1     1     4    1
     2     2    28    2
     3     3    12    1
     4     4    12    2
     5     5     1    1
     6     6     1    1
     7     7     1    1
     8     8     1    1
     9     9    25    1
    10    10     1    1
    11    11    12    1
    12    13     3    1
    13    14     4    1
    14    15     5    2
    15    16     5    1
    16    17    16    1
    17    18     6    1
    18    19     6    1
    19    20     6    1
    20    21    20    1
    21    22     7    1
    22    23     7    2
    23    24     8    1
    24    25    24    2
    25    26     8    2
    26    27    26    1
    27    28    10    2
    28    29     3    1
    29    30     9    1
    30    31    11    1
    31    32    11    1
    32    33    11    1
    33    34    13    1
    34    35    15    1
    35    36    16    1
    36    37    16    1
    37    38    17    1
    38    39    17    1
    39    40    18    1
    40    41    18    1
    41    42    19    1
    42    43    19    1
    43    44    19    1
    44    45    20    1
    45    46    20    1
    46    47    21    1
    47    48    21    1
    48    49    22    1
    49    50    22    1
    50    51    23    1
    51    52    25    1
    52    53    27    1
    53    54    27    1
    54    55    27    1
    55     9    26    1
    56    13    14    2
    57    14    15    1
    58    17    18    1
    59    21    22    1
    60    23    24    1
    61    56    57   ar
    62    57    58   ar
    63    58    59   ar
    64    59    60   ar
    65    60    61   ar
    66    61    56   ar
    67    62    63   ar
    68    63    64   ar
    69    64    65   ar
    70    65    66   ar
    71    66    67   ar
    72    67    62   ar
    73    68    69   ar
    74    69    70   ar
    75    70    71   ar
    76    71    72   ar
    77    72    73   ar
    78    73    68   ar
    79    74    75   ar
    80    75    76   ar
    81    76    77   ar
    82    77    78   ar
    83    78    79   ar
    84    79    74   ar
    85    80    56    1
    86    81    57    1
    87    82    58    1
    88    83    59    1
    89    84    60    1
    90    85    61    1
    91    86    63    1
    92    87    64    1
    93    88    65    1
    94    89    66    1
    95    90    67    1
    96    91    69    1
    97    92    70    1
    98    93    71    1
    99    94    72    1
   100    95    73    1
   101    96    75    1
   102    97    76    1
   103    98    77    1
   104    99    78    1
   105   100    79    1
   106    62    80    1
   107    68    80    1
   108    74    80    1
@<TRIPOS>SUBSTRUCTURE
     1 RES1        1 GROUP             0 ****  ****    0  
     2 RES2       56 GROUP             0 ****  ****    0  
@<TRIPOS>CRYSIN
   15.5430   12.5770   22.0120   90.0000  108.8030   90.0000    14     1
