@<TRIPOS>MOLECULE
PEWNUD
   115   122     3     0     0
SMALL
USER_CHARGES
****
Generated from the CSD

@<TRIPOS>ATOM
     1 O1      11.0250  13.7957  11.0573   O.2       1 RES1   0.0000
     2 Fe1      9.6608  11.5643  10.5294   Fe        1 RES1   2.0000
     3 O2       6.6235  14.0850   8.1936   O.3       1 RES1   0.0000
     4 O3       8.0642  12.4107   8.6179   O.2       1 RES1   0.0000
     5 O4       7.9674   9.9011  11.1271   O.2       1 RES1   0.0000
     6 O5      11.3129   9.9763  11.3274   O.2       1 RES1   0.0000
     7 O6      12.3595   9.3672  13.2415   O.3       1 RES1   0.0000
     8 O7       6.8410   8.1648  10.2116   O.3       1 RES1   0.0000
     9 O8      12.8343  14.9112  10.3050   O.3       1 RES1   0.0000
    10 N1       8.2353  13.1354  11.1701   N.ar      1 RES1   0.0000
    11 N2       9.9490  11.7989  12.6539   N.ar      1 RES1   0.0000
    12 N3       9.4973  10.0667   8.9889   N.ar      1 RES1   0.0000
    13 N4      11.2419  12.0415   9.0482   N.ar      1 RES1   0.0000
    14 C1      10.3492  10.1464   7.9517   C.ar      1 RES1   0.0000
    15 C2      10.3260   9.2465   6.8700   C.ar      1 RES1   0.0000
    16 C3      10.8558  11.1230  13.3364   C.ar      1 RES1   0.0000
    17 C4       7.3848  13.8132  10.4015   C.ar      1 RES1   0.0000
    18 C5       7.3876  13.3517   8.9741   C.2       1 RES1   0.0000
    19 C6      12.3057  11.2812   7.0021   C.ar      1 RES1   0.0000
    20 C7       7.6056  14.5551  13.0130   C.ar      1 RES1   0.0000
    21 C8       7.7474   9.0988  10.2249   C.2       1 RES1   0.0000
    22 C9       8.3286  13.5104  12.4669   C.ar      1 RES1   0.0000
    23 C10     11.3252  11.1858   8.0066   C.ar      1 RES1   0.0000
    24 C11      9.2912   8.2849   6.8700   C.ar      1 RES1   0.0000
    25 H1       9.2122   7.6859   6.1637   H         1 RES1   0.0000
    26 C12      6.6181  14.8675  10.8600   C.ar      1 RES1   0.0000
    27 H2       6.0416  15.3133  10.2828   H         1 RES1   0.0000
    28 C13      8.5561   9.1253   8.9830   C.ar      1 RES1   0.0000
    29 C14     11.9447  13.9412  10.2694   C.2       1 RES1   0.0000
    30 C15      8.4136   8.2369   7.9072   C.ar      1 RES1   0.0000
    31 H3       7.7206   7.6161   7.9042   H         1 RES1   0.0000
    32 C16     11.5346  10.0869  12.5144   C.2       1 RES1   0.0000
    33 C17      9.2690  12.7823  13.2726   C.ar      1 RES1   0.0000
    34 C18     13.2514  12.3085   7.1148   C.ar      1 RES1   0.0000
    35 H4      13.9260  12.4023   6.4827   H         1 RES1   0.0000
    36 C19     12.3020  10.3148   5.9367   C.ar      1 RES1   0.0000
    37 H5      12.9653  10.3479   5.2868   H         1 RES1   0.0000
    38 C20     12.1395  13.0139   9.1180   C.ar      1 RES1   0.0000
    39 C21      9.4647  13.1112  14.6199   C.ar      1 RES1   0.0000
    40 C22      6.7143  15.2514  12.1761   C.ar      1 RES1   0.0000
    41 H6       6.2009  15.9526  12.5055   H         1 RES1   0.0000
    42 C23     11.1355  11.3914  14.6926   C.ar      1 RES1   0.0000
    43 H7      11.7882  10.9079  15.1452   H         1 RES1   0.0000
    44 C24     11.3502   9.3608   5.8685   C.ar      1 RES1   0.0000
    45 H8      11.3578   8.7641   5.1562   H         1 RES1   0.0000
    46 C25     13.1672  13.1734   8.1728   C.ar      1 RES1   0.0000
    47 H9      13.7861  13.8621   8.2648   H         1 RES1   0.0000
    48 C26      7.7969  14.8645  14.4167   C.ar      1 RES1   0.0000
    49 H10      7.3061  15.5526  14.8054   H         1 RES1   0.0000
    50 C27      6.5781  13.7232   6.7676   C.3       1 RES1   0.0000
    51 H11      5.8909  13.0549   6.6178   H         1 RES1   0.0000
    52 H12      7.4302  13.3528   6.4917   H         1 RES1   0.0000
    53 C28      8.6742  14.1701  15.1675   C.ar      1 RES1   0.0000
    54 H13      8.7682  14.3851  16.0681   H         1 RES1   0.0000
    55 C29     10.4297  12.3781  15.3307   C.ar      1 RES1   0.0000
    56 H14     10.5883  12.5604  16.2284   H         1 RES1   0.0000
    57 C30      6.2753  14.9487   5.9797   C.3       1 RES1   0.0000
    58 H15      6.4651  14.7570   5.0479   H         1 RES1   0.0000
    59 H16      6.8938  15.6428   6.2602   H         1 RES1   0.0000
    60 C31     13.1587   8.3638  12.5678   C.3       1 RES1   0.0000
    61 H17     13.9440   8.7726  12.1717   H         1 RES1   0.0000
    62 H18     12.6423   7.9453  11.8615   H         1 RES1   0.0000
    63 C32      6.1212   7.8586  11.4535   C.3       1 RES1   0.0000
    64 H19      5.1872   7.6810  11.2606   H         1 RES1   0.0000
    65 H20      6.1699   8.6147  12.0589   H         1 RES1   0.0000
    66 C33     12.7111  15.8754  11.3941   C.3       1 RES1   0.0000
    67 H21     12.6736  15.4170  12.2473   H         1 RES1   0.0000
    68 H22     11.9018  16.4003  11.2888   H         1 RES1   0.0000
    69 C34     15.2814  18.4726  10.0736   C.3       1 RES1   0.0000
    70 H23     15.0415  19.2088  10.6419   H         1 RES1   0.0000
    71 H24     15.5066  18.8024   9.2011   H         1 RES1   0.0000
    72 H25     16.0384  18.0154  10.4475   H         1 RES1   0.0000
    73 C35     13.9312  16.7669  11.3244   C.3       1 RES1   0.0000
    74 H26     14.7230  16.2307  11.4861   H         1 RES1   0.0000
    75 H27     13.8763  17.4315  12.0292   H         1 RES1   0.0000
    76 C36      4.8552  15.5239   6.0613   C.3       1 RES1   0.0000
    77 H28      4.7082  16.0708   5.2749   H         1 RES1   0.0000
    78 H29      4.2297  14.7831   6.0183   H         1 RES1   0.0000
    79 C37      4.5430  16.2821   7.1742   C.3       1 RES1   0.0000
    80 H30      4.4753  15.7104   7.9428   H         1 RES1   0.0000
    81 H31      3.7042  16.7283   7.0332   H         1 RES1   0.0000
    82 H32      5.2315  16.9357   7.3211   H         1 RES1   0.0000
    83 C38     14.0818  17.4881   9.9652   C.3       1 RES1   0.0000
    84 H33     13.2693  17.9744   9.7545   H         1 RES1   0.0000
    85 H34     14.2435  16.8414   9.2604   H         1 RES1   0.0000
    86 C39     13.5649   7.3408  13.5887   C.3       1 RES1   0.0000
    87 H35     12.8530   6.6838  13.6154   H         1 RES1   0.0000
    88 H36     14.3432   6.8884  13.2266   H         1 RES1   0.0000
    89 C40     13.8641   7.6420  14.8915   C.3       1 RES1   0.0000
    90 H37     14.1765   6.8587  15.3722   H         1 RES1   0.0000
    91 H38     13.0968   8.0158  15.3544   H         1 RES1   0.0000
    92 C41      6.7532   6.6586  12.0811   C.3       1 RES1   0.0000
    93 H39      7.6964   6.8474  12.2043   H         1 RES1   0.0000
    94 H40      6.6877   5.9235  11.4505   H         1 RES1   0.0000
    95 C42      7.0916   5.0919  14.0917   C.3       1 RES1   0.0000
    96 H41      7.0275   4.2689  13.6020   H         1 RES1   0.0000
    97 H42      6.7845   4.9538  14.9909   H         1 RES1   0.0000
    98 H43      8.0053   5.3845  14.1065   H         1 RES1   0.0000
    99 C43      6.2007   6.1883  13.3973   C.3       1 RES1   0.0000
   100 H44      5.3124   5.8264  13.2534   H         1 RES1   0.0000
   101 H45      6.1169   6.9480  13.9923   H         1 RES1   0.0000
   102 C44     15.0883   8.7832  14.7134   C.3       1 RES1   0.0000
   103 H46     15.9406   8.3622  14.8425   H         1 RES1   0.0000
   104 H47     14.9737   9.4802  15.3633   H         1 RES1   0.0000
   105 H48     15.0480   9.1607  13.8306   H         1 RES1   0.0000
   106 Cl1      4.1446  12.0648  11.4645   Cl        2 RES2   0.0000
   107 O9       4.5747  12.5807  10.1789   O.3       2 RES2  -1.0000
   108 O10      2.7328  11.8742  11.4446   O.2       2 RES2   0.0000
   109 O11      4.7597  10.7974  11.6701   O.2       2 RES2   0.0000
   110 O12      4.5466  12.9512  12.4892   O.2       2 RES2   0.0000
   111 Cl2     10.2264   5.9283  11.3744   Cl        3 RES3   0.0000
   112 O13      9.6906   6.4325  10.1745   O.2       3 RES3   0.0000
   113 O14     10.1129   6.8533  12.4120   O.2       3 RES3   0.0000
   114 O15     11.6979   5.7071  11.0766   O.3       3 RES3  -1.0000
   115 O16      9.6599   4.7072  11.6835   O.2       3 RES3   0.0000
@<TRIPOS>BOND
     1     1    29    2
     2     2     5    1
     3     3    18    1
     4     4    18    2
     5     5    21    2
     6     6     2    1
     7     7    32    1
     8     8    21    1
     9     9    29    1
    10    10     2    1
    11    11     2    1
    12    12     2    1
    13    13     2    1
    14    14    12   ar
    15    15    14   ar
    16    16    11   ar
    17    17    10   ar
    18    18    17    1
    19    19    23   ar
    20    20    22   ar
    21    21    28    1
    22    22    10   ar
    23    23    13   ar
    24    24    15   ar
    25    25    24    1
    26    26    17   ar
    27    27    26    1
    28    28    12   ar
    29    29    38    1
    30    30    24   ar
    31    31    30    1
    32    32     6    2
    33    33    11   ar
    34    34    19   ar
    35    35    34    1
    36    36    19   ar
    37    37    36    1
    38    38    13   ar
    39    39    33   ar
    40    40    20   ar
    41    41    40    1
    42    42    16   ar
    43    43    42    1
    44    44    15   ar
    45    45    44    1
    46    46    34   ar
    47    47    46    1
    48    48    20   ar
    49    49    48    1
    50    50     3    1
    51    51    50    1
    52    52    50    1
    53    53    39   ar
    54    54    53    1
    55    55    39   ar
    56    56    55    1
    57    57    50    1
    58    58    57    1
    59    59    57    1
    60    60     7    1
    61    61    60    1
    62    62    60    1
    63    63     8    1
    64    64    63    1
    65    65    63    1
    66    66     9    1
    67    67    66    1
    68    68    66    1
    69    69    70    1
    70    71    69    1
    71    72    69    1
    72    73    66    1
    73    74    73    1
    74    75    73    1
    75    76    57    1
    76    77    76    1
    77    78    76    1
    78    79    76    1
    79    80    79    1
    80    81    79    1
    81    82    79    1
    82    83    69    1
    83    84    83    1
    84    85    83    1
    85    86    60    1
    86    87    86    1
    87    88    86    1
    88    89    86    1
    89    90    89    1
    90    91    89    1
    91    92    63    1
    92    93    92    1
    93    94    92    1
    94    95    96    1
    95    97    95    1
    96    98    95    1
    97    99    92    1
    98   100    99    1
    99   101    99    1
   100   102    89    1
   101   103   102    1
   102   104   102    1
   103   105   102    1
   104    14    23   ar
   105    16    32    1
   106    22    33   ar
   107    26    40   ar
   108    28    30   ar
   109    36    44   ar
   110    38    46   ar
   111    42    55   ar
   112    48    53   ar
   113    73    83    1
   114    95    99    1
   115   106   107    1
   116   108   106    2
   117   109   106    2
   118   110   106    2
   119   111   112    2
   120   113   111    2
   121   114   111    1
   122   115   111    2
@<TRIPOS>SUBSTRUCTURE
     1 RES1        1 GROUP             0 ****  ****    0  
     2 RES2      106 GROUP             0 ****  ****    0  
     3 RES3      111 GROUP             0 ****  ****    0  
@<TRIPOS>CRYSIN
   10.9687   13.7785   15.8509   72.7000   78.8320   88.8650     2     1
