@<TRIPOS>MOLECULE
PEXMIO
   107   111     2     0     0
SMALL
USER_CHARGES
****
Generated from the CSD

@<TRIPOS>ATOM
     1 Fe1      2.8024   9.1197   4.1485   Fe        1 RES1   1.0000
     2 P1       1.0948   7.7243   3.9107   P.3       1 RES1   0.0000
     3 C1       1.4294   5.9190   4.0726   C.3       1 RES1   0.0000
     4 C2      -0.4476   7.9046   4.8081   C.3       1 RES1   0.0000
     5 C3       0.4911   7.8887   2.1368   C.3       1 RES1   0.0000
     6 C4       1.7161   8.0116   1.2435   C.3       1 RES1   0.0000
     7 P2       2.7399   9.3195   1.9288   P.3       1 RES1   0.0000
     8 C5       4.2900   9.2779   0.9616   C.3       1 RES1   0.0000
     9 C6       1.9545  10.8235   1.2575   C.3       1 RES1   0.0000
    10 P3       4.4662  10.5699   4.4480   P.3       1 RES1   0.0000
    11 C7       6.1622  10.0764   3.9679   C.3       1 RES1   0.0000
    12 C8       4.3481  12.2463   3.8074   C.3       1 RES1   0.0000
    13 C9       4.6377  10.8631   6.3098   C.3       1 RES1   0.0000
    14 C10      4.2946   9.5890   7.0649   C.3       1 RES1   0.0000
    15 P4       2.7278   8.9786   6.3852   P.3       1 RES1   0.0000
    16 C11      2.5726   7.3636   7.1737   C.3       1 RES1   0.0000
    17 C12      1.4805   9.9199   7.3119   C.3       1 RES1   0.0000
    18 C13      3.9995   7.7124   4.0014   C.1       1 RES1   0.0000
    19 C14      4.8002   6.8306   4.0112   C.2       1 RES1   0.0000
    20 C15      5.0206   5.8398   2.9002   C.3       1 RES1   0.0000
    21 C16      1.5054  10.5917   4.2359   C.1       1 RES1   0.0000
    22 C17      0.7024  11.4378   4.3573   C.1       1 RES1   0.0000
    23 C18     -0.3264  12.4781   4.4592   C.3       1 RES1   0.0000
    24 H1       2.2887   5.7308   3.6385   H         1 RES1   0.0000
    25 H2       0.7039   5.4296   3.6413   H         1 RES1   0.0000
    26 H3       1.4805   5.7030   5.0272   H         1 RES1   0.0000
    27 H4      -0.3054   7.7619   5.7781   H         1 RES1   0.0000
    28 H5      -1.1121   7.2368   4.4955   H         1 RES1   0.0000
    29 H6      -0.8279   8.8082   4.6741   H         1 RES1   0.0000
    30 H7      -0.0807   8.6794   2.0433   H         1 RES1   0.0000
    31 H8      -0.0150   7.0882   1.8869   H         1 RES1   0.0000
    32 H9       2.2152   7.1694   1.2282   H         1 RES1   0.0000
    33 H10      1.4432   8.2454   0.3308   H         1 RES1   0.0000
    34 H11      4.7911   8.4674   1.1933   H         1 RES1   0.0000
    35 H12      4.8217  10.0764   1.1779   H         1 RES1   0.0000
    36 H13      4.0666   9.2759   0.0042   H         1 RES1   0.0000
    37 H14      1.1506  11.0296   1.7837   H         1 RES1   0.0000
    38 H15      1.7090  10.6650   0.3196   H         1 RES1   0.0000
    39 H16      2.5896  11.5706   1.3161   H         1 RES1   0.0000
    40 H17      6.4038   9.2580   4.4578   H         1 RES1   0.0000
    41 H18      6.7804  10.8017   4.1884   H         1 RES1   0.0000
    42 H19      6.1788   9.9001   3.0007   H         1 RES1   0.0000
    43 H20      4.4604  12.2423   2.8206   H         1 RES1   0.0000
    44 H21      5.0502  12.8190   4.1996   H         1 RES1   0.0000
    45 H22      3.4643  12.6347   4.0167   H         1 RES1   0.0000
    46 H23      4.0261  11.5765   6.5848   H         1 RES1   0.0000
    47 H24      5.5598  11.1247   6.5150   H         1 RES1   0.0000
    48 H25      5.0011   8.9212   6.9351   H         1 RES1   0.0000
    49 H26      4.1968   9.7792   8.0209   H         1 RES1   0.0000
    50 H27      3.2393   6.7414   6.7997   H         1 RES1   0.0000
    51 H28      1.6678   6.9970   7.0077   H         1 RES1   0.0000
    52 H29      2.7099   7.4409   8.1465   H         1 RES1   0.0000
    53 H30      1.5528  10.8770   7.0830   H         1 RES1   0.0000
    54 H31      1.6279   9.8010   8.2763   H         1 RES1   0.0000
    55 H32      0.5808   9.5969   7.0733   H         1 RES1   0.0000
    56 H33      5.4375   6.8385   4.7578   H         1 RES1   0.0000
    57 H34      5.9893   5.7724   2.6615   H         1 RES1   0.0000
    58 H35      4.5230   6.1093   2.0740   H         1 RES1   0.0000
    59 H36      4.7068   4.9263   3.1612   H         1 RES1   0.0000
    60 H37     -0.4494  12.8923   3.5715   H         1 RES1   0.0000
    61 H38     -0.0481  13.1598   5.1040   H         1 RES1   0.0000
    62 H39     -1.1742  12.0719   4.7495   H         1 RES1   0.0000
    63 B1      10.2870   6.9396   2.5080   B         2 RES2  -1.0000
    64 C19      9.8165   6.3887   3.9888   C.ar      2 RES2   0.0000
    65 C20      8.6749   5.6912   4.2400   C.ar      2 RES2   0.0000
    66 C21      8.3711   5.1759   5.5394   C.ar      2 RES2   0.0000
    67 C22      9.2129   5.3642   6.5457   C.ar      2 RES2   0.0000
    68 C23     10.3366   6.0419   6.3503   C.ar      2 RES2   0.0000
    69 C24     10.6314   6.5710   5.1081   C.ar      2 RES2   0.0000
    70 C25     11.5780   6.0399   2.0014   C.ar      2 RES2   0.0000
    71 C26     12.2726   5.0848   2.7578   C.ar      2 RES2   0.0000
    72 C27     13.3668   4.4051   2.2973   C.ar      2 RES2   0.0000
    73 C28     13.8429   4.6310   1.0468   C.ar      2 RES2   0.0000
    74 C29     13.2055   5.5406   0.2442   C.ar      2 RES2   0.0000
    75 C30     12.0731   6.2064   0.7216   C.ar      2 RES2   0.0000
    76 C31      9.1102   6.8009   1.3664   C.ar      2 RES2   0.0000
    77 C32      8.6495   5.5267   0.9881   C.ar      2 RES2   0.0000
    78 C33      7.6338   5.3563   0.0140   C.ar      2 RES2   0.0000
    79 C34      7.1404   6.4382  -0.6281   C.ar      2 RES2   0.0000
    80 C35      7.5664   7.6866  -0.2945   C.ar      2 RES2   0.0000
    81 C36      8.5493   7.8511   0.6783   C.ar      2 RES2   0.0000
    82 C37     10.7014   8.5189   2.6797   C.ar      2 RES2   0.0000
    83 C38      9.7476   9.4483   3.1123   C.ar      2 RES2   0.0000
    84 C39     10.0150  10.8076   3.2142   C.ar      2 RES2   0.0000
    85 C40     11.2444  11.2812   2.9463   C.ar      2 RES2   0.0000
    86 C41     12.2200  10.4034   2.5764   C.ar      2 RES2   0.0000
    87 C42     11.9577   9.0440   2.4354   C.ar      2 RES2   0.0000
    88 H40      8.0433   5.5346   3.5073   H         2 RES2   0.0000
    89 H41      7.5375   4.6825   5.6874   H         2 RES2   0.0000
    90 H42      9.0040   5.0055   7.4333   H         2 RES2   0.0000
    91 H43     10.9637   6.1648   7.0942   H         2 RES2   0.0000
    92 H44     11.4512   7.1001   5.0077   H         2 RES2   0.0000
    93 H45     11.9575   4.8946   3.6650   H         2 RES2   0.0000
    94 H46     13.8102   3.7492   2.8737   H         2 RES2   0.0000
    95 H47     14.6338   4.1515   0.7216   H         2 RES2   0.0000
    96 H48     13.5411   5.7229  -0.6588   H         2 RES2   0.0000
    97 H49     11.6060   6.8226   0.1186   H         2 RES2   0.0000
    98 H50      9.0414   4.7340   1.4096   H         2 RES2   0.0000
    99 H51      7.2916   4.4626  -0.1926   H         2 RES2   0.0000
   100 H52      6.4726   6.3233  -1.3371   H         2 RES2   0.0000
   101 H53      7.1822   8.4694  -0.7397   H         2 RES2   0.0000
   102 H54      8.8573   8.7587   0.8821   H         2 RES2   0.0000
   103 H55      8.8536   9.1253   3.3538   H         2 RES2   0.0000
   104 H56      9.3036  11.4239   3.4836   H         2 RES2   0.0000
   105 H57     11.4363  12.2403   3.0174   H         2 RES2   0.0000
   106 H58     13.1258  10.7363   2.4047   H         2 RES2   0.0000
   107 H59     12.6810   8.4436   2.1563   H         2 RES2   0.0000
@<TRIPOS>BOND
     1     1     2    1
     2     2     3    1
     3     3    24    1
     4     4     2    1
     5     5     2    1
     6     6     5    1
     7     7     1    1
     8     8     7    1
     9     9     7    1
    10    10     1    1
    11    11    10    1
    12    12    10    1
    13    13    10    1
    14    14    13    1
    15    15     1    1
    16    16    15    1
    17    17    15    1
    18    18     1    2
    19    19    18    2
    20    20    19    1
    21    21     1    1
    22    22    21    3
    23    23    22    1
    24    25     3    1
    25    26     3    1
    26    27     4    1
    27    28     4    1
    28    29     4    1
    29    30     5    1
    30    31     5    1
    31    32     6    1
    32    33     6    1
    33    34     8    1
    34    35     8    1
    35    36     8    1
    36    37     9    1
    37    38     9    1
    38    39     9    1
    39    40    11    1
    40    41    11    1
    41    42    11    1
    42    43    12    1
    43    44    12    1
    44    45    12    1
    45    46    13    1
    46    47    13    1
    47    48    14    1
    48    49    14    1
    49    50    16    1
    50    51    16    1
    51    52    16    1
    52    53    17    1
    53    54    17    1
    54    55    17    1
    55    56    19    1
    56    57    20    1
    57    58    20    1
    58    59    20    1
    59    60    23    1
    60    61    23    1
    61    62    23    1
    62     6     7    1
    63    14    15    1
    64    63    64    1
    65    64    65   ar
    66    65    66   ar
    67    66    67   ar
    68    67    68   ar
    69    68    69   ar
    70    69    64   ar
    71    70    63    1
    72    71    70   ar
    73    72    71   ar
    74    73    72   ar
    75    74    73   ar
    76    75    70   ar
    77    76    63    1
    78    77    76   ar
    79    78    77   ar
    80    79    78   ar
    81    80    79   ar
    82    81    76   ar
    83    82    63    1
    84    83    82   ar
    85    84    83   ar
    86    85    84   ar
    87    86    85   ar
    88    87    82   ar
    89    88    65    1
    90    89    66    1
    91    90    67    1
    92    91    68    1
    93    92    69    1
    94    93    71    1
    95    94    72    1
    96    95    73    1
    97    96    74    1
    98    97    75    1
    99    98    77    1
   100    99    78    1
   101   100    79    1
   102   101    80    1
   103   102    81    1
   104   103    83    1
   105   104    84    1
   106   105    85    1
   107   106    86    1
   108   107    87    1
   109    74    75   ar
   110    80    81   ar
   111    86    87   ar
@<TRIPOS>SUBSTRUCTURE
     1 RES1        1 GROUP             0 ****  ****    0  
     2 RES2       63 GROUP             0 ****  ****    0  
@<TRIPOS>CRYSIN
   15.0190   19.8160   14.0780   90.0000   97.5270   90.0000   231     1
