@<TRIPOS>MOLECULE
PEZGOU
   103   109     1     0     0
SMALL
NO_CHARGES
****
Generated from the CSD

@<TRIPOS>ATOM
     1 Fe1      1.5400  11.1016   5.8134   Fe        1 RES1   0.0000
     2 H1       1.2407   9.8511   6.5925   H         1 RES1   0.0000
     3 P1       1.9095   9.8218   4.0440   P.3       1 RES1   0.0000
     4 P2       1.8782  12.2137   7.6875   P.3       1 RES1   0.0000
     5 F1      -3.4843   9.3217   6.8383   F         1 RES1   0.0000
     6 O1       1.1294  12.7600   4.6798   O.2       1 RES1   0.0000
     7 N1       4.2357  10.1770   5.1836   N.pl3     1 RES1   0.0000
     8 N2       4.2234  11.3282   6.9507   N.pl3     1 RES1   0.0000
     9 C1       3.3945  10.9789   5.9023   C.3       1 RES1   0.0000
    10 C2       3.7106   9.3965   4.1594   C.2       1 RES1   0.0000
    11 C3       4.5459   8.5330   3.5597   C.2       1 RES1   0.0000
    12 H2       4.2181   7.9906   2.8520   H         1 RES1   0.0000
    13 C4       5.9321   8.4021   3.9588   C.2       1 RES1   0.0000
    14 C5       6.3711   9.1159   5.0447   C.2       1 RES1   0.0000
    15 H3       7.2675   9.0123   5.3434   H         1 RES1   0.0000
    16 C6       5.5049  10.0017   5.7249   C.2       1 RES1   0.0000
    17 C7       5.4990  10.7374   6.9011   C.2       1 RES1   0.0000
    18 C8       6.3267  10.9488   8.0388   C.2       1 RES1   0.0000
    19 H4       7.2297  10.6561   8.0278   H         1 RES1   0.0000
    20 C9       5.8273  11.5742   9.1490   C.2       1 RES1   0.0000
    21 C10      4.4659  12.0310   9.1567   C.2       1 RES1   0.0000
    22 H5       4.1203  12.4265   9.9493   H         1 RES1   0.0000
    23 C11      3.6537  11.9201   8.0697   C.2       1 RES1   0.0000
    24 C12      6.8121   7.4362   3.1761   C.3       1 RES1   0.0000
    25 C13      6.9031   7.9175   1.7275   C.3       1 RES1   0.0000
    26 H6       7.4042   7.2645   1.1961   H         1 RES1   0.0000
    27 H7       7.3619   8.7816   1.6988   H         1 RES1   0.0000
    28 H8       5.9998   8.0132   1.3582   H         1 RES1   0.0000
    29 C14      6.1846   6.0401   3.2158   C.3       1 RES1   0.0000
    30 H9       5.3147   6.0598   2.7627   H         1 RES1   0.0000
    31 H10      6.0597   5.7643   4.1484   H         1 RES1   0.0000
    32 H11      6.7742   5.4040   2.7638   H         1 RES1   0.0000
    33 C15      8.2182   7.3405   3.7614   C.3       1 RES1   0.0000
    34 H12      8.7395   6.6819   3.2543   H         1 RES1   0.0000
    35 H13      8.1638   7.0590   4.6985   H         1 RES1   0.0000
    36 H14      8.6547   8.2158   3.7074   H         1 RES1   0.0000
    37 C16      6.6554  11.7425  10.4399   C.3       1 RES1   0.0000
    38 C17      6.7068  13.2314  10.7949   C.3       1 RES1   0.0000
    39 H15      7.1202  13.7296  10.0585   H         1 RES1   0.0000
    40 H16      7.2370  13.3553  11.6096   H         1 RES1   0.0000
    41 H17      5.7977  13.5636  10.9426   H         1 RES1   0.0000
    42 C18      8.0885  11.2443  10.2690   C.3       1 RES1   0.0000
    43 H18      8.0792  10.2817  10.0882   H         1 RES1   0.0000
    44 H19      8.5951  11.4188  11.0892   H         1 RES1   0.0000
    45 H20      8.5093  11.7144   9.5194   H         1 RES1   0.0000
    46 C19      5.9779  10.9572  11.5699   C.3       1 RES1   0.0000
    47 H21      5.0685  11.2978  11.7044   H         1 RES1   0.0000
    48 H22      6.4934  11.0670  12.3967   H         1 RES1   0.0000
    49 H23      5.9407  10.0087  11.3306   H         1 RES1   0.0000
    50 C20      1.8702  10.6428   2.3757   C.3       1 RES1   0.0000
    51 H24      0.9650  11.0529   2.2655   H         1 RES1   0.0000
    52 C21      2.0991   9.6991   1.1818   C.3       1 RES1   0.0000
    53 H25      2.9574   9.2403   1.2887   H         1 RES1   0.0000
    54 H26      2.1089  10.2198   0.3517   H         1 RES1   0.0000
    55 H27      1.3760   9.0405   1.1443   H         1 RES1   0.0000
    56 C22      2.8984  11.7766   2.3206   C.3       1 RES1   0.0000
    57 H28      2.7584  12.3814   3.0779   H         1 RES1   0.0000
    58 H29      2.7925  12.2717   1.4816   H         1 RES1   0.0000
    59 H30      3.8023  11.4019   2.3658   H         1 RES1   0.0000
    60 C23      1.1322   8.1837   3.7383   C.3       1 RES1   0.0000
    61 H31      1.6213   7.7486   2.9820   H         1 RES1   0.0000
    62 C24     -0.3426   8.3481   3.3150   C.3       1 RES1   0.0000
    63 H32     -0.8484   8.7562   4.0481   H         1 RES1   0.0000
    64 H33     -0.7220   7.4699   3.1044   H         1 RES1   0.0000
    65 H34     -0.3925   8.9223   2.5234   H         1 RES1   0.0000
    66 C25      1.2604   7.2786   4.9598   C.3       1 RES1   0.0000
    67 H35      2.2089   7.1575   5.1792   H         1 RES1   0.0000
    68 H36      0.8579   6.4060   4.7635   H         1 RES1   0.0000
    69 H37      0.7975   7.6867   5.7204   H         1 RES1   0.0000
    70 C26      1.8133  14.0626   7.6078   C.3       1 RES1   0.0000
    71 H38      0.9098  14.3094   7.2561   H         1 RES1   0.0000
    72 C27      2.8483  14.5768   6.5903   C.3       1 RES1   0.0000
    73 H39      3.7528  14.3939   6.9221   H         1 RES1   0.0000
    74 H40      2.7360  15.5450   6.4690   H         1 RES1   0.0000
    75 H41      2.7168  14.1237   5.7315   H         1 RES1   0.0000
    76 C28      2.0003  14.8161   8.9307   C.3       1 RES1   0.0000
    77 H42      1.2793  14.5740   9.5502   H         1 RES1   0.0000
    78 H43      1.9760  15.7815   8.7631   H         1 RES1   0.0000
    79 H44      2.8640  14.5740   9.3253   H         1 RES1   0.0000
    80 C29      1.0267  11.8326   9.2978   C.3       1 RES1   0.0000
    81 H45      1.4576  12.3814  10.0144   H         1 RES1   0.0000
    82 C30     -0.4330  12.2491   9.1942   C.3       1 RES1   0.0000
    83 H46     -0.4844  13.1977   8.9560   H         1 RES1   0.0000
    84 H47     -0.8763  12.1028  10.0563   H         1 RES1   0.0000
    85 H48     -0.8774  11.7144   8.5040   H         1 RES1   0.0000
    86 C31      1.1764  10.3577   9.6748   C.3       1 RES1   0.0000
    87 H49      0.7581   9.8004   8.9858   H         1 RES1   0.0000
    88 H50      0.7381  10.1973  10.5369   H         1 RES1   0.0000
    89 H51      2.1270  10.1354   9.7443   H         1 RES1   0.0000
    90 C32     -0.4159  11.0079   5.7833   C.ar      1 RES1   0.0000
    91 C33     -1.0244  12.0071   4.9785   C.ar      1 RES1   0.0000
    92 C34     -2.4090  12.0774   4.7569   C.ar      1 RES1   0.0000
    93 H52     -2.7707  12.7417   4.1826   H         1 RES1   0.0000
    94 C35     -3.2304  11.1711   5.3809   C.ar      1 RES1   0.0000
    95 H53     -4.1725  11.2021   5.2607   H         1 RES1   0.0000
    96 C36     -2.6463  10.2226   6.1868   C.ar      1 RES1   0.0000
    97 C37     -1.2951  10.0847   6.4095   C.ar      1 RES1   0.0000
    98 H54     -0.9589   9.3951   6.9673   H         1 RES1   0.0000
    99 C38     -0.0970  12.9331   4.4174   C.2       1 RES1   0.0000
   100 C39     -0.4650  14.0814   3.5233   C.3       1 RES1   0.0000
   101 H55     -1.2022  14.5881   3.9257   H         1 RES1   0.0000
   102 H56     -0.7423  13.7409   2.6480   H         1 RES1   0.0000
   103 H57      0.3113  14.6725   3.4131   H         1 RES1   0.0000
@<TRIPOS>BOND
     1     1     2    1
     2     3     1    1
     3     4     1    1
     4     5    96    1
     5     6     1    1
     6     7     9    1
     7     8     9    1
     8     9     1    1
     9    10     3    1
    10    11    10    2
    11    12    11    1
    12    13    11    1
    13    14    13    2
    14    15    14    1
    15    16     7    1
    16    17     8    1
    17    18    17    1
    18    19    18    1
    19    20    18    2
    20    21    20    1
    21    22    21    1
    22    23     4    1
    23    24    13    1
    24    25    24    1
    25    26    25    1
    26    27    25    1
    27    28    25    1
    28    29    24    1
    29    30    29    1
    30    31    29    1
    31    32    29    1
    32    33    24    1
    33    34    33    1
    34    35    33    1
    35    36    33    1
    36    37    20    1
    37    38    37    1
    38    39    38    1
    39    40    38    1
    40    41    38    1
    41    42    37    1
    42    43    42    1
    43    44    42    1
    44    45    42    1
    45    46    37    1
    46    47    46    1
    47    48    46    1
    48    49    46    1
    49    50     3    1
    50    51    50    1
    51    52    50    1
    52    53    52    1
    53    54    52    1
    54    55    52    1
    55    56    50    1
    56    57    56    1
    57    58    56    1
    58    59    56    1
    59    60     3    1
    60    61    60    1
    61    62    60    1
    62    63    62    1
    63    64    62    1
    64    65    62    1
    65    66    60    1
    66    67    66    1
    67    68    66    1
    68    69    66    1
    69    70     4    1
    70    71    70    1
    71    72    70    1
    72    73    72    1
    73    74    72    1
    74    75    72    1
    75    76    70    1
    76    77    76    1
    77    78    76    1
    78    79    76    1
    79    80     4    1
    80    81    80    1
    81    82    80    1
    82    83    82    1
    83    84    82    1
    84    85    82    1
    85    86    80    1
    86    87    86    1
    87    88    86    1
    88    89    86    1
    89    90     1    1
    90    91    90   ar
    91    92    91   ar
    92    93    92    1
    93    94    92   ar
    94    95    94    1
    95    96    94   ar
    96    97    90   ar
    97    98    97    1
    98    99     6    2
    99   100    99    1
   100   101   100    1
   101   102   100    1
   102   103   100    1
   103     7    10    1
   104     8    23    1
   105    14    16    1
   106    16    17    2
   107    21    23    2
   108    91    99    1
   109    96    97   ar
@<TRIPOS>SUBSTRUCTURE
     1 RES1        1 GROUP             0 ****  ****    0  
@<TRIPOS>CRYSIN
   12.6620   28.1460   11.7500   90.0000  110.2440   90.0000    14     1
