@<TRIPOS>MOLECULE
PHSNFE
    54    60     3     0     0
SMALL
USER_CHARGES
****
Generated from the CSD

@<TRIPOS>ATOM
     1 Br1     12.1895   2.6523   7.3205   Br        1 RES1  -1.0000
     2 Fe1      7.7327   4.7823   2.3609   Fe        2 RES2   0.0000
     3 P1       7.4453   5.0116   4.5680   P.3       2 RES2   0.0000
     4 P2       9.5793   3.6778   2.8756   P.3       2 RES2   0.0000
     5 P3       7.8965   3.6189   0.5018   P.3       2 RES2   0.0000
     6 P4       5.7245   5.3999   1.5869   P.3       2 RES2   0.0000
     7 N1       8.5820   6.4018   1.9915   N.1       2 RES2   1.0000
     8 N2       9.0787   7.3243   1.7535   N.1       2 RES2   0.0000
     9 C1       8.9780   4.4405   5.4133   C.3       2 RES2   0.0000
    10 C2       9.4555   3.2224   4.6338   C.3       2 RES2   0.0000
    11 C3       9.7383   2.1184   1.8655   C.3       2 RES2   0.0000
    12 C4       8.5528   1.9623   0.9008   C.3       2 RES2   0.0000
    13 C5       6.2309   3.3494  -0.2018   C.3       2 RES2   0.0000
    14 C6       5.4726   4.6523  -0.0954   C.3       2 RES2   0.0000
    15 H1       6.8818   3.5557   2.7173   H         2 RES2   0.0000
    16 C7       7.2074   6.6949   5.2504   C.ar      2 RES2   0.0000
    17 C8       8.2836   7.5802   5.2022   C.ar      2 RES2   0.0000
    18 C9       8.1014   8.9217   5.5392   C.ar      2 RES2   0.0000
    19 C10      6.8404   9.3785   5.9262   C.ar      2 RES2   0.0000
    20 C11      5.7641   8.4933   5.9744   C.ar      2 RES2   0.0000
    21 C12      5.9463   7.1517   5.6374   C.ar      2 RES2   0.0000
    22 C13      6.1810   3.9901   5.4531   C.ar      2 RES2   0.0000
    23 C14      5.5173   2.9525   4.7986   C.ar      2 RES2   0.0000
    24 C15      4.6308   2.1375   5.5031   C.ar      2 RES2   0.0000
    25 C16      4.4089   2.3587   6.8622   C.ar      2 RES2   0.0000
    26 C17      5.0741   3.3963   7.5168   C.ar      2 RES2   0.0000
    27 C18      5.9591   4.2113   6.8123   C.ar      2 RES2   0.0000
    28 C19     11.2247   4.4427   2.6840   C.ar      2 RES2   0.0000
    29 C20     12.1670   4.4557   3.7126   C.ar      2 RES2   0.0000
    30 C21     13.4544   4.9403   3.4737   C.ar      2 RES2   0.0000
    31 C22     13.7979   5.4120   2.2063   C.ar      2 RES2   0.0000
    32 C23     12.8556   5.3990   1.1777   C.ar      2 RES2   0.0000
    33 C24     11.5697   4.9144   1.4165   C.ar      2 RES2   0.0000
    34 C25      8.8512   4.2668  -0.9045   C.ar      2 RES2   0.0000
    35 C26      9.6862   3.4471  -1.6656   C.ar      2 RES2   0.0000
    36 C27     10.3817   3.9779  -2.7516   C.ar      2 RES2   0.0000
    37 C28     10.2438   5.3283  -3.0765   C.ar      2 RES2   0.0000
    38 C29      9.4097   6.1465  -2.3155   C.ar      2 RES2   0.0000
    39 C30      8.7127   5.6157  -1.2295   C.ar      2 RES2   0.0000
    40 C31      5.4172   7.1945   1.2971   C.ar      2 RES2   0.0000
    41 C32      4.6711   7.6276   0.2009   C.ar      2 RES2   0.0000
    42 C33      4.4725   8.9905  -0.0139   C.ar      2 RES2   0.0000
    43 C34      5.0199   9.9235   0.8684   C.ar      2 RES2   0.0000
    44 C35      5.7661   9.4904   1.9646   C.ar      2 RES2   0.0000
    45 C36      5.9640   8.1261   2.1794   C.ar      2 RES2   0.0000
    46 C37      4.1758   4.9042   2.4618   C.ar      2 RES2   0.0000
    47 C38      3.6061   5.7333   3.4274   C.ar      2 RES2   0.0000
    48 C39      2.4764   5.3130   4.1292   C.ar      2 RES2   0.0000
    49 C40      1.9163   4.0633   3.8644   C.ar      2 RES2   0.0000
    50 C41      2.4860   3.2342   2.8988   C.ar      2 RES2   0.0000
    51 C42      3.6157   3.6544   2.1970   C.ar      2 RES2   0.0000
    52 O1       8.1982  14.0002   2.8516   O.3       3 RES3   0.0000
    53 C43      6.9487  13.9684   1.7591   C.3       3 RES3   0.0000
    54 C44      7.4226  13.0249   1.2406   C.2       3 RES3   0.0000
@<TRIPOS>BOND
     1     2     3    1
     2     3     9    1
     3     4     2    1
     4     5     2    1
     5     6     2    1
     6     7     2    1
     7     8     7    3
     8     9    10    1
     9    10     4    1
    10    11     4    1
    11    12     5    1
    12    13     5    1
    13    14     6    1
    14    15     2    1
    15    16     3    1
    16    17    16   ar
    17    18    17   ar
    18    19    18   ar
    19    20    19   ar
    20    21    16   ar
    21    22     3    1
    22    23    22   ar
    23    24    23   ar
    24    25    24   ar
    25    26    25   ar
    26    27    22   ar
    27    28     4    1
    28    29    28   ar
    29    30    29   ar
    30    31    30   ar
    31    32    31   ar
    32    33    28   ar
    33    34     5    1
    34    35    34   ar
    35    36    35   ar
    36    37    36   ar
    37    38    37   ar
    38    39    34   ar
    39    40     6    1
    40    41    40   ar
    41    42    41   ar
    42    43    42   ar
    43    44    43   ar
    44    45    40   ar
    45    46     6    1
    46    47    46   ar
    47    48    47   ar
    48    49    48   ar
    49    50    49   ar
    50    51    46   ar
    51    11    12    1
    52    13    14    1
    53    20    21   ar
    54    26    27   ar
    55    32    33   ar
    56    38    39   ar
    57    44    45   ar
    58    50    51   ar
    59    52    53    1
    60    53    54    1
@<TRIPOS>SUBSTRUCTURE
     1 RES1        1 GROUP             0 ****  ****    0  
     2 RES2        2 GROUP             0 ****  ****    0  
     3 RES3       52 GROUP             0 ****  ****    0  
@<TRIPOS>CRYSIN
   15.3920   16.1090    9.9140   69.5700   78.4300   68.4600     2     1
