@<TRIPOS>MOLECULE
PIPPAH
   155   168     3     0     0
SMALL
NO_CHARGES
****
Generated from the CSD

@<TRIPOS>ATOM
     1 Fe1     11.5465   0.0000   0.0000   Fe        1 RES1   0.0000
     2 N1      13.2537  -0.3748   0.9519   N.2       1 RES1   0.0000
     3 N2      10.5812  -0.5583   1.6509   N.2       1 RES1   0.0000
     4 N3      11.6707   1.8914   0.6093   N.2       1 RES1   0.0000
     5 C1       9.0801   4.0933  -1.0174   C.ar      1 RES1   0.0000
     6 C2      15.9588   3.1615   1.9976   C.ar      1 RES1   0.0000
     7 C3      11.3033   4.1639   0.7852   C.2       1 RES1   0.0000
     8 H1      10.9022   4.9967   0.6838   H         1 RES1   0.0000
     9 C4      16.8763   3.9051   2.7359   C.ar      1 RES1   0.0000
    10 H2      17.6499   4.2121   2.3203   H         1 RES1   0.0000
    11 C5      16.6698   4.1986   4.0707   C.ar      1 RES1   0.0000
    12 C6      12.6738   2.4920   1.3486   C.2       1 RES1   0.0000
    13 C7      10.8368   2.9166   0.2343   C.2       1 RES1   0.0000
    14 C8      16.1985   2.9396   0.5297   C.3       1 RES1   0.0000
    15 H3      17.0333   3.3400   0.2785   H         1 RES1   0.0000
    16 H4      15.4861   3.3400   0.0250   H         1 RES1   0.0000
    17 H5      16.2274   1.9963   0.3496   H         1 RES1   0.0000
    18 C9       9.4475   4.6654  -2.2390   C.ar      1 RES1   0.0000
    19 C10     15.0256  -1.5003   1.9188   C.2       1 RES1   0.0000
    20 H6      15.5900  -2.1965   2.1705   H         1 RES1   0.0000
    21 N4       9.2720  -1.7120   2.9851   N.pl3     1 RES1   0.0000
    22 C11     13.8061   1.8536   1.8501   C.2       1 RES1   0.0000
    23 C12      7.7077   6.0152  -0.5547   C.ar      1 RES1   0.0000
    24 H7       7.1149   6.4620   0.0058   H         1 RES1   0.0000
    25 C13     12.4261   3.8961   1.4709   C.2       1 RES1   0.0000
    26 H8      12.9459   4.5087   1.9381   H         1 RES1   0.0000
    27 C14     14.5767   2.9767   3.9664   C.ar      1 RES1   0.0000
    28 C15      9.7288   2.8132  -0.5943   C.2       1 RES1   0.0000
    29 C16      8.1952   4.7673  -0.1690   C.ar      1 RES1   0.0000
    30 C17     13.8393  -1.6134   1.1129   C.2       1 RES1   0.0000
    31 C18     14.8035   2.6757   2.6194   C.ar      1 RES1   0.0000
    32 C19     14.0541   0.5016   1.6619   C.2       1 RES1   0.0000
    33 C20      7.8188   4.1914   1.1663   C.3       1 RES1   0.0000
    34 H9       7.2096   4.7846   1.6115   H         1 RES1   0.0000
    35 H10      8.6090   4.0816   1.7018   H         1 RES1   0.0000
    36 H11      7.3990   3.3371   1.0391   H         1 RES1   0.0000
    37 C21     15.1695  -0.2035   2.2419   C.2       1 RES1   0.0000
    38 H12     15.8579   0.1676   2.7448   H         1 RES1   0.0000
    39 C22      9.6205  -1.4579   1.7204   C.2       1 RES1   0.0000
    40 H13      9.2325  -1.8658   0.9796   H         1 RES1   0.0000
    41 C23      8.9386   5.9133  -2.5802   C.ar      1 RES1   0.0000
    42 H14      9.1840   6.2915  -3.3940   H         1 RES1   0.0000
    43 C24      8.0800   6.6071  -1.7494   C.ar      1 RES1   0.0000
    44 C25     10.8440  -0.2314   2.9386   C.2       1 RES1   0.0000
    45 H15     11.4795   0.3930   3.2077   H         1 RES1   0.0000
    46 C26     15.5168   3.7345   4.6615   C.ar      1 RES1   0.0000
    47 H16     15.3591   3.9333   5.5568   H         1 RES1   0.0000
    48 C27      7.5932   7.9808  -2.1148   C.3       1 RES1   0.0000
    49 H17      7.0087   8.3056  -1.4271   H         1 RES1   0.0000
    50 H18      7.1172   7.9407  -2.9465   H         1 RES1   0.0000
    51 H19      8.3435   8.5725  -2.2031   H         1 RES1   0.0000
    52 C28     13.3241   2.5332   4.6542   C.3       1 RES1   0.0000
    53 H20     12.7842   2.0289   4.0413   H         1 RES1   0.0000
    54 H21     12.8350   3.3015   4.9537   H         1 RES1   0.0000
    55 H22     13.5509   1.9830   5.4089   H         1 RES1   0.0000
    56 C29     10.0560  -0.9344   3.7766   C.2       1 RES1   0.0000
    57 H23     10.0500  -0.8958   4.7059   H         1 RES1   0.0000
    58 C30     17.6432   5.0575   4.8302   C.3       1 RES1   0.0000
    59 H24     18.3773   5.2904   4.2583   H         1 RES1   0.0000
    60 H25     17.9709   4.5725   5.5914   H         1 RES1   0.0000
    61 H26     17.2019   5.8569   5.1265   H         1 RES1   0.0000
    62 C31     10.4290   3.9822  -3.1537   C.3       1 RES1   0.0000
    63 H27     10.5581   4.5162  -3.9414   H         1 RES1   0.0000
    64 H28     10.0870   3.1205  -3.4036   H         1 RES1   0.0000
    65 H29     11.2670   3.8725  -2.6987   H         1 RES1   0.0000
    66 C32      8.2439  -2.6548   3.4219   C.3       1 RES1   0.0000
    67 H30      7.8447  -3.0701   2.6545   H         1 RES1   0.0000
    68 H31      7.5699  -2.1861   3.9203   H         1 RES1   0.0000
    69 H32      8.6437  -3.3282   3.9779   H         1 RES1   0.0000
    70 N1D      9.8392   0.3748  -0.9519   N.2       1 RES1   0.0000
    71 N3D     11.4222  -1.8914  -0.6093   N.2       1 RES1   0.0000
    72 C1D     14.0128  -4.0933   1.0174   C.ar      1 RES1   0.0000
    73 C2D      7.1341  -3.1615  -1.9976   C.ar      1 RES1   0.0000
    74 C3D     11.7896  -4.1639  -0.7852   C.2       1 RES1   0.0000
    75 H1D     12.1907  -4.9967  -0.6838   H         1 RES1   0.0000
    76 C4D      6.2166  -3.9051  -2.7359   C.ar      1 RES1   0.0000
    77 H2D      5.4430  -4.2121  -2.3203   H         1 RES1   0.0000
    78 C5D      6.4231  -4.1986  -4.0707   C.ar      1 RES1   0.0000
    79 C6D     10.4191  -2.4920  -1.3486   C.2       1 RES1   0.0000
    80 C7D     12.2561  -2.9166  -0.2343   C.2       1 RES1   0.0000
    81 C8D      6.8944  -2.9396  -0.5297   C.3       1 RES1   0.0000
    82 H3D      6.0596  -3.3400  -0.2785   H         1 RES1   0.0000
    83 H4D      7.6068  -3.3400  -0.0250   H         1 RES1   0.0000
    84 H5D      6.8655  -1.9963  -0.3496   H         1 RES1   0.0000
    85 C9D     13.6454  -4.6654   2.2390   C.ar      1 RES1   0.0000
    86 C10D     8.0673   1.5003  -1.9188   C.2       1 RES1   0.0000
    87 H6D      7.5029   2.1965  -2.1705   H         1 RES1   0.0000
    88 C11D     9.2868  -1.8536  -1.8501   C.2       1 RES1   0.0000
    89 C12D    15.3852  -6.0152   0.5547   C.ar      1 RES1   0.0000
    90 H7D     15.9780  -6.4620  -0.0058   H         1 RES1   0.0000
    91 C13D    10.6668  -3.8961  -1.4709   C.2       1 RES1   0.0000
    92 H8D     10.1470  -4.5087  -1.9381   H         1 RES1   0.0000
    93 C14D     8.5162  -2.9767  -3.9664   C.ar      1 RES1   0.0000
    94 C15D    13.3641  -2.8132   0.5943   C.2       1 RES1   0.0000
    95 C16D    14.8977  -4.7673   0.1690   C.ar      1 RES1   0.0000
    96 C17D     9.2536   1.6134  -1.1129   C.2       1 RES1   0.0000
    97 C18D     8.2894  -2.6757  -2.6194   C.ar      1 RES1   0.0000
    98 C19D     9.0388  -0.5016  -1.6619   C.2       1 RES1   0.0000
    99 C20D    15.2741  -4.1914  -1.1663   C.3       1 RES1   0.0000
   100 H9D     15.8833  -4.7846  -1.6115   H         1 RES1   0.0000
   101 H10D    14.4839  -4.0816  -1.7018   H         1 RES1   0.0000
   102 H11D    15.6939  -3.3371  -1.0391   H         1 RES1   0.0000
   103 C21D     7.9234   0.2035  -2.2419   C.2       1 RES1   0.0000
   104 H12D     7.2350  -0.1676  -2.7448   H         1 RES1   0.0000
   105 C23D    14.1543  -5.9133   2.5802   C.ar      1 RES1   0.0000
   106 H14D    13.9089  -6.2915   3.3940   H         1 RES1   0.0000
   107 C24D    15.0129  -6.6071   1.7494   C.ar      1 RES1   0.0000
   108 C26D     7.5761  -3.7345  -4.6615   C.ar      1 RES1   0.0000
   109 H16D     7.7338  -3.9333  -5.5568   H         1 RES1   0.0000
   110 C27D    15.4997  -7.9808   2.1148   C.3       1 RES1   0.0000
   111 H17D    16.0842  -8.3056   1.4271   H         1 RES1   0.0000
   112 H18D    15.9757  -7.9407   2.9465   H         1 RES1   0.0000
   113 H19D    14.7494  -8.5725   2.2031   H         1 RES1   0.0000
   114 C28D     9.7688  -2.5332  -4.6542   C.3       1 RES1   0.0000
   115 H20D    10.3087  -2.0289  -4.0413   H         1 RES1   0.0000
   116 H21D    10.2579  -3.3015  -4.9537   H         1 RES1   0.0000
   117 H22D     9.5420  -1.9830  -5.4089   H         1 RES1   0.0000
   118 C30D     5.4497  -5.0575  -4.8302   C.3       1 RES1   0.0000
   119 H24D     4.7156  -5.2904  -4.2583   H         1 RES1   0.0000
   120 H25D     5.1220  -4.5725  -5.5914   H         1 RES1   0.0000
   121 H26D     5.8910  -5.8569  -5.1265   H         1 RES1   0.0000
   122 C31D    12.6639  -3.9822   3.1537   C.3       1 RES1   0.0000
   123 H27D    12.5348  -4.5162   3.9414   H         1 RES1   0.0000
   124 H28D    13.0059  -3.1205   3.4036   H         1 RES1   0.0000
   125 H29D    11.8259  -3.8725   2.6987   H         1 RES1   0.0000
   126 N2D     12.5117   0.5583  -1.6509   N.2       1 RES1   0.0000
   127 N4D     13.8209   1.7120  -2.9851   N.pl3     1 RES1   0.0000
   128 C22D    13.4724   1.4579  -1.7204   C.2       1 RES1   0.0000
   129 H13D    13.8604   1.8658  -0.9796   H         1 RES1   0.0000
   130 C25D    12.2489   0.2314  -2.9386   C.2       1 RES1   0.0000
   131 H15D    11.6134  -0.3930  -3.2077   H         1 RES1   0.0000
   132 C29D    13.0369   0.9344  -3.7766   C.2       1 RES1   0.0000
   133 H23D    13.0429   0.8958  -4.7059   H         1 RES1   0.0000
   134 C32D    14.8490   2.6548  -3.4219   C.3       1 RES1   0.0000
   135 H30D    15.2482   3.0701  -2.6545   H         1 RES1   0.0000
   136 H31D    15.5230   2.1861  -3.9203   H         1 RES1   0.0000
   137 H32D    14.4492   3.3282  -3.9779   H         1 RES1   0.0000
   138 C33      8.3412   8.3575   2.1628   C.ar      2 RES2   0.0000
   139 H33      7.5329   8.7639   1.9457   H         2 RES2   0.0000
   140 C34     10.6504   8.0965   1.8439   C.ar      2 RES2   0.0000
   141 H34     11.4194   8.3352   1.3791   H         2 RES2   0.0000
   142 C35      9.4542   8.6882   1.5078   C.ar      2 RES2   0.0000
   143 H35      9.4242   9.3186   0.8240   H         2 RES2   0.0000
   144 C36      9.6228   6.8121   3.5112   C.ar      2 RES2   0.0000
   145 H36      9.6644   6.1802   4.1911   H         2 RES2   0.0000
   146 C37     10.7451   7.1591   2.8523   C.ar      2 RES2   0.0000
   147 H37     11.5626   6.7765   3.0732   H         2 RES2   0.0000
   148 C38      8.3989   7.3920   3.1789   C.ar      2 RES2   0.0000
   149 H38      7.6253   7.1413   3.6283   H         2 RES2   0.0000
   150 C39     17.9339   0.3307  -1.4000   C.ar      3 RES3   0.0000
   151 C40     18.5392   0.6719  -2.5873   C.ar      3 RES3   0.0000
   152 C41     17.9155   0.3500  -3.7762   C.ar      3 RES3   0.0000
   153 C39A    16.7054  -0.3307  -1.4000   C.ar      3 RES3   0.0000
   154 C40A    16.1001  -0.6719  -2.5873   C.ar      3 RES3   0.0000
   155 C41A    16.7239  -0.3500  -3.7762   C.ar      3 RES3   0.0000
@<TRIPOS>BOND
     1     1     2    1
     2     2    30    1
     3     3     1    1
     4     4     1    1
     5     5    18   ar
     6     6     9   ar
     7     7     8    1
     8     9    10    1
     9    11     9   ar
    10    12     4    1
    11    13     4    1
    12    14     6    1
    13    15    14    1
    14    16    14    1
    15    17    14    1
    16    18    41   ar
    17    19    20    1
    18    21    39    1
    19    22    12    2
    20    23    24    1
    21    25     7    2
    22    26    25    1
    23    27    31   ar
    24    28     5    1
    25    29     5   ar
    26    30    19    1
    27    31     6   ar
    28    32     2    2
    29    33    29    1
    30    34    33    1
    31    35    33    1
    32    36    33    1
    33    37    19    2
    34    38    37    1
    35    39     3    2
    36    40    39    1
    37    41    42    1
    38    43    23   ar
    39    44     3    1
    40    45    44    1
    41    46    11   ar
    42    47    46    1
    43    48    43    1
    44    49    48    1
    45    50    48    1
    46    51    48    1
    47    52    27    1
    48    53    52    1
    49    54    52    1
    50    55    52    1
    51    56    21    1
    52    57    56    1
    53    58    11    1
    54    59    58    1
    55    60    58    1
    56    61    58    1
    57    62    18    1
    58    63    62    1
    59    64    62    1
    60    65    62    1
    61    66    21    1
    62    67    66    1
    63    68    66    1
    64    69    66    1
    65    70     1    1
    66    71     1    1
    67    72    85   ar
    68    73    76   ar
    69    74    75    1
    70    76    77    1
    71    78    76   ar
    72    79    71    1
    73    80    71    1
    74    81    73    1
    75    82    81    1
    76    83    81    1
    77    84    81    1
    78    85   105   ar
    79    86    87    1
    80    88    79    1
    81    89    90    1
    82    91    74    1
    83    92    91    1
    84    93    97   ar
    85    94    30    2
    86    95    72   ar
    87    96    28    1
    88    97    73   ar
    89    98    70    1
    90    99    95    1
    91   100    99    1
    92   101    99    1
    93   102    99    1
    94   103    86    2
    95   104   103    1
    96   105   106    1
    97   107    89   ar
    98   108    78   ar
    99   109   108    1
   100   110   107    1
   101   111   110    1
   102   112   110    1
   103   113   110    1
   104   114    93    1
   105   115   114    1
   106   116   114    1
   107   117   114    1
   108   118    78    1
   109   119   118    1
   110   120   118    1
   111   121   118    1
   112   122    85    1
   113   123   122    1
   114   124   122    1
   115   125   122    1
   116   126     1    1
   117   127   128    1
   118   128   126    2
   119   129   128    1
   120   130   126    1
   121   131   130    1
   122   132   127    1
   123   133   132    1
   124   134   127    1
   125   135   134    1
   126   136   134    1
   127   137   134    1
   128     7    13    1
   129    12    25    1
   130    13    28    2
   131    22    31    1
   132    22    32    1
   133    23    29   ar
   134    27    46   ar
   135    32    37    1
   136    41    43   ar
   137    44    56    2
   138    70    96    2
   139    72    94    1
   140    74    80    2
   141    79    91    2
   142    80    94    1
   143    86    96    1
   144    88    97    1
   145    88    98    2
   146    89    95   ar
   147    93   108   ar
   148    98   103    1
   149   105   107   ar
   150   130   132    2
   151   138   139    1
   152   140   141    1
   153   142   138   ar
   154   143   142    1
   155   144   145    1
   156   146   140   ar
   157   147   146    1
   158   148   138   ar
   159   149   148    1
   160   140   142   ar
   161   144   146   ar
   162   144   148   ar
   163   150   151   ar
   164   151   152   ar
   165   152   155   ar
   166   153   150   ar
   167   154   153   ar
   168   155   154   ar
@<TRIPOS>SUBSTRUCTURE
     1 RES1        1 GROUP             0 ****  ****    0  
     2 RES2      138 GROUP             0 ****  ****    0  
     3 RES3      150 GROUP             0 ****  ****    0  
@<TRIPOS>CRYSIN
   23.0929   14.8314   19.2077   90.0000   90.0000   90.0000    54     1
