@<TRIPOS>MOLECULE
PIVGUX
   113   120     3     0     0
SMALL
USER_CHARGES
****
Generated from the CSD

@<TRIPOS>ATOM
     1 Fe1      2.7564  14.3852   3.6975   Fe        1 RES1   2.0000
     2 N1       2.0076  14.3714   1.8621   N.ar      1 RES1   0.0000
     3 N2       2.4065  12.5344   3.5179   N.ar      1 RES1   0.0000
     4 N3       3.4303  13.7654   5.4561   N.ar      1 RES1   0.0000
     5 N4       1.0447  14.9984   4.4865   N.ar      1 RES1   0.0000
     6 N5       3.1122  16.2333   3.8195   N.ar      1 RES1   0.0000
     7 N6       4.5810  14.3970   2.9356   N.ar      1 RES1   0.0000
     8 C1       1.8460  15.4434   1.0482   C.ar      1 RES1   0.0000
     9 C2       1.3636  15.3112  -0.2494   C.ar      1 RES1   0.0000
    10 C3       1.0586  14.0548  -0.7196   C.ar      1 RES1   0.0000
    11 C4       1.1941  12.9568   0.1144   C.ar      1 RES1   0.0000
    12 C5       1.6774  13.1396   1.3906   C.ar      1 RES1   0.0000
    13 C6       1.9181  12.0519   2.3524   C.ar      1 RES1   0.0000
    14 C7       1.7199  10.7011   2.1513   C.ar      1 RES1   0.0000
    15 C8       2.0120   9.8249   3.1962   C.ar      1 RES1   0.0000
    16 C9       2.4848  10.3418   4.4235   C.ar      1 RES1   0.0000
    17 C10      2.7029  11.6982   4.5345   C.ar      1 RES1   0.0000
    18 C11      3.3156  12.4105   5.6677   C.ar      1 RES1   0.0000
    19 C12      3.7528  11.8125   6.8283   C.ar      1 RES1   0.0000
    20 C13      4.3316  12.5814   7.8110   C.ar      1 RES1   0.0000
    21 C14      4.4785  13.9470   7.5931   C.ar      1 RES1   0.0000
    22 C15      4.0057  14.4980   6.4195   C.ar      1 RES1   0.0000
    23 C16      0.0078  14.2223   4.8379   C.ar      1 RES1   0.0000
    24 C17     -1.1403  14.7434   5.4056   C.ar      1 RES1   0.0000
    25 C18     -1.2228  16.1133   5.6181   C.ar      1 RES1   0.0000
    26 C19     -0.1669  16.9222   5.2425   C.ar      1 RES1   0.0000
    27 C20      0.9577  16.3438   4.6910   C.ar      1 RES1   0.0000
    28 C21      2.1606  17.0786   4.2859   C.ar      1 RES1   0.0000
    29 C22      2.3787  18.4393   4.3260   C.ar      1 RES1   0.0000
    30 C23      3.6016  18.9344   3.8624   C.ar      1 RES1   0.0000
    31 C24      4.5558  18.0688   3.3559   C.ar      1 RES1   0.0000
    32 C25      4.2742  16.7162   3.3460   C.ar      1 RES1   0.0000
    33 C26      5.1277  15.6434   2.8192   C.ar      1 RES1   0.0000
    34 C27      6.3670  15.8407   2.2354   C.ar      1 RES1   0.0000
    35 C28      7.0614  14.7453   1.7612   C.ar      1 RES1   0.0000
    36 C29      6.5226  13.4852   1.8928   C.ar      1 RES1   0.0000
    37 C30      5.2824  13.3376   2.4918   C.ar      1 RES1   0.0000
    38 C31      1.7113   7.8586   1.8626   C.3       1 RES1   0.0000
    39 C32      2.0015   6.3966   2.0641   C.3       1 RES1   0.0000
    40 C33     -0.0791   5.2347   2.3396   C.3       1 RES1   0.0000
    41 C34      0.0209   3.7525   2.1943   C.3       1 RES1   0.0000
    42 C35      1.1481   2.0492   1.0156   C.3       1 RES1   0.0000
    43 C36      0.0356   1.3989   0.3522   C.1       1 RES1   0.0000
    44 C37     -0.8639   0.8277  -0.1823   C.1       1 RES1   0.0000
    45 C38      4.8383  20.8494   3.1825   C.3       1 RES1   0.0000
    46 C39      4.8409  22.3359   3.4416   C.3       1 RES1   0.0000
    47 C40      3.2391  23.1246   1.8448   C.3       1 RES1   0.0000
    48 C41      3.4103  24.5430   1.4707   C.3       1 RES1   0.0000
    49 C42      5.0382  26.2233   1.4707   C.3       1 RES1   0.0000
    50 C43      5.0660  26.8094   0.0918   C.1       1 RES1   0.0000
    51 C44      5.2320  27.2629  -0.9430   C.1       1 RES1   0.0000
    52 O1       1.9007   8.4967   3.1535   O.3       1 RES1   0.0000
    53 O2       1.0933   5.7730   2.9432   O.3       1 RES1   0.0000
    54 O3       0.9743   3.4592   1.1889   O.3       1 RES1   0.0000
    55 O4       3.7641  20.2710   3.9461   O.3       1 RES1   0.0000
    56 O5       3.6024  22.9396   3.2186   O.3       1 RES1   0.0000
    57 O6       4.7653  24.8611   1.5296   O.3       1 RES1   0.0000
    58 H1       2.0754  16.3518   1.3994   H         1 RES1   0.0000
    59 H2       1.2454  16.1186  -0.8265   H         1 RES1   0.0000
    60 H3       0.7422  13.9317  -1.6612   H         1 RES1   0.0000
    61 H4       0.9352  12.0431  -0.1946   H         1 RES1   0.0000
    62 H5       1.3793  10.3609   1.2747   H         1 RES1   0.0000
    63 H6       2.6638   9.7339   5.1959   H         1 RES1   0.0000
    64 H7       3.6511  10.8273   6.9544   H         1 RES1   0.0000
    65 H8       4.6410  12.1731   8.6704   H         1 RES1   0.0000
    66 H9       4.9287  14.5243   8.2757   H         1 RES1   0.0000
    67 H10      4.0874  15.4878   6.2869   H         1 RES1   0.0000
    68 H11      0.0626  13.2359   4.6737   H         1 RES1   0.0000
    69 H12     -1.8894  14.1344   5.6633   H         1 RES1   0.0000
    70 H13     -2.0372  16.5048   6.0443   H         1 RES1   0.0000
    71 H14     -0.2181  17.9155   5.3590   H         1 RES1   0.0000
    72 H15      1.6765  19.0663   4.6642   H         1 RES1   0.0000
    73 H16      5.4232  18.4164   3.0030   H         1 RES1   0.0000
    74 H17      6.7494  16.7609   2.1614   H         1 RES1   0.0000
    75 H18      7.9497  14.8684   1.3213   H         1 RES1   0.0000
    76 H19      7.0171  12.6854   1.5584   H         1 RES1   0.0000
    77 H20      4.9009  12.4216   2.6069   H         1 RES1   0.0000
    78 H21      0.7735   7.9905   1.5392   H         1 RES1   0.0000
    79 H22      2.3474   8.2466   1.1979   H         1 RES1   0.0000
    80 H23      1.9433   5.9336   1.1801   H         1 RES1   0.0000
    81 H24      2.9263   6.3006   2.4342   H         1 RES1   0.0000
    82 H25     -0.1825   5.6239   1.4254   H         1 RES1   0.0000
    83 H26     -0.8752   5.4710   2.8933   H         1 RES1   0.0000
    84 H27     -0.8682   3.3644   1.9476   H         1 RES1   0.0000
    85 H28      0.3224   3.3721   3.0688   H         1 RES1   0.0000
    86 H29      1.9694   1.8887   0.4715   H         1 RES1   0.0000
    87 H30      1.2637   1.6363   1.9188   H         1 RES1   0.0000
    88 H31     -1.6139   0.3441  -0.6373   H         1 RES1   0.0000
    89 H32      4.6645  20.7103   2.2067   H         1 RES1   0.0000
    90 H33      5.7082  20.4235   3.4334   H         1 RES1   0.0000
    91 H34      5.5370  22.7786   2.8783   H         1 RES1   0.0000
    92 H35      5.0695  22.4575   4.4078   H         1 RES1   0.0000
    93 H36      2.2892  22.8436   1.7091   H         1 RES1   0.0000
    94 H37      3.8353  22.5645   1.2733   H         1 RES1   0.0000
    95 H38      3.0749  24.6902   0.5400   H         1 RES1   0.0000
    96 H39      2.8906  25.1146   2.1052   H         1 RES1   0.0000
    97 H40      4.3220  26.7012   1.9750   H         1 RES1   0.0000
    98 H41      5.9212  26.3839   1.9147   H         1 RES1   0.0000
    99 H42      5.4180  27.6341  -1.8517   H         1 RES1   0.0000
   100 P1       4.7157  18.5043   8.1456   P.3       2 RES2  -1.0000
   101 F1       5.3137  17.0687   8.4933   F         2 RES2   0.0000
   102 F2       4.1578  19.9254   7.8042   F         2 RES2   0.0000
   103 F3       4.5080  18.0222   6.6885   F         2 RES2   0.0000
   104 F4       5.0243  18.9726   9.6312   F         2 RES2   0.0000
   105 F5       6.1871  18.9910   7.8343   F         2 RES2   0.0000
   106 F6       3.2904  18.0532   8.5361   F         2 RES2   0.0000
   107 P2       6.2493   9.2510   2.4421   P.3       3 RES3  -1.0000
   108 F7       5.1764   8.1144   2.4095   F         3 RES3   0.0000
   109 F8       7.3326  10.3999   2.5452   F         3 RES3   0.0000
   110 F9       7.0301   8.5731   1.2349   F         3 RES3   0.0000
   111 F10      5.4623   9.9858   3.5704   F         3 RES3   0.0000
   112 F11      7.1266   8.4802   3.4621   F         3 RES3   0.0000
   113 F12      5.4510  10.0883   1.3925   F         3 RES3   0.0000
@<TRIPOS>BOND
     1     1     2    1
     2     2     8   ar
     3     3     1    1
     4     4     1    1
     5     5     1    1
     6     6     1    1
     7     7     1    1
     8     8     9   ar
     9     9    10   ar
    10    10    11   ar
    11    11    12   ar
    12    12     2   ar
    13    13     3   ar
    14    14    13   ar
    15    15    14   ar
    16    16    15   ar
    17    17     3   ar
    18    18     4   ar
    19    19    18   ar
    20    20    19   ar
    21    21    20   ar
    22    22     4   ar
    23    23     5   ar
    24    24    23   ar
    25    25    24   ar
    26    26    25   ar
    27    27     5   ar
    28    28     6   ar
    29    29    28   ar
    30    30    29   ar
    31    31    30   ar
    32    32     6   ar
    33    33     7   ar
    34    34    33   ar
    35    35    34   ar
    36    36    35   ar
    37    37     7   ar
    38    38    39    1
    39    39    53    1
    40    40    41    1
    41    41    54    1
    42    42    43    1
    43    43    44    3
    44    44    88    1
    45    45    46    1
    46    46    56    1
    47    47    48    1
    48    48    57    1
    49    49    50    1
    50    50    51    3
    51    51    99    1
    52    52    15    1
    53    53    40    1
    54    54    42    1
    55    55    30    1
    56    56    47    1
    57    57    49    1
    58    58     8    1
    59    59     9    1
    60    60    10    1
    61    61    11    1
    62    62    14    1
    63    63    16    1
    64    64    19    1
    65    65    20    1
    66    66    21    1
    67    67    22    1
    68    68    23    1
    69    69    24    1
    70    70    25    1
    71    71    26    1
    72    72    29    1
    73    73    31    1
    74    74    34    1
    75    75    35    1
    76    76    36    1
    77    77    37    1
    78    78    38    1
    79    79    38    1
    80    80    39    1
    81    81    39    1
    82    82    40    1
    83    83    40    1
    84    84    41    1
    85    85    41    1
    86    86    42    1
    87    87    42    1
    88    89    45    1
    89    90    45    1
    90    91    46    1
    91    92    46    1
    92    93    47    1
    93    94    47    1
    94    95    48    1
    95    96    48    1
    96    97    49    1
    97    98    49    1
    98    12    13    1
    99    16    17   ar
   100    17    18    1
   101    21    22   ar
   102    26    27   ar
   103    27    28    1
   104    31    32   ar
   105    32    33    1
   106    36    37   ar
   107    38    52    1
   108    45    55    1
   109   100   101    1
   110   102   100    1
   111   103   100    1
   112   104   100    1
   113   105   100    1
   114   106   100    1
   115   107   108    1
   116   109   107    1
   117   110   107    1
   118   111   107    1
   119   112   107    1
   120   113   107    1
@<TRIPOS>SUBSTRUCTURE
     1 RES1        1 GROUP             0 ****  ****    0  
     2 RES2      100 GROUP             0 ****  ****    0  
     3 RES3      107 GROUP             0 ****  ****    0  
@<TRIPOS>CRYSIN
    8.6910   38.2320   13.7060   90.0000   90.0000   90.0000    19     1
