@<TRIPOS>MOLECULE
PIVVEY
   179   182     1     0     0
SMALL
NO_CHARGES
****
Generated from the CSD

@<TRIPOS>ATOM
     1 C1       9.5870   7.6569  33.4275   C.2       1 RES1   0.0000
     2 C2       8.4281   7.9965  32.5753   C.2       1 RES1   0.0000
     3 C3       8.4279   9.1523  31.7528   C.2       1 RES1   0.0000
     4 H1       7.6496   9.2773  31.2234   H         1 RES1   0.0000
     5 C4       9.1191  11.2138  30.8001   C.ar      1 RES1   0.0000
     6 C5       7.9549  11.3390  29.9913   C.ar      1 RES1   0.0000
     7 H2       7.2977  10.6530  29.9749   H         1 RES1   0.0000
     8 C6       7.8011  12.4846  29.2287   C.ar      1 RES1   0.0000
     9 C7       8.7590  13.4650  29.2337   C.ar      1 RES1   0.0000
    10 C8       9.8990  13.3470  30.0192   C.ar      1 RES1   0.0000
    11 H3      10.5541  14.0349  30.0278   H         1 RES1   0.0000
    12 C9      10.0667  12.1870  30.8033   C.ar      1 RES1   0.0000
    13 C10     12.1847  12.8073  31.6527   C.2       1 RES1   0.0000
    14 H4      12.0728  13.5835  31.1162   H         1 RES1   0.0000
    15 C11     13.4382  12.7047  32.3832   C.2       1 RES1   0.0000
    16 C12     13.7316  11.6400  33.2674   C.2       1 RES1   0.0000
    17 C13      9.5872   6.4200  34.2836   C.3       1 RES1   0.0000
    18 H5      10.4801   6.2854  34.6634   H         1 RES1   0.0000
    19 H6       9.3444   5.6438  33.7363   H         1 RES1   0.0000
    20 H7       8.9359   6.5244  35.0085   H         1 RES1   0.0000
    21 C14     15.0861  11.4349  33.8809   C.3       1 RES1   0.0000
    22 H8      15.1793  12.0118  34.6677   H         1 RES1   0.0000
    23 H9      15.7793  11.6614  33.2260   H         1 RES1   0.0000
    24 H10     15.1845  10.4977  34.1496   H         1 RES1   0.0000
    25 C15      7.2206   7.2263  32.5027   C.2       1 RES1   0.0000
    26 C16      5.8681   5.4264  33.2336   C.3       1 RES1   0.0000
    27 H11      5.0984   6.0206  33.3564   H         1 RES1   0.0000
    28 H12      5.8654   4.7393  33.9317   H         1 RES1   0.0000
    29 H13      5.8131   4.9987  32.3534   H         1 RES1   0.0000
    30 C17     14.3927  13.7548  32.1872   C.2       1 RES1   0.0000
    31 C18     14.8813  15.7538  30.9651   C.3       1 RES1   0.0000
    32 H14     14.8353  16.3500  31.7416   H         1 RES1   0.0000
    33 H15     14.5796  16.2340  30.1661   H         1 RES1   0.0000
    34 H16     15.8062  15.4554  30.8370   H         1 RES1   0.0000
    35 C19      5.5911  11.8438  28.5595   C.3       1 RES1   0.0000
    36 H17      5.3353  11.7198  29.5076   H         1 RES1   0.0000
    37 H18      5.8247  10.9615  28.1766   H         1 RES1   0.0000
    38 C20      4.4497  12.4746  27.7807   C.3       1 RES1   0.0000
    39 H19      4.3062  13.3981  28.1063   H         1 RES1   0.0000
    40 H20      3.6203  11.9608  27.9487   H         1 RES1   0.0000
    41 C21      4.7222  12.5107  26.2674   C.3       1 RES1   0.0000
    42 H21      5.6436  12.8349  26.1084   H         1 RES1   0.0000
    43 H22      4.6538  11.5933  25.9009   H         1 RES1   0.0000
    44 C22      3.7312  13.4225  25.5376   C.3       1 RES1   0.0000
    45 H23      2.8095  13.1369  25.7597   H         1 RES1   0.0000
    46 H24      3.8468  14.3491  25.8660   H         1 RES1   0.0000
    47 C23      3.8991  13.4114  24.0216   C.3       1 RES1   0.0000
    48 H25      3.7008  12.5044  23.6776   H         1 RES1   0.0000
    49 H26      4.8392  13.6243  23.7957   H         1 RES1   0.0000
    50 C24      2.9735  14.4247  23.3400   C.3       1 RES1   0.0000
    51 H27      2.0401  14.2394  23.6146   H         1 RES1   0.0000
    52 H28      3.2052  15.3331  23.6576   H         1 RES1   0.0000
    53 C25      3.0513  14.4014  21.8155   C.3       1 RES1   0.0000
    54 H29      3.9852  14.5772  21.5383   H         1 RES1   0.0000
    55 H30      2.8059  13.4975  21.4944   H         1 RES1   0.0000
    56 C26      2.1430  15.4208  21.1587   C.3       1 RES1   0.0000
    57 H31      2.4071  16.3257  21.4599   H         1 RES1   0.0000
    58 H32      1.2134  15.2622  21.4611   H         1 RES1   0.0000
    59 C27      2.1788  15.3780  19.6422   C.3       1 RES1   0.0000
    60 H33      1.8997  14.4780  19.3398   H         1 RES1   0.0000
    61 H34      3.1101  15.5231  19.3395   H         1 RES1   0.0000
    62 C28      1.2793  16.4200  18.9868   C.3       1 RES1   0.0000
    63 H35      0.3481  16.2770  19.2910   H         1 RES1   0.0000
    64 H36      1.5598  17.3207  19.2868   H         1 RES1   0.0000
    65 C29      1.3146  16.3731  17.4725   C.3       1 RES1   0.0000
    66 H37      1.0321  15.4721  17.1744   H         1 RES1   0.0000
    67 H38      2.2473  16.5107  17.1704   H         1 RES1   0.0000
    68 C30      0.4230  17.4130  16.8051   C.3       1 RES1   0.0000
    69 H39     -0.5089  17.2790  17.1103   H         1 RES1   0.0000
    70 H40      0.7090  18.3147  17.0980   H         1 RES1   0.0000
    71 C31      0.4552  17.3579  15.2837   C.3       1 RES1   0.0000
    72 H41      0.1696  16.4564  14.9894   H         1 RES1   0.0000
    73 H42      1.3868  17.4937  14.9771   H         1 RES1   0.0000
    74 C32     -0.4417  18.4020  14.6223   C.3       1 RES1   0.0000
    75 H43     -1.3749  18.2648  14.9224   H         1 RES1   0.0000
    76 H44     -0.1581  19.3044  14.9143   H         1 RES1   0.0000
    77 C33     -0.3905  18.3304  13.0992   C.3       1 RES1   0.0000
    78 H45     -0.6718  17.4263  12.8099   H         1 RES1   0.0000
    79 H46      0.5441  18.4655  12.8018   H         1 RES1   0.0000
    80 C34     -1.2852  19.3724  12.4191   C.3       1 RES1   0.0000
    81 H47     -2.2229  19.2263  12.7016   H         1 RES1   0.0000
    82 H48     -1.0152  20.2757  12.7197   H         1 RES1   0.0000
    83 C35     -1.2088  19.3101  10.9076   C.3       1 RES1   0.0000
    84 H49     -1.4828  18.4067  10.6099   H         1 RES1   0.0000
    85 H50     -0.2691  19.4474  10.6286   H         1 RES1   0.0000
    86 C36     -2.0874  20.3470  10.2105   C.3       1 RES1   0.0000
    87 H51     -3.0328  20.1876  10.4565   H         1 RES1   0.0000
    88 H52     -1.8385  21.2498  10.5318   H         1 RES1   0.0000
    89 C37     -1.9539  20.3041   8.6952   C.3       1 RES1   0.0000
    90 H53     -1.0035  20.4366   8.4502   H         1 RES1   0.0000
    91 H54     -2.2283  19.4098   8.3713   H         1 RES1   0.0000
    92 C38     -2.7973  21.3626   8.0052   C.3       1 RES1   0.0000
    93 H55     -3.7456  21.1884   8.1777   H         1 RES1   0.0000
    94 H56     -2.6298  21.3356   7.0399   H         1 RES1   0.0000
    95 H57     -2.5588  22.2478   8.3530   H         1 RES1   0.0000
    96 C39      8.4882  14.5483  27.1052   C.3       1 RES1   0.0000
    97 H58      8.2270  13.6265  26.8576   H         1 RES1   0.0000
    98 H59      9.3690  14.7421  26.6961   H         1 RES1   0.0000
    99 C40      7.4582  15.5288  26.5922   C.3       1 RES1   0.0000
   100 H60      7.6792  16.4401  26.9099   H         1 RES1   0.0000
   101 H61      6.5652  15.2875  26.9446   H         1 RES1   0.0000
   102 C41      7.4297  15.5105  25.0595   C.3       1 RES1   0.0000
   103 H62      8.3405  15.6997  24.7214   H         1 RES1   0.0000
   104 H63      7.1791  14.6022  24.7564   H         1 RES1   0.0000
   105 C42      6.4610  16.5167  24.4482   C.3       1 RES1   0.0000
   106 H64      6.6974  17.4256  24.7597   H         1 RES1   0.0000
   107 H65      5.5438  16.3162  24.7626   H         1 RES1   0.0000
   108 C43      6.4848  16.4871  22.9162   C.3       1 RES1   0.0000
   109 H66      7.4123  16.6466  22.6095   H         1 RES1   0.0000
   110 H67      6.2182  15.5843  22.6109   H         1 RES1   0.0000
   111 C44      5.5675  17.5169  22.2612   C.3       1 RES1   0.0000
   112 H68      4.6381  17.3597  22.5624   H         1 RES1   0.0000
   113 H69      5.8336  18.4228  22.5602   H         1 RES1   0.0000
   114 C45      5.6126  17.4638  20.7373   C.3       1 RES1   0.0000
   115 H70      5.3328  16.5622  20.4391   H         1 RES1   0.0000
   116 H71      6.5459  17.6043  20.4382   H         1 RES1   0.0000
   117 C46      4.7120  18.5109  20.0678   C.3       1 RES1   0.0000
   118 H72      3.7788  18.3721  20.3670   H         1 RES1   0.0000
   119 H73      4.9930  19.4135  20.3635   H         1 RES1   0.0000
   120 C47      4.7591  18.4516  18.5390   C.3       1 RES1   0.0000
   121 H74      5.6940  18.5818  18.2409   H         1 RES1   0.0000
   122 H75      4.4703  17.5520  18.2437   H         1 RES1   0.0000
   123 C48      3.8751  19.4998  17.8681   C.3       1 RES1   0.0000
   124 H76      4.1673  20.4000  18.1594   H         1 RES1   0.0000
   125 H77      2.9411  19.3735  18.1706   H         1 RES1   0.0000
   126 C49      3.9144  19.4365  16.3425   C.3       1 RES1   0.0000
   127 H78      3.6248  18.5355  16.0516   H         1 RES1   0.0000
   128 H79      4.8486  19.5647  16.0403   H         1 RES1   0.0000
   129 C50      3.0267  20.4847  15.6666   C.3       1 RES1   0.0000
   130 H80      2.0918  20.3558  15.9663   H         1 RES1   0.0000
   131 H81      3.3149  21.3863  15.9579   H         1 RES1   0.0000
   132 C51      3.0717  20.4192  14.1488   C.3       1 RES1   0.0000
   133 H82      2.7938  19.5147  13.8572   H         1 RES1   0.0000
   134 H83      4.0043  20.5604  13.8478   H         1 RES1   0.0000
   135 C52      2.1634  21.4643  13.4750   C.3       1 RES1   0.0000
   136 H84      1.2295  21.3190  13.7696   H         1 RES1   0.0000
   137 H85      2.4368  22.3689  13.7711   H         1 RES1   0.0000
   138 C53      2.2212  21.4000  11.9427   C.3       1 RES1   0.0000
   139 H86      3.1533  21.5571  11.6480   H         1 RES1   0.0000
   140 H87      1.9592  20.4924  11.6476   H         1 RES1   0.0000
   141 C54      1.3108  22.4215  11.2739   C.3       1 RES1   0.0000
   142 H88      1.5766  23.3292  11.5665   H         1 RES1   0.0000
   143 H89      0.3802  22.2679  11.5743   H         1 RES1   0.0000
   144 C55      1.3557  22.3591   9.7427   C.3       1 RES1   0.0000
   145 H90      2.2861  22.5155   9.4413   H         1 RES1   0.0000
   146 H91      1.0915  21.4518   9.4492   H         1 RES1   0.0000
   147 C56      0.4415  23.3827   9.0774   C.3       1 RES1   0.0000
   148 H92      0.7062  24.2897   9.3708   H         1 RES1   0.0000
   149 H93     -0.4887  23.2267   9.3803   H         1 RES1   0.0000
   150 C57      0.4820  23.3234   7.5486   C.3       1 RES1   0.0000
   151 H94      1.4107  23.4788   7.2444   H         1 RES1   0.0000
   152 H95      0.2148  22.4163   7.2539   H         1 RES1   0.0000
   153 C58     -0.4360  24.3501   6.8900   C.3       1 RES1   0.0000
   154 H96     -1.3525  24.2250   7.2140   H         1 RES1   0.0000
   155 H97     -0.4147  24.2314   5.9173   H         1 RES1   0.0000
   156 H98     -0.1305  25.2535   7.1154   H         1 RES1   0.0000
   157 C59     12.1300   8.8419  30.0068   C.3       1 RES1   0.0000
   158 H99     11.3936   8.1973  29.9597   H         1 RES1   0.0000
   159 H100    12.9255   8.4616  29.5797   H         1 RES1   0.0000
   160 H101    11.8725   9.6661  29.5425   H         1 RES1   0.0000
   161 C60     10.0855  12.3905  34.8050   C.3       1 RES1   0.0000
   162 H102    10.9888  12.7654  34.7461   H         1 RES1   0.0000
   163 H103     9.7366  12.5194  35.7118   H         1 RES1   0.0000
   164 H104     9.5007  12.8438  34.1625   H         1 RES1   0.0000
   165 N1       9.3396  10.0589  31.6237   N.2       1 RES1   0.0000
   166 N2      11.2070  11.9643  31.6498   N.2       1 RES1   0.0000
   167 O1      10.5829   8.4024  33.4793   O.2       1 RES1   0.0000
   168 O2      12.8747  10.7355  33.5470   O.2       1 RES1   0.0000
   169 O3       6.2727   7.4941  31.7479   O.2       1 RES1   0.0000
   170 O4       7.0803   6.1904  33.3186   O.3       1 RES1   0.0000
   171 O5      15.4299  13.9629  32.7968   O.2       1 RES1   0.0000
   172 O6      14.0407  14.6185  31.1855   O.3       1 RES1   0.0000
   173 O7       6.6862  12.7298  28.4573   O.3       1 RES1   0.0000
   174 O8       8.5798  14.6640  28.5507   O.3       1 RES1   0.0000
   175 O9      12.4009   9.1186  31.2906   O.3       1 RES1   0.0000
   176 H105    13.1353   8.7712  31.5027   H         1 RES1   0.0000
   177 O10     10.1293  10.9825  34.5039   O.3       1 RES1   0.0000
   178 H106    10.0958  10.5424  35.2182   H         1 RES1   0.0000
   179 Fe1     11.1161  10.1684  32.7336   Fe        1 RES1   0.0000
@<TRIPOS>BOND
     1     1     2    1
     2     2     3    2
     3     3     4    1
     4     5     6   ar
     5     6     7    1
     6     8     6   ar
     7     9     8   ar
     8    10     9   ar
     9    11    10    1
    10    12     5   ar
    11    13    14    1
    12    15    13    2
    13    16    15    1
    14    17     1    1
    15    18    17    1
    16    19    17    1
    17    20    17    1
    18    21    16    1
    19    22    21    1
    20    23    21    1
    21    24    21    1
    22    25     2    1
    23    26    27    1
    24    28    26    1
    25    29    26    1
    26    30    15    1
    27    31    32    1
    28    33    31    1
    29    34    31    1
    30    35    36    1
    31    37    35    1
    32    38    35    1
    33    39    38    1
    34    40    38    1
    35    41    38    1
    36    42    41    1
    37    43    41    1
    38    44    41    1
    39    45    44    1
    40    46    44    1
    41    47    44    1
    42    48    47    1
    43    49    47    1
    44    50    47    1
    45    51    50    1
    46    52    50    1
    47    53    50    1
    48    54    53    1
    49    55    53    1
    50    56    53    1
    51    57    56    1
    52    58    56    1
    53    59    56    1
    54    60    59    1
    55    61    59    1
    56    62    59    1
    57    63    62    1
    58    64    62    1
    59    65    62    1
    60    66    65    1
    61    67    65    1
    62    68    65    1
    63    69    68    1
    64    70    68    1
    65    71    68    1
    66    72    71    1
    67    73    71    1
    68    74    71    1
    69    75    74    1
    70    76    74    1
    71    77    74    1
    72    78    77    1
    73    79    77    1
    74    80    77    1
    75    81    80    1
    76    82    80    1
    77    83    80    1
    78    84    83    1
    79    85    83    1
    80    86    83    1
    81    87    86    1
    82    88    86    1
    83    89    86    1
    84    90    89    1
    85    91    89    1
    86    92    89    1
    87    93    92    1
    88    94    92    1
    89    95    92    1
    90    96    97    1
    91    98    96    1
    92    99    96    1
    93   100    99    1
    94   101    99    1
    95   102    99    1
    96   103   102    1
    97   104   102    1
    98   105   102    1
    99   106   105    1
   100   107   105    1
   101   108   105    1
   102   109   108    1
   103   110   108    1
   104   111   108    1
   105   112   111    1
   106   113   111    1
   107   114   111    1
   108   115   114    1
   109   116   114    1
   110   117   114    1
   111   118   117    1
   112   119   117    1
   113   120   117    1
   114   121   120    1
   115   122   120    1
   116   123   120    1
   117   124   123    1
   118   125   123    1
   119   126   123    1
   120   127   126    1
   121   128   126    1
   122   129   126    1
   123   130   129    1
   124   131   129    1
   125   132   129    1
   126   133   132    1
   127   134   132    1
   128   135   132    1
   129   136   135    1
   130   137   135    1
   131   138   135    1
   132   139   138    1
   133   140   138    1
   134   141   138    1
   135   142   141    1
   136   143   141    1
   137   144   141    1
   138   145   144    1
   139   146   144    1
   140   147   144    1
   141   148   147    1
   142   149   147    1
   143   150   147    1
   144   151   150    1
   145   152   150    1
   146   153   150    1
   147   154   153    1
   148   155   153    1
   149   156   153    1
   150   157   158    1
   151   159   157    1
   152   160   157    1
   153   161   162    1
   154   163   161    1
   155   164   161    1
   156   165     3    1
   157   166    12    1
   158   167     1    2
   159   168    16    2
   160   169    25    2
   161   170    25    1
   162   171    30    2
   163   172    30    1
   164   173     8    1
   165   174     9    1
   166   175   157    1
   167   176   175    1
   168   177   161    1
   169   178   177    1
   170   179   165    1
   171     5   165    1
   172    10    12   ar
   173    13   166    1
   174    26   170    1
   175    31   172    1
   176    35   173    1
   177    96   174    1
   178   166   179    1
   179   167   179    1
   180   168   179    1
   181   175   179    1
   182   177   179    1
@<TRIPOS>SUBSTRUCTURE
     1 RES1        1 GROUP             0 ****  ****    0  
@<TRIPOS>CRYSIN
    8.1994   10.9932   35.4410   87.9090   84.1650   68.8870     2     1
