@<TRIPOS>MOLECULE
PIVVIC
   218   223     2     0     0
SMALL
NO_CHARGES
****
Generated from the CSD

@<TRIPOS>ATOM
     1 Fe1      5.1565   0.8776   3.9496   Fe        1 RES1   0.0000
     2 C1       2.5526   6.5285   3.7876   C.1       1 RES1   0.0000
     3 O1       9.8305   2.6232   8.0752   O.3       1 RES1   0.0000
     4 O2       7.9025   1.7263   9.6935   O.3       1 RES1   0.0000
     5 O3       3.3868   0.1712   3.7036   O.2       1 RES1   0.0000
     6 O4       5.2620   0.9243   2.0266   O.2       1 RES1   0.0000
     7 N1       6.8994   1.5726   4.2275   N.2       1 RES1   0.0000
     8 N2       5.0638   0.8312   5.8339   N.2       1 RES1   0.0000
     9 O5       2.1507  -0.3417   8.1968   O.3       1 RES1   0.0000
    10 C2       6.2149   1.2938   6.4930   C.ar      1 RES1   0.0000
    11 C3       1.8448  -0.6454   6.9217   C.2       1 RES1   0.0000
    12 N3       0.6230  11.6013   3.9373   N.ar      1 RES1   0.0000
    13 O6       8.5959   1.6850  -0.2435   O.3       1 RES1   0.0000
    14 C4       1.5271   8.9503   3.8614   C.ar      1 RES1   0.0000
    15 C5       7.7577   1.8597   3.2465   C.2       1 RES1   0.0000
    16 H1       8.6072   2.2052   3.4926   H         1 RES1   0.0000
    17 C6       0.4920   9.3902   2.9935   C.ar      1 RES1   0.0000
    18 H2       0.0880   8.7949   2.3719   H         1 RES1   0.0000
    19 C7       2.5447  -0.2033   4.5957   C.2       1 RES1   0.0000
    20 C8       3.1700   5.2509   3.8157   C.ar      1 RES1   0.0000
    21 C9       9.2485  10.2914  16.3767   C.3       1 RES1   0.0000
    22 H3       8.7513   9.5459  16.7989   H         1 RES1   0.0000
    23 H4      10.1159  10.3796  16.8467   H         1 RES1   0.0000
    24 C10      7.2485   1.7295   5.5901   C.ar      1 RES1   0.0000
    25 C11      6.4603   1.3771   7.8458   C.ar      1 RES1   0.0000
    26 H5       5.7723   1.1234   8.4500   H         1 RES1   0.0000
    27 C12      8.6900   2.0063   1.0576   C.2       1 RES1   0.0000
    28 C13      7.9594   2.9590  10.4247   C.3       1 RES1   0.0000
    29 H6       7.0452   3.2885  10.6154   H         1 RES1   0.0000
    30 H7       8.4396   3.6483   9.9014   H         1 RES1   0.0000
    31 C14      7.5048   1.6944   1.8903   C.2       1 RES1   0.0000
    32 C15      9.5082   9.9509  14.9150   C.3       1 RES1   0.0000
    33 H8      10.0140  10.6901  14.4927   H         1 RES1   0.0000
    34 H9       8.6420   9.8671  14.4411   H         1 RES1   0.0000
    35 C16      8.4521   2.2092   6.1101   C.ar      1 RES1   0.0000
    36 H10      9.1232   2.5219   5.5160   H         1 RES1   0.0000
    37 C17      6.4453   5.9264  15.0169   C.3       1 RES1   0.0000
    38 H11      5.6760   6.0196  14.4011   H         1 RES1   0.0000
    39 H12      6.2407   5.1883  15.6444   H         1 RES1   0.0000
    40 N4       4.3682   2.6991   3.8874   N.ar      1 RES1   0.0000
    41 C18      7.4401  13.2390  18.2318   C.3       1 RES1   0.0000
    42 H13      7.9269  13.9790  17.7899   H         1 RES1   0.0000
    43 H14      6.5634  13.1473  17.7812   H         1 RES1   0.0000
    44 C19      0.0849  10.7184   3.0744   C.ar      1 RES1   0.0000
    45 H15     -0.6054  11.0175   2.4962   H         1 RES1   0.0000
    46 C20      6.2664   1.2819   1.3035   C.2       1 RES1   0.0000
    47 C21     10.3018   8.6377  14.7534   C.3       1 RES1   0.0000
    48 H16      9.7974   7.9060  15.1914   H         1 RES1   0.0000
    49 H17     11.1668   8.7294  15.2267   H         1 RES1   0.0000
    50 C22      8.4559  11.5776  16.5523   C.3       1 RES1   0.0000
    51 H18      7.5788  11.4780  16.1050   H         1 RES1   0.0000
    52 H19      8.9406  12.3164  16.1047   H         1 RES1   0.0000
    53 C23      6.4007  14.9129  19.8551   C.3       1 RES1   0.0000
    54 H20      6.8806  15.6462  19.3950   H         1 RES1   0.0000
    55 H21      5.5214  14.8053  19.4141   H         1 RES1   0.0000
    56 C24     10.5743   8.2458  13.2953   C.3       1 RES1   0.0000
    57 H22      9.7127   8.1271  12.8221   H         1 RES1   0.0000
    58 H23     11.0683   8.9784  12.8474   H         1 RES1   0.0000
    59 C25     11.6852   6.5073  11.7669   C.3       1 RES1   0.0000
    60 H24     10.8347   6.3767  11.2776   H         1 RES1   0.0000
    61 H25     12.1983   7.2153  11.3003   H         1 RES1   0.0000
    62 C26      7.6576   1.8100   8.3591   C.ar      1 RES1   0.0000
    63 C27      8.6832   2.2368   7.4558   C.ar      1 RES1   0.0000
    64 C28      5.0961  16.9974  22.8838   C.3       1 RES1   0.0000
    65 H26      5.9680  17.1096  23.3414   H         1 RES1   0.0000
    66 H27      4.6126  16.2617  23.3374   H         1 RES1   0.0000
    67 C29      4.0407   0.3221   6.5211   C.2       1 RES1   0.0000
    68 H28      4.1302   0.2855   7.4647   H         1 RES1   0.0000
    69 C30      5.3841   7.5724  16.6121   C.3       1 RES1   0.0000
    70 H29      5.1900   6.8407  17.2500   H         1 RES1   0.0000
    71 H30      4.6064   7.6557  16.0046   H         1 RES1   0.0000
    72 C31      3.2974  10.9295  19.8445   C.3       1 RES1   0.0000
    73 H31      3.0555  10.1650  20.4266   H         1 RES1   0.0000
    74 H32      2.5335  11.0995  19.2398   H         1 RES1   0.0000
    75 C32      7.5139   4.2880  13.3445   C.3       1 RES1   0.0000
    76 H33      7.2446   3.5329  13.9254   H         1 RES1   0.0000
    77 H34      6.7911   4.4375  12.6847   H         1 RES1   0.0000
    78 O7       9.6788   2.5208   1.4894   O.2       1 RES1   0.0000
    79 C33      1.5487  15.3714  24.1592   C.3       1 RES1   0.0000
    80 H35      2.2099  15.1159  24.8490   H         1 RES1   0.0000
    81 H36      1.9414  16.1031  23.6204   H         1 RES1   0.0000
    82 C34      3.5126  12.1591  20.7194   C.3       1 RES1   0.0000
    83 H37      4.2703  11.9854  21.3324   H         1 RES1   0.0000
    84 H38      3.7633  12.9213  20.1401   H         1 RES1   0.0000
    85 C35      2.8464  -0.1626   5.9765   C.2       1 RES1   0.0000
    86 C36      6.5981   7.1994  15.8004   C.3       1 RES1   0.0000
    87 H39      7.3725   7.1075  16.4087   H         1 RES1   0.0000
    88 H40      6.7978   7.9373  15.1698   H         1 RES1   0.0000
    89 C37      1.5653  11.1369   4.7433   C.ar      1 RES1   0.0000
    90 H41      1.9289  11.7406   5.3801   H         1 RES1   0.0000
    91 C38      4.2664   4.9964   4.6379   C.ar      1 RES1   0.0000
    92 H42      4.6204   5.6887   5.1857   H         1 RES1   0.0000
    93 C39      7.6854   5.5519  14.2018   C.3       1 RES1   0.0000
    94 H43      8.4437   5.4138  14.8248   H         1 RES1   0.0000
    95 H44      7.9178   6.3102  13.6107   H         1 RES1   0.0000
    96 C40      8.2256  11.9540  18.0280   C.3       1 RES1   0.0000
    97 H45      7.7413  11.2127  18.4720   H         1 RES1   0.0000
    98 H46      9.1049  12.0456  18.4734   H         1 RES1   0.0000
    99 C41      4.3335   9.2668  18.2178   C.3       1 RES1   0.0000
   100 H47      4.1285   8.5272  18.8426   H         1 RES1   0.0000
   101 H48      3.5581   9.3703  17.6101   H         1 RES1   0.0000
   102 C42      8.6960   2.6771  11.7212   C.3       1 RES1   0.0000
   103 H49      9.6072   2.3504  11.5146   H         1 RES1   0.0000
   104 H50      8.2221   1.9625  12.2171   H         1 RES1   0.0000
   105 C43      5.5455   8.8884  17.3991   C.3       1 RES1   0.0000
   106 H51      6.3252   8.8049  18.0017   H         1 RES1   0.0000
   107 H52      5.7382   9.6193  16.7580   H         1 RES1   0.0000
   108 C44      2.0290   7.6221   3.7806   C.1       1 RES1   0.0000
   109 C45      6.1751  15.3107  21.3062   C.3       1 RES1   0.0000
   110 H53      7.0515  15.4416  21.7460   H         1 RES1   0.0000
   111 H54      5.7052  14.5767  21.7738   H         1 RES1   0.0000
   112 C46      2.5152  13.7416  22.4586   C.3       1 RES1   0.0000
   113 H55      3.2410  13.5236  23.0937   H         1 RES1   0.0000
   114 H56      2.8181  14.5089  21.9096   H         1 RES1   0.0000
   115 C47     11.6422   4.2995   9.4655   C.3       1 RES1   0.0000
   116 H57     11.0148   3.7584  10.0082   H         1 RES1   0.0000
   117 H58     11.1679   5.1250   9.1952   H         1 RES1   0.0000
   118 C48      2.0609   9.8540   4.7398   C.ar      1 RES1   0.0000
   119 H59      2.7589   9.6009   5.3321   H         1 RES1   0.0000
   120 C49      2.6998   4.2098   3.0357   C.ar      1 RES1   0.0000
   121 H60      1.9521   4.3422   2.4640   H         1 RES1   0.0000
   122 C50      2.2985  12.5503  21.5416   C.3       1 RES1   0.0000
   123 H61      2.0266  11.7747  22.0944   H         1 RES1   0.0000
   124 H62      1.5515  12.7566  20.9272   H         1 RES1   0.0000
   125 C51     11.3820   6.9631  13.1934   C.3       1 RES1   0.0000
   126 H63     10.8868   6.2410  13.6548   H         1 RES1   0.0000
   127 H64     12.2391   7.0909  13.6715   H         1 RES1   0.0000
   128 C52      4.8318   3.7526   4.6625   C.ar      1 RES1   0.0000
   129 H65      5.5766   3.6032   5.2326   H         1 RES1   0.0000
   130 C53      5.3470  16.6034  21.4327   C.3       1 RES1   0.0000
   131 H66      5.8248  17.3407  20.9766   H         1 RES1   0.0000
   132 H67      4.4774  16.4777  20.9780   H         1 RES1   0.0000
   133 C54      4.0598  18.6871  24.4965   C.3       1 RES1   0.0000
   134 H68      4.9357  18.8241  24.9377   H         1 RES1   0.0000
   135 H69      3.5977  17.9480  24.9673   H         1 RES1   0.0000
   136 C55     -0.6902  17.6597  26.3833   C.3       1 RES1   0.0000
   137 H70     -1.1005  16.9770  26.9712   H         1 RES1   0.0000
   138 H71     -1.3440  17.8714  25.6711   H         1 RES1   0.0000
   139 C56     12.4809   5.2171  11.7423   C.3       1 RES1   0.0000
   140 H72     11.9590   4.5196  12.2128   H         1 RES1   0.0000
   141 H73     13.3184   5.3554  12.2493   H         1 RES1   0.0000
   142 C57      7.1993  13.6182  19.6864   C.3       1 RES1   0.0000
   143 H74      8.0736  13.7201  20.1390   H         1 RES1   0.0000
   144 H75      6.7124  12.8814  20.1325   H         1 RES1   0.0000
   145 C58      4.5072  10.5441  19.0118   C.3       1 RES1   0.0000
   146 H76      5.2873  10.4415  19.6112   H         1 RES1   0.0000
   147 H77      4.7071  11.2832  18.3830   H         1 RES1   0.0000
   148 C59     10.8480   3.2704   7.3012   C.3       1 RES1   0.0000
   149 H78     10.5095   4.1264   6.9338   H         1 RES1   0.0000
   150 H79     11.1263   2.6933   6.5453   H         1 RES1   0.0000
   151 C60      1.2969  14.1611  23.2421   C.3       1 RES1   0.0000
   152 H80      0.9926  13.3980  23.7932   H         1 RES1   0.0000
   153 H81      0.5695  14.3845  22.6079   H         1 RES1   0.0000
   154 C61      8.7976   3.9237  12.6101   C.3       1 RES1   0.0000
   155 H82      9.5129   3.7776  13.2780   H         1 RES1   0.0000
   156 H83      9.0668   4.6911  12.0458   H         1 RES1   0.0000
   157 C62      4.2925  18.2814  23.0384   C.3       1 RES1   0.0000
   158 H84      3.4157  18.1648  22.5953   H         1 RES1   0.0000
   159 H85      4.7698  19.0147  22.5755   H         1 RES1   0.0000
   160 C63     -0.4511  18.8960  27.1879   C.3       1 RES1   0.0000
   161 H86      0.1401  18.6717  27.9512   H         1 RES1   0.0000
   162 H87      0.0227  19.5582  26.6260   H         1 RES1   0.0000
   163 C64      3.3381   2.9397   3.0884   C.ar      1 RES1   0.0000
   164 H88      3.0157   2.2396   2.5320   H         1 RES1   0.0000
   165 C65      1.2115  -0.7562   9.1985   C.3       1 RES1   0.0000
   166 H89      0.3039  -0.5228   8.9139   H         1 RES1   0.0000
   167 H90      1.4150  -0.3019  10.0443   H         1 RES1   0.0000
   168 H91      1.2758  -1.7255   9.3265   H         1 RES1   0.0000
   169 C66     12.0043   3.5190   8.2217   C.3       1 RES1   0.0000
   170 H92     12.7053   4.0140   7.7280   H         1 RES1   0.0000
   171 H93     12.3879   2.6471   8.4932   H         1 RES1   0.0000
   172 C67     12.8411   4.6898  10.3474   C.3       1 RES1   0.0000
   173 H94     13.4248   3.8971  10.4544   H         1 RES1   0.0000
   174 H95     13.3657   5.3845   9.8766   H         1 RES1   0.0000
   175 C68      0.5417  17.0620  25.7403   C.3       1 RES1   0.0000
   176 H96      1.1647  16.7832  26.4589   H         1 RES1   0.0000
   177 H97      0.9935  17.7674  25.2138   H         1 RES1   0.0000
   178 C69      0.2951  15.8855  24.8443   C.3       1 RES1   0.0000
   179 H98     -0.0993  15.1521  25.3811   H         1 RES1   0.0000
   180 H99     -0.3655  16.1423  24.1544   H         1 RES1   0.0000
   181 C70      5.9577   1.2456  -0.1687   C.3       1 RES1   0.0000
   182 H100     5.0103   1.0301  -0.2981   H         1 RES1   0.0000
   183 H101     6.5103   0.5618  -0.6010   H         1 RES1   0.0000
   184 H102     6.1508   2.1208  -0.5641   H         1 RES1   0.0000
   185 C71      3.2244  19.9666  24.6370   C.3       1 RES1   0.0000
   186 H103     3.7410  20.7312  24.3064   H         1 RES1   0.0000
   187 H104     2.9995  20.1082  25.5805   H         1 RES1   0.0000
   188 H105     2.4008  19.8779  24.1143   H         1 RES1   0.0000
   189 C72      9.7383   2.0450  -1.0470   C.3       1 RES1   0.0000
   190 H106     9.8627   3.0162  -1.0206   H         1 RES1   0.0000
   191 H107     9.5902   1.7580  -1.9712   H         1 RES1   0.0000
   192 H108    10.5381   1.6033  -0.6912   H         1 RES1   0.0000
   193 C73      1.2263  -0.6488   4.0019   C.3       1 RES1   0.0000
   194 H109     1.2961  -0.6649   3.0246   H         1 RES1   0.0000
   195 H110     0.5203  -0.0238   4.2689   H         1 RES1   0.0000
   196 H111     1.0085  -1.5467   4.3288   H         1 RES1   0.0000
   197 C74     -1.7103  19.5237  27.7219   C.3       1 RES1   0.0000
   198 H112    -2.2749  19.8074  26.9712   H         1 RES1   0.0000
   199 H113    -1.4816  20.3012  28.2703   H         1 RES1   0.0000
   200 H114    -2.1964  18.8694  28.2654   H         1 RES1   0.0000
   201 O8       0.8409  -1.2761   6.6620   O.2       1 RES1   0.0000
   202 Fe1     -0.0609  13.4656   3.9496   Fe        1 RES1   0.0000
   203 N3       5.8404  -0.9868   3.9373   N.3       1 RES1   0.0000
   204 C75      7.3548   6.5058   4.0968   C.ar      2 RES2   0.0000
   205 H115     7.5175   6.1193   3.2447   H         2 RES2   0.0000
   206 C76      7.0339   7.6582   6.5422   C.ar      2 RES2   0.0000
   207 H116     6.9683   8.0255   7.4160   H         2 RES2   0.0000
   208 C77      6.5801   7.6504   4.1811   C.ar      2 RES2   0.0000
   209 C78      6.4556   8.2688   5.5338   C.ar      2 RES2   0.0000
   210 H117     5.9677   9.0755   5.6611   H         2 RES2   0.0000
   211 C79      7.7538   6.4625   6.3384   C.ar      2 RES2   0.0000
   212 H118     8.1612   6.0321   7.0819   H         2 RES2   0.0000
   213 C80      7.8689   5.9406   5.1579   C.ar      2 RES2   0.0000
   214 H119     8.3422   5.1220   5.0614   H         2 RES2   0.0000
   215 C81      5.9574   8.3065   3.1762   C.3       2 RES2   0.0000
   216 H120     6.4110   9.1598   3.0132   H         2 RES2   0.0000
   217 H121     5.0243   8.4751   3.4249   H         2 RES2   0.0000
   218 H122     5.9849   7.7613   2.3624   H         2 RES2   0.0000
@<TRIPOS>BOND
     1     1     5    1
     2     2    20    1
     3     3    63    1
     4     4    28    1
     5     5    19    2
     6     6     1    1
     7     7     1    1
     8     8     1    1
     9     9    11    1
    10    10     8    1
    11    11    85    1
    12    12    44   ar
    13    13    27    1
    14    14    17   ar
    15    15     7    1
    16    16    15    1
    17    17    18    1
    18    19    85    1
    19    20    91   ar
    20    21    22    1
    21    23    21    1
    22    24     7    1
    23    25    10   ar
    24    26    25    1
    25    27    31    1
    26    28    29    1
    27    30    28    1
    28    31    15    2
    29    32    21    1
    30    33    32    1
    31    34    32    1
    32    35    24   ar
    33    36    35    1
    34    37    38    1
    35    39    37    1
    36    40     1    1
    37    41    42    1
    38    43    41    1
    39    44    17   ar
    40    45    44    1
    41    46     6    2
    42    47    32    1
    43    48    47    1
    44    49    47    1
    45    50    21    1
    46    51    50    1
    47    52    50    1
    48    53    54    1
    49    55    53    1
    50    56    47    1
    51    57    56    1
    52    58    56    1
    53    59    60    1
    54    61    59    1
    55    62     4    1
    56    63    35   ar
    57    64    65    1
    58    66    64    1
    59    67     8    1
    60    68    67    1
    61    69    70    1
    62    71    69    1
    63    72    73    1
    64    74    72    1
    65    75    76    1
    66    77    75    1
    67    78    27    2
    68    79    80    1
    69    81    79    1
    70    82    72    1
    71    83    82    1
    72    84    82    1
    73    85    67    2
    74    86    37    1
    75    87    86    1
    76    88    86    1
    77    89    12   ar
    78    90    89    1
    79    91    92    1
    80    93    37    1
    81    94    93    1
    82    95    93    1
    83    96    41    1
    84    97    96    1
    85    98    96    1
    86    99   100    1
    87   101    99    1
    88   102    28    1
    89   103   102    1
    90   104   102    1
    91   105    69    1
    92   106   105    1
    93   107   105    1
    94   108     2    3
    95   109    53    1
    96   110   109    1
    97   111   109    1
    98   112   113    1
    99   114   112    1
   100   115   116    1
   101   117   115    1
   102   118    14   ar
   103   119   118    1
   104   120    20   ar
   105   121   120    1
   106   122    82    1
   107   123   122    1
   108   124   122    1
   109   125    56    1
   110   126   125    1
   111   127   125    1
   112   128    40   ar
   113   129   128    1
   114   130    64    1
   115   131   130    1
   116   132   130    1
   117   133   134    1
   118   135   133    1
   119   136   137    1
   120   138   136    1
   121   139    59    1
   122   140   139    1
   123   141   139    1
   124   142    41    1
   125   143   142    1
   126   144   142    1
   127   145    72    1
   128   146   145    1
   129   147   145    1
   130   148     3    1
   131   149   148    1
   132   150   148    1
   133   151    79    1
   134   152   151    1
   135   153   151    1
   136   154    75    1
   137   155   154    1
   138   156   154    1
   139   157    64    1
   140   158   157    1
   141   159   157    1
   142   160   136    1
   143   161   160    1
   144   162   160    1
   145   163    40   ar
   146   164   163    1
   147   165     9    1
   148   166   165    1
   149   167   165    1
   150   168   165    1
   151   169   115    1
   152   170   169    1
   153   171   169    1
   154   172   115    1
   155   173   172    1
   156   174   172    1
   157   175   136    1
   158   176   175    1
   159   177   175    1
   160   178    79    1
   161   179   178    1
   162   180   178    1
   163   181    46    1
   164   182   181    1
   165   183   181    1
   166   184   181    1
   167   185   133    1
   168   186   185    1
   169   187   185    1
   170   188   185    1
   171   189    13    1
   172   190   189    1
   173   191   189    1
   174   192   189    1
   175   193    19    1
   176   194   193    1
   177   195   193    1
   178   196   193    1
   179   197   160    1
   180   198   197    1
   181   199   197    1
   182   200   197    1
   183   201    11    2
   184   202    12   un
   185   203     1   un
   186    10    24   ar
   187    14   108    1
   188    25    62   ar
   189    31    46    1
   190    50    96    1
   191    53   142    1
   192    59   125    1
   193    62    63   ar
   194    69    86    1
   195    75    93    1
   196    89   118   ar
   197    91   128   ar
   198    99   105    1
   199    99   145    1
   200   102   154    1
   201   109   130    1
   202   112   122    1
   203   112   151    1
   204   120   163   ar
   205   133   157    1
   206   139   172    1
   207   148   169    1
   208   175   178    1
   209   204   205    1
   210   206   207    1
   211   208   204   ar
   212   209   206   ar
   213   210   209    1
   214   211   206   ar
   215   212   211    1
   216   213   204   ar
   217   214   213    1
   218   215   208    1
   219   216   215    1
   220   217   215    1
   221   218   215    1
   222   208   209   ar
   223   211   213   ar
@<TRIPOS>SUBSTRUCTURE
     1 RES1        1 GROUP             0 ****  ****    0  
     2 RES2      204 GROUP             0 ****  ****    0  
@<TRIPOS>CRYSIN
    8.9330   13.1250   35.3020   85.9740   85.1770   73.5550     2     1
