@<TRIPOS>MOLECULE
PIVXAT
   151   161     4     0     0
SMALL
USER_CHARGES
****
Generated from the CSD

@<TRIPOS>ATOM
     1 Fe1     -2.5742  13.7238   8.7426   Fe        1 RES1   1.0000
     2 P1      -0.7193  12.6909   9.6129   P.3       1 RES1   0.0000
     3 P2      -4.5414  14.6215   7.9262   P.3       1 RES1   0.0000
     4 O1      -0.1005  13.2764  10.9640   O.3       1 RES1   0.0000
     5 O2       0.4294  12.6837   8.5271   O.3       1 RES1   0.0000
     6 O3      -4.2873  16.0485   7.2962   O.3       1 RES1   0.0000
     7 O4      -5.3869  13.8044   6.8465   O.3       1 RES1   0.0000
     8 N1      -1.5116  14.9667   7.6526   N.2       1 RES1   0.0000
     9 N2      -2.6403  15.0516  10.1869   N.2       1 RES1   0.0000
    10 N3      -3.6818  12.4881   9.8181   N.2       1 RES1   0.0000
    11 N4      -2.5008  12.3701   7.2983   N.2       1 RES1   0.0000
    12 C1      -0.8447  14.6747   6.4694   C.2       1 RES1   0.0000
    13 C2      -0.2184  15.8745   5.9638   C.2       1 RES1   0.0000
    14 C3      -0.5183  16.8742   6.7968   C.2       1 RES1   0.0000
    15 C4      -1.2932  16.2974   7.8889   C.2       1 RES1   0.0000
    16 C5      -1.6910  16.9922   9.0265   C.2       1 RES1   0.0000
    17 C6      -2.2790  16.3650  10.1040   C.2       1 RES1   0.0000
    18 C7      -2.4875  17.0023  11.3660   C.2       1 RES1   0.0000
    19 C8      -2.9235  16.0428  12.2198   C.2       1 RES1   0.0000
    20 C9      -3.0323  14.8272  11.4821   C.2       1 RES1   0.0000
    21 C10     -3.5888  13.6562  11.9835   C.2       1 RES1   0.0000
    22 C11     -3.9468  12.5787  11.1754   C.2       1 RES1   0.0000
    23 C12     -4.7399  11.4840  11.5774   C.2       1 RES1   0.0000
    24 C13     -4.9958  10.7388  10.4853   C.2       1 RES1   0.0000
    25 C14     -4.3313  11.3373   9.4057   C.2       1 RES1   0.0000
    26 C15     -4.1511  10.7546   8.1520   C.2       1 RES1   0.0000
    27 C16     -3.2616  11.2164   7.2195   C.2       1 RES1   0.0000
    28 C17     -2.8073  10.4727   6.0384   C.2       1 RES1   0.0000
    29 C18     -1.8471  11.1517   5.4602   C.2       1 RES1   0.0000
    30 C19     -1.6486  12.3874   6.1980   C.2       1 RES1   0.0000
    31 C20     -0.8746  13.4692   5.8001   C.2       1 RES1   0.0000
    32 C21     -1.3438  18.4279   9.1902   C.ar      1 RES1   0.0000
    33 C22     -2.2408  19.4521   8.8649   C.ar      1 RES1   0.0000
    34 C23     -1.9593  20.7828   9.1260   C.ar      1 RES1   0.0000
    35 C24     -0.8305  21.1295   9.7704   C.ar      1 RES1   0.0000
    36 C25      0.0706  20.1757  10.0709   C.ar      1 RES1   0.0000
    37 C26     -0.1819  18.8206   9.7994   C.ar      1 RES1   0.0000
    38 C27     -0.5482  22.5853  10.1206   C.3       1 RES1   0.0000
    39 C28     -3.8172  13.5972  13.4569   C.ar      1 RES1   0.0000
    40 C29     -5.0979  13.6087  13.9749   C.ar      1 RES1   0.0000
    41 C30     -5.2632  13.5872  15.3882   C.ar      1 RES1   0.0000
    42 C31     -4.2059  13.5512  16.2295   C.ar      1 RES1   0.0000
    43 C32     -2.9053  13.5684  15.6969   C.ar      1 RES1   0.0000
    44 C33     -2.7267  13.5584  14.3168   C.ar      1 RES1   0.0000
    45 C34     -4.3803  13.5800  17.7152   C.3       1 RES1   0.0000
    46 C35     -4.9559   9.5362   7.8101   C.ar      1 RES1   0.0000
    47 C36     -6.1054   9.6513   7.0952   C.ar      1 RES1   0.0000
    48 C37     -6.8471   8.4961   6.7367   C.ar      1 RES1   0.0000
    49 C38     -6.4434   7.2589   7.1346   C.ar      1 RES1   0.0000
    50 C39     -5.3080   7.1626   7.8868   C.ar      1 RES1   0.0000
    51 C40     -4.5689   8.3134   8.2702   C.ar      1 RES1   0.0000
    52 C41     -7.1843   6.0189   6.7347   C.3       1 RES1   0.0000
    53 C42     -0.0706  13.2994   4.5651   C.ar      1 RES1   0.0000
    54 C43      1.3305  13.3555   4.6376   C.ar      1 RES1   0.0000
    55 C44      2.0905  13.1844   3.4502   C.ar      1 RES1   0.0000
    56 C45      1.4892  13.0405   2.2318   C.ar      1 RES1   0.0000
    57 C46      0.1304  13.0261   2.1945   C.ar      1 RES1   0.0000
    58 C47     -0.6595  13.1426   3.3155   C.ar      1 RES1   0.0000
    59 C48      2.3006  12.8808   0.9802   C.3       1 RES1   0.0000
    60 C49     -0.8787  10.9618  10.1372   C.ar      1 RES1   0.0000
    61 C50     -0.7425   9.9606   9.2047   C.ar      1 RES1   0.0000
    62 C51     -0.8198   8.6730   9.5839   C.ar      1 RES1   0.0000
    63 C52     -1.0108   8.3594  10.8583   C.ar      1 RES1   0.0000
    64 C53     -1.2251   9.3003  11.8219   C.ar      1 RES1   0.0000
    65 C54     -1.1379  10.6396  11.4344   C.ar      1 RES1   0.0000
    66 C55      0.4468  14.6474  10.9827   C.3       1 RES1   0.0000
    67 C56      1.7433  12.1428   8.7841   C.3       1 RES1   0.0000
    68 C57     -5.7898  14.8646   9.2109   C.ar      1 RES1   0.0000
    69 C58     -5.7291  15.9190  10.0419   C.ar      1 RES1   0.0000
    70 C59     -6.5763  16.0197  11.1256   C.ar      1 RES1   0.0000
    71 C60     -7.5231  15.1048  11.3515   C.ar      1 RES1   0.0000
    72 C61     -7.6029  14.0978  10.5475   C.ar      1 RES1   0.0000
    73 C62     -6.7682  13.8691   9.4285   C.ar      1 RES1   0.0000
    74 C63     -5.3554  16.8368   6.7160   C.3       1 RES1   0.0000
    75 C64     -4.8853  13.5598   5.4955   C.3       1 RES1   0.0000
    76 H1       0.3048  15.9205   5.1991   H         1 RES1   0.0000
    77 H2      -0.3115  17.8021   6.7139   H         1 RES1   0.0000
    78 H3      -2.3422  17.9560  11.5898   H         1 RES1   0.0000
    79 H4      -3.1644  16.1578  13.1854   H         1 RES1   0.0000
    80 H5      -5.0281  11.3013  12.4974   H         1 RES1   0.0000
    81 H6      -5.5605   9.9419  10.4770   H         1 RES1   0.0000
    82 H7      -3.1511   9.6182   5.7586   H         1 RES1   0.0000
    83 H8      -1.3463  10.8913   4.6997   H         1 RES1   0.0000
    84 H9      -3.0921  19.2061   8.4898   H         1 RES1   0.0000
    85 H10     -2.6046  21.4978   8.8897   H         1 RES1   0.0000
    86 H11      0.9369  20.4188  10.4978   H         1 RES1   0.0000
    87 H12      0.4809  18.1445  10.0315   H         1 RES1   0.0000
    88 H13     -1.3089  23.1435   9.8678   H         1 RES1   0.0000
    89 H14     -0.4510  22.7076  11.0883   H         1 RES1   0.0000
    90 H15      0.2159  22.9162   9.7062   H         1 RES1   0.0000
    91 H16     -5.8554  13.6289  13.4092   H         1 RES1   0.0000
    92 H17     -6.1760  13.5972  15.7632   H         1 RES1   0.0000
    93 H18     -2.1229  13.5684  16.3144   H         1 RES1   0.0000
    94 H19     -1.8322  13.5512  13.9521   H         1 RES1   0.0000
    95 H20     -5.2914  13.5526  17.9929   H         1 RES1   0.0000
    96 H21     -3.9509  12.7787  18.1318   H         1 RES1   0.0000
    97 H22     -3.9634  14.3309  18.1421   H         1 RES1   0.0000
    98 H23     -6.4010  10.5230   6.8486   H         1 RES1   0.0000
    99 H24     -7.6427   8.6112   6.1731   H         1 RES1   0.0000
   100 H25     -5.0232   6.2922   8.2743   H         1 RES1   0.0000
   101 H26     -3.7483   8.2357   8.8110   H         1 RES1   0.0000
   102 H27     -6.7798   5.2349   7.1346   H         1 RES1   0.0000
   103 H28     -8.0879   6.0678   7.0538   H         1 RES1   0.0000
   104 H29     -7.1834   5.9254   5.8042   H         1 RES1   0.0000
   105 H30      1.7649  13.4778   5.5162   H         1 RES1   0.0000
   106 H31      3.0647  13.1714   3.5497   H         1 RES1   0.0000
   107 H32     -0.2857  12.9010   1.3573   H         1 RES1   0.0000
   108 H33     -1.6237  13.1297   3.2388   H         1 RES1   0.0000
   109 H34      3.2292  12.9010   1.1584   H         1 RES1   0.0000
   110 H35      2.1046  11.9889   0.6092   H         1 RES1   0.0000
   111 H36      2.0614  13.5138   0.3378   H         1 RES1   0.0000
   112 H37     -0.5349  10.2022   8.2929   H         1 RES1   0.0000
   113 H38     -0.7467   7.9825   8.8794   H         1 RES1   0.0000
   114 H39     -1.0291   7.4186  11.0966   H         1 RES1   0.0000
   115 H40     -1.4202   9.0802  12.7855   H         1 RES1   0.0000
   116 H41     -1.2583  11.3488  12.1099   H         1 RES1   0.0000
   117 H42      0.7973  14.8660  11.8716   H         1 RES1   0.0000
   118 H43      1.1819  14.7121  10.3776   H         1 RES1   0.0000
   119 H44     -0.2060  15.2890  10.7630   H         1 RES1   0.0000
   120 H45      2.2956  12.2277   8.0298   H         1 RES1   0.0000
   121 H46      2.1677  12.6017   9.5300   H         1 RES1   0.0000
   122 H47      1.6960  11.2121   9.0306   H         1 RES1   0.0000
   123 H48     -5.0514  16.6182   9.8968   H         1 RES1   0.0000
   124 H49     -6.4808  16.8297  11.7660   H         1 RES1   0.0000
   125 H50     -8.1377  15.1163  12.1203   H         1 RES1   0.0000
   126 H51     -8.2781  13.3397  10.7299   H         1 RES1   0.0000
   127 H52     -6.8421  13.0880   8.8545   H         1 RES1   0.0000
   128 H53     -4.9999  17.6568   6.3824   H         1 RES1   0.0000
   129 H54     -5.7690  16.3650   6.0052   H         1 RES1   0.0000
   130 H55     -6.0049  17.0440   7.3832   H         1 RES1   0.0000
   131 H56     -5.5697  13.0448   5.0209   H         1 RES1   0.0000
   132 H57     -4.7433  14.3525   5.0437   H         1 RES1   0.0000
   133 H58     -4.1062  13.0247   5.5369   H         1 RES1   0.0000
   134 Cl1     -7.0763  10.5532   3.4813   Cl        2 RES2   0.0000
   135 Cl2     -6.8495   8.8888   1.1024   Cl        2 RES2   0.0000
   136 C65     -7.1012  10.4295   1.7406   C.3       2 RES2   0.0000
   137 H59     -6.3429  11.0639   1.3842   H         2 RES2   0.0000
   138 H60     -7.8786  10.8899   1.3656   H         2 RES2   0.0000
   139 Cl3     -1.9011  16.2916  -2.6358   Cl        3 RES3   0.0000
   140 Cl4      0.3887  14.8919  -1.7220   Cl        3 RES3   0.0000
   141 C66     -1.2043  15.5795  -1.3884   C.3       3 RES3   0.0000
   142 H61     -1.8148  14.9049  -0.9470   H         3 RES3   0.0000
   143 H62     -1.1196  16.2413  -0.5823   H         3 RES3   0.0000
   144 S1      -4.1062  13.2491   0.9864   S.o2      4 RES4   0.0000
   145 F1      -5.3213  15.3940   1.7904   F         4 RES4   0.0000
   146 F2      -5.2673  15.1509  -0.3108   F         4 RES4   0.0000
   147 F3      -6.5613  13.8677   1.0237   F         4 RES4   0.0000
   148 O5      -4.1336  12.8449   2.3437   O.3       4 RES4  -1.0000
   149 O6      -4.6320  12.2637   0.0663   O.2       4 RES4   0.0000
   150 O7      -3.0315  13.9684   0.6797   O.2       4 RES4   0.0000
   151 C67     -5.5730  14.5438   0.6424   C.3       4 RES4   0.0000
@<TRIPOS>BOND
     1     1     2    1
     2     2     4    1
     3     3     1    1
     4     4    66    1
     5     5     2    1
     6     6     3    1
     7     7     3    1
     8     8     1    1
     9     9     1    1
    10    10     1    1
    11    11     1    1
    12    12     8    1
    13    13    12    1
    14    14    13    2
    15    15     8    1
    16    16    15    2
    17    17     9    2
    18    18    17    1
    19    19    18    2
    20    20     9    1
    21    21    20    2
    22    22    10    1
    23    23    22    2
    24    24    23    1
    25    25    10    1
    26    26    25    1
    27    27    11    1
    28    28    27    1
    29    29    28    2
    30    30    11    2
    31    31    12    2
    32    32    16    1
    33    33    32   ar
    34    34    33   ar
    35    35    34   ar
    36    36    35   ar
    37    37    32   ar
    38    38    35    1
    39    39    21    1
    40    40    39   ar
    41    41    40   ar
    42    42    41   ar
    43    43    42   ar
    44    44    39   ar
    45    45    42    1
    46    46    26    1
    47    47    46   ar
    48    48    47   ar
    49    49    48   ar
    50    50    49   ar
    51    51    46   ar
    52    52    49    1
    53    53    31    1
    54    54    53   ar
    55    55    54   ar
    56    56    55   ar
    57    57    56   ar
    58    58    53   ar
    59    59    56    1
    60    60     2    1
    61    61    60   ar
    62    62    61   ar
    63    63    62   ar
    64    64    63   ar
    65    65    60   ar
    66    66   117    1
    67    67     5    1
    68    68     3    1
    69    69    68   ar
    70    70    69   ar
    71    71    70   ar
    72    72    71   ar
    73    73    68   ar
    74    74     6    1
    75    75     7    1
    76    76    13    1
    77    77    14    1
    78    78    18    1
    79    79    19    1
    80    80    23    1
    81    81    24    1
    82    82    28    1
    83    83    29    1
    84    84    33    1
    85    85    34    1
    86    86    36    1
    87    87    37    1
    88    88    38    1
    89    89    38    1
    90    90    38    1
    91    91    40    1
    92    92    41    1
    93    93    43    1
    94    94    44    1
    95    95    45    1
    96    96    45    1
    97    97    45    1
    98    98    47    1
    99    99    48    1
   100   100    50    1
   101   101    51    1
   102   102    52    1
   103   103    52    1
   104   104    52    1
   105   105    54    1
   106   106    55    1
   107   107    57    1
   108   108    58    1
   109   109    59    1
   110   110    59    1
   111   111    59    1
   112   112    61    1
   113   113    62    1
   114   114    63    1
   115   115    64    1
   116   116    65    1
   117   118    66    1
   118   119    66    1
   119   120    67    1
   120   121    67    1
   121   122    67    1
   122   123    69    1
   123   124    70    1
   124   125    71    1
   125   126    72    1
   126   127    73    1
   127   128    74    1
   128   129    74    1
   129   130    74    1
   130   131    75    1
   131   132    75    1
   132   133    75    1
   133    14    15    1
   134    16    17    1
   135    19    20    1
   136    21    22    1
   137    24    25    2
   138    26    27    2
   139    29    30    1
   140    30    31    1
   141    36    37   ar
   142    43    44   ar
   143    50    51   ar
   144    57    58   ar
   145    64    65   ar
   146    72    73   ar
   147   134   136    1
   148   135   136    1
   149   136   137    1
   150   138   136    1
   151   139   141    1
   152   140   141    1
   153   141   142    1
   154   143   141    1
   155   144   148    1
   156   145   151    1
   157   146   151    1
   158   147   151    1
   159   149   144    2
   160   150   144    2
   161   151   144    1
@<TRIPOS>SUBSTRUCTURE
     1 RES1        1 GROUP             0 ****  ****    0  
     2 RES2      134 GROUP             0 ****  ****    0  
     3 RES3      139 GROUP             0 ****  ****    0  
     4 RES4      144 GROUP             0 ****  ****    0  
@<TRIPOS>CRYSIN
   16.6110   16.6110   20.7220   90.0000   90.0000  120.0000   145     1
