@<TRIPOS>MOLECULE
POBCAM
   139   148     3     0     0
SMALL
USER_CHARGES
****
Generated from the CSD

@<TRIPOS>ATOM
     1 Fe1     12.6860   3.1636  11.3152   Fe        1 RES1   1.0000
     2 N1      14.8117   2.2138  11.0642   N.ar      1 RES1   0.0000
     3 C1      14.2184   4.5675  13.5131   C.3       1 RES1   0.0000
     4 H1      14.9853   4.4831  14.1004   H         1 RES1   0.0000
     5 H2      13.5830   5.1584  13.9453   H         1 RES1   0.0000
     6 N2      11.8632   1.1135  11.6719   N.pl3     1 RES1   0.0000
     7 H3      12.5307   0.5120  11.7312   H         1 RES1   0.0000
     8 H4      11.3875   1.0931  12.4345   H         1 RES1   0.0000
     9 C2      11.0092   0.8201  10.5277   C.ar      1 RES1   0.0000
    10 C3      14.5841   2.1412  13.4889   C.3       1 RES1   0.0000
    11 H5      14.1235   1.3080  13.6776   H         1 RES1   0.0000
    12 H6      15.1669   2.3353  14.2406   H         1 RES1   0.0000
    13 N3      13.5893   3.2242  13.3552   N.3       1 RES1   0.0000
    14 N4      11.1225   4.1112  12.6785   N.ar      1 RES1   0.0000
    15 N5      13.8804   5.0329  11.1365   N.ar      1 RES1   0.0000
    16 O1      11.7738   2.8566   9.5958   O.3       1 RES1   0.0000
    17 C4      14.6704   5.2089  12.2199   C.ar      1 RES1   0.0000
    18 C5      12.5156   3.0567  14.3571   C.3       1 RES1   0.0000
    19 H7      12.8435   3.3198  15.2308   H         1 RES1   0.0000
    20 H8      12.2543   2.1226  14.4021   H         1 RES1   0.0000
    21 C6      14.1825   5.7165  10.0050   C.ar      1 RES1   0.0000
    22 C7      11.3195   3.8965  13.9937   C.ar      1 RES1   0.0000
    23 C8      15.4207   1.9702  12.2482   C.ar      1 RES1   0.0000
    24 C9      15.5184   2.0151   9.9332   C.ar      1 RES1   0.0000
    25 C10     10.0483   4.8438  12.2981   C.ar      1 RES1   0.0000
    26 C11      9.8590   5.0663  10.8367   C.3       1 RES1   0.0000
    27 H9      10.6216   5.5323  10.4818   H         1 RES1   0.0000
    28 H10      9.0689   5.5915  10.6922   H         1 RES1   0.0000
    29 H11      9.7668   4.2199  10.3926   H         1 RES1   0.0000
    30 C12     15.3165   6.5212   9.9285   C.ar      1 RES1   0.0000
    31 H12     15.5260   6.9576   9.1347   H         1 RES1   0.0000
    32 C13     10.4697   4.3953  14.9707   C.ar      1 RES1   0.0000
    33 H13     10.6400   4.2386  15.8725   H         1 RES1   0.0000
    34 C14     16.8309   1.5557   9.9651   C.ar      1 RES1   0.0000
    35 H14     17.2974   1.4165   9.1729   H         1 RES1   0.0000
    36 C15      9.1558   5.3634  13.2381   C.ar      1 RES1   0.0000
    37 H15      8.4243   5.8656  12.9594   H         1 RES1   0.0000
    38 C16     16.1239   6.6692  11.0315   C.ar      1 RES1   0.0000
    39 H16     16.8851   7.2021  10.9875   H         1 RES1   0.0000
    40 C17     17.4366   1.3102  11.1749   C.ar      1 RES1   0.0000
    41 H17     18.3142   1.0065  11.2085   H         1 RES1   0.0000
    42 C18     14.8338   2.3232   8.6321   C.3       1 RES1   0.0000
    43 H18     13.9018   2.1061   8.7012   H         1 RES1   0.0000
    44 H19     15.2329   1.8024   7.9299   H         1 RES1   0.0000
    45 H20     14.9312   3.2562   8.4335   H         1 RES1   0.0000
    46 C19     13.2434   5.6255   8.8376   C.3       1 RES1   0.0000
    47 H21     12.7582   4.7977   8.8818   H         1 RES1   0.0000
    48 H22     13.7444   5.6595   8.0191   H         1 RES1   0.0000
    49 H23     12.6266   6.3600   8.8648   H         1 RES1   0.0000
    50 C20      9.3643   5.1310  14.5779   C.ar      1 RES1   0.0000
    51 H24      8.7695   5.4632  15.2117   H         1 RES1   0.0000
    52 C21     16.7251   1.5185  12.3417   C.ar      1 RES1   0.0000
    53 H25     17.1139   1.3573  13.1719   H         1 RES1   0.0000
    54 C22     15.7933   6.0158  12.2097   C.ar      1 RES1   0.0000
    55 H26     16.3144   6.1177  12.9742   H         1 RES1   0.0000
    56 C23      9.4371  -0.6096   9.3899   C.ar      1 RES1   0.0000
    57 C24     10.2404  -0.3322  10.4897   C.ar      1 RES1   0.0000
    58 H27     10.2620  -0.9242  11.2064   H         1 RES1   0.0000
    59 C25     10.2339   1.4757   8.3277   C.ar      1 RES1   0.0000
    60 C26     11.0302   1.7542   9.4761   C.ar      1 RES1   0.0000
    61 C27      9.4706   0.3048   8.3334   C.ar      1 RES1   0.0000
    62 H28      8.9507   0.1228   7.5835   H         1 RES1   0.0000
    63 C28     10.2238   2.4076   7.1057   C.3       1 RES1   0.0000
    64 C29     11.6531   2.5469   6.5579   C.3       1 RES1   0.0000
    65 H29     12.1976   3.0128   7.1968   H         1 RES1   0.0000
    66 H30     11.6324   3.0402   5.7349   H         1 RES1   0.0000
    67 H31     12.0210   1.6742   6.4000   H         1 RES1   0.0000
    68 C30      9.6954   3.7956   7.4824   C.3       1 RES1   0.0000
    69 H32      8.8074   3.7145   7.8364   H         1 RES1   0.0000
    70 H33      9.6775   4.3537   6.7017   H         1 RES1   0.0000
    71 H34     10.2696   4.1881   8.1445   H         1 RES1   0.0000
    72 C31      9.3521   1.8649   5.9648   C.3       1 RES1   0.0000
    73 H35      9.6688   0.9977   5.7052   H         1 RES1   0.0000
    74 H36      9.4005   2.4614   5.2143   H         1 RES1   0.0000
    75 H37      8.4408   1.7970   6.2619   H         1 RES1   0.0000
    76 C32      8.6177  -1.9088   9.2945   C.3       1 RES1   0.0000
    77 C33      8.1676  -2.3813  10.6754   C.3       1 RES1   0.0000
    78 H38      8.9372  -2.5622  11.2191   H         1 RES1   0.0000
    79 H39      7.6431  -3.1806  10.5859   H         1 RES1   0.0000
    80 H40      7.6367  -1.6972  11.0895   H         1 RES1   0.0000
    81 C34      9.5128  -2.9865   8.6555   C.3       1 RES1   0.0000
    82 H41      9.8240  -2.6784   7.8024   H         1 RES1   0.0000
    83 H42      9.0078  -3.7945   8.5376   H         1 RES1   0.0000
    84 H43     10.2642  -3.1586   9.2282   H         1 RES1   0.0000
    85 C35      7.3698  -1.7213   8.4207   C.3       1 RES1   0.0000
    86 H44      6.8573  -0.9802   8.7501   H         1 RES1   0.0000
    87 H45      6.8364  -2.5195   8.4505   H         1 RES1   0.0000
    88 H46      7.6356  -1.5492   7.5155   H         1 RES1   0.0000
    89 C36     15.4468   8.8938   6.5447   C.ar      2 RES2   0.0000
    90 B1      16.8778   8.4991   5.8078   B         2 RES2  -1.0000
    91 C37     17.4507   7.2097   6.6660   C.ar      2 RES2   0.0000
    92 C38     17.4005   4.8196   7.2032   C.ar      2 RES2   0.0000
    93 H47     17.0882   3.9667   7.0035   H         2 RES2   0.0000
    94 C39     14.1713   8.6317   6.0290   C.ar      2 RES2   0.0000
    95 H48     14.1042   8.2359   5.1910   H         2 RES2   0.0000
    96 C40     15.4533   9.4518   7.8366   C.ar      2 RES2   0.0000
    97 H49     16.2724   9.6075   8.2486   H         2 RES2   0.0000
    98 C41     17.0058   5.8996   6.4149   C.ar      2 RES2   0.0000
    99 H50     16.4299   5.7494   5.7009   H         2 RES2   0.0000
   100 C42     12.9971   8.9387   6.7196   C.ar      2 RES2   0.0000
   101 H51     12.1729   8.7381   6.3384   H         2 RES2   0.0000
   102 C43     14.2934   9.7829   8.5276   C.ar      2 RES2   0.0000
   103 H52     14.3521  10.1699   9.3705   H         2 RES2   0.0000
   104 C44     18.3106   7.3490   7.7593   C.ar      2 RES2   0.0000
   105 H53     18.6295   8.1976   7.9660   H         2 RES2   0.0000
   106 C45     18.7144   6.2811   8.5559   C.ar      2 RES2   0.0000
   107 H54     19.2917   6.4236   9.2707   H         2 RES2   0.0000
   108 C46     18.2508   5.0005   8.2790   C.ar      2 RES2   0.0000
   109 H55     18.5069   4.2791   8.8074   H         2 RES2   0.0000
   110 C47     13.0479   9.5373   7.9615   C.ar      2 RES2   0.0000
   111 H56     12.2670   9.7719   8.4101   H         2 RES2   0.0000
   112 C48     17.7150  11.0372   6.3726   C.ar      2 RES2   0.0000
   113 H57     16.8597  11.2422   6.6720   H         2 RES2   0.0000
   114 C49     17.9685   9.7456   5.8871   C.ar      2 RES2   0.0000
   115 C50     19.2761   9.5461   5.4094   C.ar      2 RES2   0.0000
   116 H58     19.4918   8.7118   5.0592   H         2 RES2   0.0000
   117 C51     20.2640  10.5230   5.4321   C.ar      2 RES2   0.0000
   118 H59     21.1115  10.3432   5.0932   H         2 RES2   0.0000
   119 C52     18.7003  12.0261   6.4225   C.ar      2 RES2   0.0000
   120 H60     18.4919  12.8648   6.7676   H         2 RES2   0.0000
   121 C53     19.9722  11.7739   5.9680   C.ar      2 RES2   0.0000
   122 H61     20.6291  12.4306   6.0175   H         2 RES2   0.0000
   123 C54     17.6153   7.2393   3.5572   C.ar      2 RES2   0.0000
   124 H62     18.1937   6.7317   4.0776   H         2 RES2   0.0000
   125 C55     16.7481   8.1471   4.2038   C.ar      2 RES2   0.0000
   126 C56     15.8912   8.8510   3.3364   C.ar      2 RES2   0.0000
   127 H63     15.2992   9.4693   3.7015   H         2 RES2   0.0000
   128 C57     16.7679   7.7776   1.3658   C.ar      2 RES2   0.0000
   129 H64     16.7733   7.6592   0.4441   H         2 RES2   0.0000
   130 C58     15.8880   8.6635   1.9587   C.ar      2 RES2   0.0000
   131 H65     15.2873   9.1382   1.4300   H         2 RES2   0.0000
   132 C59     17.6429   7.0694   2.1799   C.ar      2 RES2   0.0000
   133 H66     18.2516   6.4774   1.7997   H         2 RES2   0.0000
   134 O2      10.9599  -0.0397  14.2715   O.3       3 RES3   0.0000
   135 H67     11.3084  -0.7751  14.3745   H         3 RES3   0.0000
   136 C60      9.9986   0.1699  15.2820   C.3       3 RES3   0.0000
   137 H68     10.3758  -0.0548  16.1360   H         3 RES3   0.0000
   138 H69      9.2335  -0.3837  15.1140   H         3 RES3   0.0000
   139 H70      9.7316   1.0920  15.2839   H         3 RES3   0.0000
@<TRIPOS>BOND
     1     1     2    1
     2     2    23   ar
     3     3     4    1
     4     5     3    1
     5     6     1    1
     6     7     6    1
     7     8     6    1
     8     9     6    1
     9    10    11    1
    10    12    10    1
    11    13     1    1
    12    14     1    1
    13    15     1    1
    14    16     1    1
    15    17     3    1
    16    18    13    1
    17    19    18    1
    18    20    18    1
    19    21    15   ar
    20    22    14   ar
    21    23    10    1
    22    24     2   ar
    23    25    14   ar
    24    26    25    1
    25    27    26    1
    26    28    26    1
    27    29    26    1
    28    30    21   ar
    29    31    30    1
    30    32    22   ar
    31    33    32    1
    32    34    24   ar
    33    35    34    1
    34    36    25   ar
    35    37    36    1
    36    38    30   ar
    37    39    38    1
    38    40    34   ar
    39    41    40    1
    40    42    24    1
    41    43    42    1
    42    44    42    1
    43    45    42    1
    44    46    21    1
    45    47    46    1
    46    48    46    1
    47    49    46    1
    48    50    32   ar
    49    51    50    1
    50    52    23   ar
    51    53    52    1
    52    54    17   ar
    53    55    54    1
    54    56    57   ar
    55    57     9   ar
    56    58    57    1
    57    59    60   ar
    58    60     9   ar
    59    61    56   ar
    60    62    61    1
    61    63    59    1
    62    64    63    1
    63    65    64    1
    64    66    64    1
    65    67    64    1
    66    68    63    1
    67    69    68    1
    68    70    68    1
    69    71    68    1
    70    72    63    1
    71    73    72    1
    72    74    72    1
    73    75    72    1
    74    76    56    1
    75    77    76    1
    76    78    77    1
    77    79    77    1
    78    80    77    1
    79    81    76    1
    80    82    81    1
    81    83    81    1
    82    84    81    1
    83    85    76    1
    84    86    85    1
    85    87    85    1
    86    88    85    1
    87     3    13    1
    88    10    13    1
    89    15    17   ar
    90    16    60    1
    91    18    22    1
    92    36    50   ar
    93    38    54   ar
    94    40    52   ar
    95    59    61   ar
    96    89    90    1
    97    90    91    1
    98    91    98   ar
    99    92    93    1
   100    94    89   ar
   101    95    94    1
   102    96    89   ar
   103    97    96    1
   104    98    92   ar
   105    99    98    1
   106   100    94   ar
   107   101   100    1
   108   102    96   ar
   109   103   102    1
   110   104    91   ar
   111   105   104    1
   112   106   104   ar
   113   107   106    1
   114   108    92   ar
   115   109   108    1
   116   110   100   ar
   117   111   110    1
   118   112   113    1
   119   114    90    1
   120   115   114   ar
   121   116   115    1
   122   117   115   ar
   123   118   117    1
   124   119   112   ar
   125   120   119    1
   126   121   117   ar
   127   122   121    1
   128   123   124    1
   129   125    90    1
   130   126   125   ar
   131   127   126    1
   132   128   129    1
   133   130   126   ar
   134   131   130    1
   135   132   123   ar
   136   133   132    1
   137   102   110   ar
   138   106   108   ar
   139   112   114   ar
   140   119   121   ar
   141   123   125   ar
   142   128   130   ar
   143   128   132   ar
   144   134   135    1
   145   136   134    1
   146   137   136    1
   147   138   136    1
   148   139   136    1
@<TRIPOS>SUBSTRUCTURE
     1 RES1        1 GROUP             0 ****  ****    0  
     2 RES2       89 GROUP             0 ****  ****    0  
     3 RES3      134 GROUP             0 ****  ****    0  
@<TRIPOS>CRYSIN
   22.5320   10.9637   22.4700   90.0000  108.9800   90.0000    14     1
