@<TRIPOS>MOLECULE
POBYIQ
   123   129     2     0     0
SMALL
NO_CHARGES
****
Generated from the CSD

@<TRIPOS>ATOM
     1 Fe1      5.4817  15.3794  21.6538   Fe        1 RES1   0.0000
     2 Al1      6.5048  13.4853  22.1694   Al        1 RES1   0.0000
     3 O1       6.9449  12.7035  23.6654   O.3       1 RES1   0.0000
     4 O2       7.1605  12.2222  21.0973   O.3       1 RES1   0.0000
     5 N1       4.5447  15.7520  19.8549   N.3       1 RES1   0.0000
     6 N2       3.8487  16.3413  22.4637   N.3       1 RES1   0.0000
     7 N3       6.2349  17.2665  21.4316   N.3       1 RES1   0.0000
     8 C1       3.1039  15.7650  20.1977   C.3       1 RES1   0.0000
     9 C2       2.8600  16.6645  21.3892   C.3       1 RES1   0.0000
    10 C3       4.4159  17.5796  23.0638   C.3       1 RES1   0.0000
    11 C4       5.3145  18.2673  22.0631   C.3       1 RES1   0.0000
    12 C5       6.3082  17.4660  19.9572   C.3       1 RES1   0.0000
    13 C6       4.9930  17.0759  19.3197   C.3       1 RES1   0.0000
    14 H1       2.5819  16.0351  19.4426   H         1 RES1   0.0000
    15 H2       2.8949  14.8310  20.3954   H         1 RES1   0.0000
    16 H3       2.9492  17.5748  21.1512   H         1 RES1   0.0000
    17 H4       1.9223  16.5077  21.7473   H         1 RES1   0.0000
    18 H5       3.7215  18.1676  23.3561   H         1 RES1   0.0000
    19 H6       4.8952  17.2742  23.8375   H         1 RES1   0.0000
    20 H7       4.7886  18.7237  21.3582   H         1 RES1   0.0000
    21 H8       5.8091  18.9441  22.5230   H         1 RES1   0.0000
    22 H9       6.5334  18.3513  19.7544   H         1 RES1   0.0000
    23 H10      7.0298  16.8617  19.6048   H         1 RES1   0.0000
    24 H11      4.2961  17.7802  19.5000   H         1 RES1   0.0000
    25 H12      5.0982  17.0086  18.3676   H         1 RES1   0.0000
    26 C7       4.7733  14.7103  18.8268   C.3       1 RES1   0.0000
    27 H13      5.7256  14.6924  18.5871   H         1 RES1   0.0000
    28 H14      4.5599  13.8324  19.1907   H         1 RES1   0.0000
    29 H15      4.2078  14.8761  18.0334   H         1 RES1   0.0000
    30 C8       3.1765  15.5556  23.5150   C.3       1 RES1   0.0000
    31 H16      3.8010  15.2786  24.1618   H         1 RES1   0.0000
    32 H17      2.7702  14.7976  23.1092   H         1 RES1   0.0000
    33 H18      2.4952  16.0651  23.9497   H         1 RES1   0.0000
    34 C9       7.5812  17.4286  22.0115   C.3       1 RES1   0.0000
    35 H19      8.1802  16.7598  21.6401   H         1 RES1   0.0000
    36 H20      7.4810  17.3393  22.9770   H         1 RES1   0.0000
    37 H21      7.9035  18.3329  21.8072   H         1 RES1   0.0000
    38 C10      7.0790  12.6582  25.0036   C.ar      1 RES1   0.0000
    39 C11      6.0829  12.0189  25.8025   C.ar      1 RES1   0.0000
    40 C12      6.2322  12.0453  27.1880   C.ar      1 RES1   0.0000
    41 C13      7.3247  12.6280  27.8034   C.ar      1 RES1   0.0000
    42 C14      8.3340  13.1502  27.0199   C.ar      1 RES1   0.0000
    43 C15      8.2580  13.1617  25.6249   C.ar      1 RES1   0.0000
    44 C16      4.9058  11.2439  25.1822   C.3       1 RES1   0.0000
    45 C17      5.4445  10.1758  24.2204   C.3       1 RES1   0.0000
    46 C18      3.9415  12.2066  24.4715   C.3       1 RES1   0.0000
    47 C19      4.0764  10.4996  26.2422   C.3       1 RES1   0.0000
    48 H22      5.9894  10.5576  23.5157   H         1 RES1   0.0000
    49 H23      4.7332   9.7226  23.8151   H         1 RES1   0.0000
    50 H24      5.9871   9.5021  24.6930   H         1 RES1   0.0000
    51 H25      4.3789  12.7920  23.8001   H         1 RES1   0.0000
    52 H26      3.5258  12.8354  25.0771   H         1 RES1   0.0000
    53 H27      3.2341  11.7432  24.0720   H         1 RES1   0.0000
    54 H28      3.6641  11.0903  26.8880   H         1 RES1   0.0000
    55 H29      4.6263   9.8779  26.7682   H         1 RES1   0.0000
    56 H30      3.3928  10.0115  25.7855   H         1 RES1   0.0000
    57 C20      9.4716  13.6473  24.8187   C.3       1 RES1   0.0000
    58 C21      9.1577  14.9653  24.0964   C.3       1 RES1   0.0000
    59 C22      9.9176  12.5518  23.8353   C.3       1 RES1   0.0000
    60 C23     10.6790  13.9397  25.7254   C.3       1 RES1   0.0000
    61 H31      5.5864  11.6681  27.7285   H         1 RES1   0.0000
    62 H32      7.3666  12.6550  28.7287   H         1 RES1   0.0000
    63 H33      9.1107  13.5518  27.4417   H         1 RES1   0.0000
    64 H34      9.0237  15.7127  24.7629   H         1 RES1   0.0000
    65 H35      8.3588  14.9429  23.5357   H         1 RES1   0.0000
    66 H36      9.9080  15.2452  23.5482   H         1 RES1   0.0000
    67 H37      9.1999  12.2492  23.2214   H         1 RES1   0.0000
    68 H38     10.7084  12.8304  23.3387   H         1 RES1   0.0000
    69 H39     10.1799  11.7549  24.3314   H         1 RES1   0.0000
    70 H40     10.9559  13.1226  26.2594   H         1 RES1   0.0000
    71 H41     10.5000  14.6907  26.3542   H         1 RES1   0.0000
    72 H42     11.3935  14.1947  25.1370   H         1 RES1   0.0000
    73 C24      7.1152  12.1799  19.7432   C.ar      1 RES1   0.0000
    74 C25      8.1444  12.7726  18.9647   C.ar      1 RES1   0.0000
    75 C26      7.9011  12.9523  17.6004   C.ar      1 RES1   0.0000
    76 C27      6.7525  12.4730  16.9910   C.ar      1 RES1   0.0000
    77 C28      5.8907  11.6891  17.7214   C.ar      1 RES1   0.0000
    78 C29      6.0582  11.4790  19.0934   C.ar      1 RES1   0.0000
    79 C30      9.5411  13.0952  19.5432   C.3       1 RES1   0.0000
    80 C31      9.5459  14.3136  20.4660   C.3       1 RES1   0.0000
    81 C32     10.5448  13.3948  18.4170   C.3       1 RES1   0.0000
    82 C33     10.0615  11.8616  20.2954   C.3       1 RES1   0.0000
    83 C34      5.1727  10.4595  19.8377   C.3       1 RES1   0.0000
    84 C35      4.2086  11.1193  20.8322   C.3       1 RES1   0.0000
    85 C36      4.3115   9.6427  18.8655   C.3       1 RES1   0.0000
    86 C37      6.0761   9.4520  20.5715   C.3       1 RES1   0.0000
    87 H43      8.5435  13.3898  17.0731   H         1 RES1   0.0000
    88 H44      6.6216  12.6584  16.0455   H         1 RES1   0.0000
    89 H45      5.1814  11.2589  17.2477   H         1 RES1   0.0000
    90 H46      9.0214  14.1847  21.2460   H         1 RES1   0.0000
    91 H47      9.1859  15.0965  19.9914   H         1 RES1   0.0000
    92 H48     10.4704  14.5204  20.7396   H         1 RES1   0.0000
    93 H49     10.5571  12.6734  17.8264   H         1 RES1   0.0000
    94 H50     10.3138  14.2866  17.9660   H         1 RES1   0.0000
    95 H51     11.3855  13.4516  18.7941   H         1 RES1   0.0000
    96 H52     10.1484  11.1070  19.6721   H         1 RES1   0.0000
    97 H53      9.4573  11.5629  21.0215   H         1 RES1   0.0000
    98 H54     10.9363  12.0806  20.6723   H         1 RES1   0.0000
    99 H55      4.6869  11.5195  21.6027   H         1 RES1   0.0000
   100 H56      3.6969  11.7532  20.3755   H         1 RES1   0.0000
   101 H57      3.5638  10.4390  21.1712   H         1 RES1   0.0000
   102 H58      4.8150   9.2182  18.1756   H         1 RES1   0.0000
   103 H59      3.6905  10.2302  18.4649   H         1 RES1   0.0000
   104 H60      3.8204   8.9444  19.3653   H         1 RES1   0.0000
   105 H61      6.6039   8.9677  19.9340   H         1 RES1   0.0000
   106 H62      6.6825   9.9096  21.1961   H         1 RES1   0.0000
   107 H63      5.5588   8.8024  21.0489   H         1 RES1   0.0000
   108 H64      6.6930  14.7959  21.0015   H         1 RES1   0.0000
   109 H65      6.1049  15.1216  22.9870   H         1 RES1   0.0000
   110 H66      4.8688  13.9309  21.7822   H         1 RES1   0.0000
   111 O3       9.1839   8.1144  28.3386   O.3       2 RES2   0.0000
   112 C38      8.2195   8.6538  27.4866   C.3       2 RES2   0.0000
   113 H67      7.6282   9.2650  27.9929   H         2 RES2   0.0000
   114 H68      7.6623   7.9273  27.1075   H         2 RES2   0.0000
   115 C39      8.8554   9.3652  26.4365   C.3       2 RES2   0.0000
   116 H69      8.4405  10.2553  26.3118   H         2 RES2   0.0000
   117 H70      8.7984   8.8625  25.5860   H         2 RES2   0.0000
   118 C40     10.2520   9.4954  26.8740   C.3       2 RES2   0.0000
   119 H71     10.8640   9.4954  26.0973   H         2 RES2   0.0000
   120 H72     10.3826  10.3338  27.3843   H         2 RES2   0.0000
   121 C41     10.4913   8.3482  27.7111   C.3       2 RES2   0.0000
   122 H73     11.1836   8.5419  28.3920   H         2 RES2   0.0000
   123 H74     10.7739   7.5666  27.1748   H         2 RES2   0.0000
@<TRIPOS>BOND
     1     1     5    1
     2     2     3    1
     3     3    38    1
     4     4     2    1
     5     5     8    1
     6     6     1    1
     7     7     1    1
     8     8     9    1
     9     9     6    1
    10    10     6    1
    11    11     7    1
    12    12     7    1
    13    13     5    1
    14    14     8    1
    15    15     8    1
    16    16     9    1
    17    17     9    1
    18    18    10    1
    19    19    10    1
    20    20    11    1
    21    21    11    1
    22    22    12    1
    23    23    12    1
    24    24    13    1
    25    25    13    1
    26    26     5    1
    27    27    26    1
    28    28    26    1
    29    29    26    1
    30    30     6    1
    31    31    30    1
    32    32    30    1
    33    33    30    1
    34    34     7    1
    35    35    34    1
    36    36    34    1
    37    37    34    1
    38    38    39   ar
    39    39    40   ar
    40    40    41   ar
    41    41    42   ar
    42    42    43   ar
    43    43    38   ar
    44    44    39    1
    45    45    44    1
    46    46    44    1
    47    47    44    1
    48    48    45    1
    49    49    45    1
    50    50    45    1
    51    51    46    1
    52    52    46    1
    53    53    46    1
    54    54    47    1
    55    55    47    1
    56    56    47    1
    57    57    43    1
    58    58    57    1
    59    59    57    1
    60    60    57    1
    61    61    40    1
    62    62    41    1
    63    63    42    1
    64    64    58    1
    65    65    58    1
    66    66    58    1
    67    67    59    1
    68    68    59    1
    69    69    59    1
    70    70    60    1
    71    71    60    1
    72    72    60    1
    73    73     4    1
    74    74    73   ar
    75    75    74   ar
    76    76    75   ar
    77    77    76   ar
    78    78    73   ar
    79    79    74    1
    80    80    79    1
    81    81    79    1
    82    82    79    1
    83    83    78    1
    84    84    83    1
    85    85    83    1
    86    86    83    1
    87    87    75    1
    88    88    76    1
    89    89    77    1
    90    90    80    1
    91    91    80    1
    92    92    80    1
    93    93    81    1
    94    94    81    1
    95    95    81    1
    96    96    82    1
    97    97    82    1
    98    98    82    1
    99    99    84    1
   100   100    84    1
   101   101    84    1
   102   102    85    1
   103   103    85    1
   104   104    85    1
   105   105    86    1
   106   106    86    1
   107   107    86    1
   108   108     1    1
   109   109     1    1
   110   110     1    1
   111     2   108    1
   112     2   109    1
   113     2   110    1
   114    10    11    1
   115    12    13    1
   116    77    78   ar
   117   111   112    1
   118   112   113    1
   119   114   112    1
   120   115   112    1
   121   116   115    1
   122   117   115    1
   123   118   115    1
   124   119   118    1
   125   120   118    1
   126   121   111    1
   127   122   121    1
   128   123   121    1
   129   118   121    1
@<TRIPOS>SUBSTRUCTURE
     1 RES1        1 GROUP             0 ****  ****    0  
     2 RES2      111 GROUP             0 ****  ****    0  
@<TRIPOS>CRYSIN
   10.1258   16.6997   24.9425   90.0000   90.1110   90.0000   231     1
