@<TRIPOS>MOLECULE
POHLOO
   100   112     2     0     0
SMALL
USER_CHARGES
****
Generated from the CSD

@<TRIPOS>ATOM
     1 Fe1     10.7270   5.3776   3.9797   Fe        1 RES1   2.0000
     2 C1       9.6490   3.3250   5.8931   C.ar      1 RES1   0.0000
     3 H1      10.3855   3.4775   6.4391   H         1 RES1   0.0000
     4 C2       8.6997   2.3970   6.3165   C.ar      1 RES1   0.0000
     5 H2       8.8151   1.9447   7.1204   H         1 RES1   0.0000
     6 C3       7.6079   2.1571   5.5461   C.ar      1 RES1   0.0000
     7 H3       6.9575   1.5563   5.8326   H         1 RES1   0.0000
     8 C4       7.4637   2.8153   4.3172   C.ar      1 RES1   0.0000
     9 C5       6.3600   2.6407   3.4225   C.ar      1 RES1   0.0000
    10 H4       5.6603   2.0711   3.6502   H         1 RES1   0.0000
    11 C6       6.3363   3.3067   2.2445   C.ar      1 RES1   0.0000
    12 H5       5.6340   3.1477   1.6540   H         1 RES1   0.0000
    13 C7       7.3335   4.2321   1.8784   C.ar      1 RES1   0.0000
    14 C8       7.3585   4.9660   0.6654   C.ar      1 RES1   0.0000
    15 H6       6.6623   4.8786   0.0573   H         1 RES1   0.0000
    16 C9       8.3856   5.7858   0.3916   C.ar      1 RES1   0.0000
    17 H7       8.4161   6.2524  -0.4123   H         1 RES1   0.0000
    18 C10      9.4133   5.9292   1.3372   C.ar      1 RES1   0.0000
    19 H8      10.1172   6.5053   1.1350   H         1 RES1   0.0000
    20 C11      8.3984   4.4381   2.7555   C.ar      1 RES1   0.0000
    21 C12      8.4751   3.7368   3.9813   C.ar      1 RES1   0.0000
    22 C13     11.2670   8.0680   3.5355   C.ar      1 RES1   0.0000
    23 C14     11.7878   9.2841   3.0468   C.ar      1 RES1   0.0000
    24 C15     12.8836   9.1942   2.1395   C.ar      1 RES1   0.0000
    25 H9      13.2687   9.9671   1.7940   H         1 RES1   0.0000
    26 C16     13.3578   7.9807   1.7813   C.ar      1 RES1   0.0000
    27 H10     14.0697   7.9090   1.1875   H         1 RES1   0.0000
    28 C17     12.7704   6.8442   2.3130   C.ar      1 RES1   0.0000
    29 H11     13.1212   6.0204   2.0663   H         1 RES1   0.0000
    30 C18     11.2072  10.5250   3.5467   C.ar      1 RES1   0.0000
    31 H12     11.5337  11.3370   3.2347   H         1 RES1   0.0000
    32 N1       9.5615   4.0001   4.7581   N.ar      1 RES1   0.0000
    33 N2       9.4435   5.2905   2.5040   N.ar      1 RES1   0.0000
    34 N3      11.7384   6.8468   3.1503   N.ar      1 RES1   0.0000
    35 C1B     11.8051   3.3250   2.0663   C.ar      1 RES1   0.0000
    36 H1B     11.0686   3.4775   1.5202   H         1 RES1   0.0000
    37 C2B     12.7544   2.3970   1.6428   C.ar      1 RES1   0.0000
    38 H2B     12.6390   1.9447   0.8389   H         1 RES1   0.0000
    39 C3B     13.8462   2.1571   2.4133   C.ar      1 RES1   0.0000
    40 H3B     14.4966   1.5563   2.1267   H         1 RES1   0.0000
    41 C4B     13.9904   2.8153   3.6422   C.ar      1 RES1   0.0000
    42 C5B     15.0941   2.6407   4.5368   C.ar      1 RES1   0.0000
    43 H4B     15.7938   2.0711   4.3092   H         1 RES1   0.0000
    44 C6B     15.1178   3.3067   5.7148   C.ar      1 RES1   0.0000
    45 H5B     15.8201   3.1477   6.3054   H         1 RES1   0.0000
    46 C7B     14.1206   4.2321   6.0810   C.ar      1 RES1   0.0000
    47 C8B     14.0956   4.9660   7.2940   C.ar      1 RES1   0.0000
    48 H6B     14.7918   4.8786   7.9021   H         1 RES1   0.0000
    49 C9B     13.0685   5.7858   7.5678   C.ar      1 RES1   0.0000
    50 H7B     13.0380   6.2524   8.3717   H         1 RES1   0.0000
    51 C10B    12.0407   5.9292   6.6222   C.ar      1 RES1   0.0000
    52 H8B     11.3369   6.5053   6.8244   H         1 RES1   0.0000
    53 C11B    13.0557   4.4381   5.2038   C.ar      1 RES1   0.0000
    54 C12B    12.9790   3.7368   3.9781   C.ar      1 RES1   0.0000
    55 C13B    10.1871   8.0680   4.4238   C.ar      1 RES1   0.0000
    56 C14B     9.6662   9.2841   4.9125   C.ar      1 RES1   0.0000
    57 C15B     8.5704   9.1942   5.8199   C.ar      1 RES1   0.0000
    58 H9B      8.1854   9.9671   6.1653   H         1 RES1   0.0000
    59 C16B     8.0962   7.9807   6.1781   C.ar      1 RES1   0.0000
    60 H10B     7.3843   7.9090   6.7718   H         1 RES1   0.0000
    61 C17B     8.6836   6.8442   5.6464   C.ar      1 RES1   0.0000
    62 H11B     8.3328   6.0204   5.8931   H         1 RES1   0.0000
    63 C18B    10.2468  10.5250   4.4127   C.ar      1 RES1   0.0000
    64 H12B     9.9204  11.3370   4.7247   H         1 RES1   0.0000
    65 N1B     11.8926   4.0001   3.2013   N.ar      1 RES1   0.0000
    66 N2B     12.0106   5.2905   5.4553   N.ar      1 RES1   0.0000
    67 N3B      9.7157   6.8468   4.8090   N.ar      1 RES1   0.0000
    68 C19      2.4174   1.1509   3.6183   C.ar      2 RES2   0.0000
    69 C20      2.2702   2.4765   3.2379   C.ar      2 RES2   0.0000
    70 C21      1.5415   3.3328   4.0243   C.ar      2 RES2   0.0000
    71 H13      1.4753   4.2256   3.7727   H         2 RES2   0.0000
    72 C22      0.8920   2.9209   5.1815   C.ar      2 RES2   0.0000
    73 C23      1.0895   1.5849   5.5588   C.ar      2 RES2   0.0000
    74 H14      0.7017   1.2708   6.3436   H         2 RES2   0.0000
    75 C24      1.8475   0.7325   4.7947   C.ar      2 RES2   0.0000
    76 H15      1.9757  -0.1434   5.0797   H         2 RES2   0.0000
    77 C25     -0.0446   3.8203   5.9074   C.ar      2 RES2   0.0000
    78 C26     -1.0301   3.3080   6.7495   C.ar      2 RES2   0.0000
    79 H16     -1.0395   2.3904   6.8960   H         2 RES2   0.0000
    80 C27     -1.9925   4.0731   7.3847   C.ar      2 RES2   0.0000
    81 C28     -1.9676   5.4625   7.1857   C.ar      2 RES2   0.0000
    82 C29     -0.9743   5.9800   6.3579   C.ar      2 RES2   0.0000
    83 H17     -0.9488   6.9002   6.2258   H         2 RES2   0.0000
    84 C30     -0.0260   5.1980   5.7228   C.ar      2 RES2   0.0000
    85 H18      0.6169   5.5903   5.1784   H         2 RES2   0.0000
    86 C31      2.8324   2.9704   1.9389   C.2       2 RES2   0.0000
    87 C32      3.2199   0.1395   2.7937   C.2       2 RES2   0.0000
    88 C33     -2.9580   3.2715   8.2332   C.2       2 RES2   0.0000
    89 C34     -2.8918   6.4922   7.7715   C.2       2 RES2   0.0000
    90 O1       2.9292   4.2556   1.8832   O.3       2 RES2   0.0000
    91 H19      3.2315   4.4746   1.1541   H         2 RES2   0.0000
    92 O2       3.1433   2.2458   1.0475   O.2       2 RES2   0.0000
    93 O3       4.4055   0.0951   2.8192   O.2       2 RES2   0.0000
    94 O4       2.4282  -0.6530   2.1283   O.3       2 RES2   0.0000
    95 H20      2.8747  -1.2083   1.7224   H         2 RES2   0.0000
    96 O5      -2.7161   2.0776   8.4353   O.2       2 RES2   0.0000
    97 O6      -4.0049   3.8294   8.6964   O.3       2 RES2   0.0000
    98 H21     -4.1733   3.5192   9.4366   H         2 RES2   0.0000
    99 O7      -4.0395   6.1338   8.2109   O.co2     2 RES2   0.0000
   100 O8      -2.5471   7.6783   7.7890   O.co2     2 RES2  -1.0000
@<TRIPOS>BOND
     1     1    32    1
     2     2     3    1
     3     4     2   ar
     4     5     4    1
     5     6     4   ar
     6     7     6    1
     7     8     6   ar
     8     9     8   ar
     9    10     9    1
    10    11     9   ar
    11    12    11    1
    12    13    11   ar
    13    14    13   ar
    14    15    14    1
    15    16    14   ar
    16    17    16    1
    17    18    16   ar
    18    19    18    1
    19    20    13   ar
    20    21     8   ar
    21    22    23   ar
    22    23    24   ar
    23    24    25    1
    24    26    24   ar
    25    27    26    1
    26    28    26   ar
    27    29    28    1
    28    30    23   ar
    29    31    30    1
    30    32     2   ar
    31    33     1    1
    32    34     1    1
    33    35    36    1
    34    37    35   ar
    35    38    37    1
    36    39    37   ar
    37    40    39    1
    38    41    39   ar
    39    42    41   ar
    40    43    42    1
    41    44    42   ar
    42    45    44    1
    43    46    44   ar
    44    47    46   ar
    45    48    47    1
    46    49    47   ar
    47    50    49    1
    48    51    49   ar
    49    52    51    1
    50    53    46   ar
    51    54    41   ar
    52    55    22   ar
    53    56    55   ar
    54    57    56   ar
    55    58    57    1
    56    59    57   ar
    57    60    59    1
    58    61    59   ar
    59    62    61    1
    60    63    30   ar
    61    64    63    1
    62    65     1    1
    63    66     1    1
    64    67     1    1
    65    18    33   ar
    66    20    21   ar
    67    20    33   ar
    68    21    32   ar
    69    22    34   ar
    70    28    34   ar
    71    35    65   ar
    72    51    66   ar
    73    53    54   ar
    74    53    66   ar
    75    54    65   ar
    76    55    67   ar
    77    56    63   ar
    78    61    67   ar
    79    68    69   ar
    80    69    70   ar
    81    70    71    1
    82    72    70   ar
    83    73    72   ar
    84    74    73    1
    85    75    68   ar
    86    76    75    1
    87    77    72    1
    88    78    77   ar
    89    79    78    1
    90    80    78   ar
    91    81    80   ar
    92    82    81   ar
    93    83    82    1
    94    84    77   ar
    95    85    84    1
    96    86    69    1
    97    87    68    1
    98    88    80    1
    99    89    81    1
   100    90    86    1
   101    91    90    1
   102    92    86    2
   103    93    87    2
   104    94    87    1
   105    95    94    1
   106    96    88    2
   107    97    88    1
   108    98    97    1
   109    99    89    2
   110   100    89    1
   111    73    75   ar
   112    82    84   ar
@<TRIPOS>SUBSTRUCTURE
     1 RES1        1 GROUP             0 ****  ****    0  
     2 RES2       68 GROUP             0 ****  ****    0  
@<TRIPOS>CRYSIN
   28.0630   13.0340   20.6910   90.0000  129.7040   90.0000    15     1
