@<TRIPOS>MOLECULE
POHPIL
   381   437    10     0     0
SMALL
NO_CHARGES
****
Generated from the CSD

@<TRIPOS>ATOM
     1 Fe1     -0.7628   6.1985   7.9721   Fe        1 RES1   0.0000
     2 Fe2     -6.1032   8.2432   7.6559   Fe        1 RES1   0.0000
     3 Fe3     -1.3379   5.9120  11.0309   Fe        1 RES1   0.0000
     4 Fe4     -3.0832   5.6902  13.4360   Fe        1 RES1   0.0000
     5 Fe5     -3.3425   8.7140  12.4075   Fe        1 RES1   0.0000
     6 Fe6     -1.8542   3.9207   5.8583   Fe        1 RES1   0.0000
     7 Fe7     -3.1692   7.2362   6.0557   Fe        1 RES1   0.0000
     8 Fe8     -2.9030   8.4083   9.0640   Fe        1 RES1   0.0000
     9 Fe9     -3.6914   5.5760   8.4266   Fe        1 RES1   0.0000
    10 O1      -2.2254   6.5557   9.4226   O.3       1 RES1   0.0000
    11 O2      -4.2562   7.4491   7.7997   O.3       1 RES1   0.0000
    12 O3      -2.3927   5.5281   6.8778   O.3       1 RES1   0.0000
    13 O4      -2.8910   4.9144  11.7012   O.3       1 RES1   0.0000
    14 O5      -3.9303   8.3099  10.6529   O.3       1 RES1   0.0000
    15 O6      -1.7514   8.0741   7.3413   O.3       1 RES1   0.0000
    16 O7      -1.9306   7.2000  12.5068   O.3       1 RES1   0.0000
    17 O8      -2.8513   4.1235   4.0195   O.3       1 RES1   0.0000
    18 O9      -0.4751   4.6929   9.7024   O.3       1 RES1   0.0000
    19 O10     -6.5977   7.7631   9.4867   O.3       1 RES1   0.0000
    20 O11      0.3123   7.1537  10.9832   O.co2     1 RES1   0.0000
    21 O12      0.7281   7.2124   8.8142   O.co2     1 RES1   0.0000
    22 O13     -0.3306   4.8194   4.8251   O.co2     1 RES1   0.0000
    23 O14      0.5228   6.0433   6.4615   O.co2     1 RES1   0.0000
    24 O15     -8.6862   9.4569   9.4310   O.co2     1 RES1   0.0000
    25 O16     -7.9916   8.9598   7.3783   O.co2     1 RES1   0.0000
    26 O17     -3.7243   9.0339   5.3239   O.co2     1 RES1   0.0000
    27 O18     -5.9196   8.8992   5.7368   O.co2     1 RES1   0.0000
    28 O19     -3.4837  10.2747   8.6019   O.co2     1 RES1   0.0000
    29 O20     -5.6715  10.0795   8.2867   O.co2     1 RES1   0.0000
    30 O21     -1.5195   4.6463  14.1651   O.co2     1 RES1   0.0000
    31 O22     -0.1579   4.9212  12.4040   O.co2     1 RES1   0.0000
    32 O23     -2.9528   6.7905  15.1426   O.co2     1 RES1   0.0000
    33 O24     -2.9733   8.9078  14.4027   O.co2     1 RES1   0.0000
    34 O25     -1.8255   7.3017   4.5352   O.co2     1 RES1   0.0000
    35 O26     -4.4494   4.4689  14.1634   O.co2     1 RES1   0.0000
    36 O27     -0.9229   2.2166   4.9784   O.co2     1 RES1   0.0000
    37 O28     -4.7490  10.0726  12.7612   O.co2     1 RES1   0.0000
    38 O29     -1.9570  10.0370  11.9337   O.co2     1 RES1   0.0000
    39 O30     -1.3118   9.3764   9.8878   O.co2     1 RES1   0.0000
    40 C1       1.0164   7.5061  10.0293   C.2       1 RES1   0.0000
    41 C2       2.2562   8.3192  10.2434   C.ar      1 RES1   0.0000
    42 C3       2.5330   8.7796  11.5124   C.ar      1 RES1   0.0000
    43 C4       3.7004   9.5333  11.7332   C.ar      1 RES1   0.0000
    44 C5       4.5472   9.7882  10.6596   C.ar      1 RES1   0.0000
    45 C6       4.2558   9.3333   9.4395   C.ar      1 RES1   0.0000
    46 C7       3.1192   8.6064   9.2035   C.ar      1 RES1   0.0000
    47 C8       0.4610   5.6303   5.2464   C.2       1 RES1   0.0000
    48 C9       1.4958   6.2351   4.3414   C.ar      1 RES1   0.0000
    49 C10      1.4465   5.9590   2.9830   C.ar      1 RES1   0.0000
    50 C11      2.3836   6.5641   2.1471   C.ar      1 RES1   0.0000
    51 C12      3.3224   7.4251   2.6847   C.ar      1 RES1   0.0000
    52 C13      3.3727   7.6710   4.0178   C.ar      1 RES1   0.0000
    53 C14      2.4541   7.0838   4.8554   C.ar      1 RES1   0.0000
    54 C15     -8.6717   9.6299   8.1856   C.2       1 RES1   0.0000
    55 C16     -9.5343  10.7274   7.5991   C.ar      1 RES1   0.0000
    56 C17     -9.8064  10.7372   6.2694   C.ar      1 RES1   0.0000
    57 C18    -10.5991  11.7417   5.7099   C.ar      1 RES1   0.0000
    58 C19    -11.0792  12.7415   6.5053   C.ar      1 RES1   0.0000
    59 C20    -10.8059  12.7462   7.8418   C.ar      1 RES1   0.0000
    60 C21    -10.0275  11.7333   8.4064   C.ar      1 RES1   0.0000
    61 C22     -4.9391   9.3114   5.0762   C.2       1 RES1   0.0000
    62 C23     -5.2102  10.1854   3.8830   C.ar      1 RES1   0.0000
    63 C24     -4.2124  10.4404   2.9645   C.ar      1 RES1   0.0000
    64 C25     -4.5067  11.2101   1.8370   C.ar      1 RES1   0.0000
    65 C26     -5.7775  11.7001   1.6718   C.ar      1 RES1   0.0000
    66 C27     -6.7567  11.4502   2.5600   C.ar      1 RES1   0.0000
    67 C28     -6.4903  10.6944   3.6908   C.ar      1 RES1   0.0000
    68 C29     -4.6862  10.7008   8.7030   C.2       1 RES1   0.0000
    69 C30     -4.8816  12.0187   9.3704   C.ar      1 RES1   0.0000
    70 C31     -3.8341  12.7820   9.8086   C.ar      1 RES1   0.0000
    71 C32     -4.0710  14.0138  10.4119   C.ar      1 RES1   0.0000
    72 C33     -5.3584  14.4381  10.5990   C.ar      1 RES1   0.0000
    73 C34     -6.4111  13.6775  10.1776   C.ar      1 RES1   0.0000
    74 C35     -6.1805  12.4765   9.5625   C.ar      1 RES1   0.0000
    75 C36     -0.4431   4.4038  13.5146   C.2       1 RES1   0.0000
    76 C37      0.5400   3.4580  14.1095   C.ar      1 RES1   0.0000
    77 C38      0.4043   3.0018  15.4038   C.ar      1 RES1   0.0000
    78 C39      1.3294   2.1360  15.9398   C.ar      1 RES1   0.0000
    79 C40      2.4056   1.7220  15.1898   C.ar      1 RES1   0.0000
    80 C41      2.5321   2.1553  13.8887   C.ar      1 RES1   0.0000
    81 C42      1.6051   3.0149  13.3410   C.ar      1 RES1   0.0000
    82 C43     -2.8948   8.0423  15.3196   C.2       1 RES1   0.0000
    83 C44     -2.7620   8.5253  16.7217   C.ar      1 RES1   0.0000
    84 C45     -2.8509   7.6589  17.7869   C.ar      1 RES1   0.0000
    85 C46     -2.7321   8.1148  19.0795   C.ar      1 RES1   0.0000
    86 C47     -2.5088   9.4543  19.3205   C.ar      1 RES1   0.0000
    87 C48     -2.4315  10.3285  18.2722   C.ar      1 RES1   0.0000
    88 C49     -2.5526   9.8699  16.9779   C.ar      1 RES1   0.0000
    89 C50     -2.0007   7.3012   3.2914   C.2       1 RES1   0.0000
    90 C51     -1.0550   8.0797   2.4538   C.ar      1 RES1   0.0000
    91 C52     -0.2743   9.0475   3.0538   C.ar      1 RES1   0.0000
    92 C53      0.5766   9.8248   2.2701   C.ar      1 RES1   0.0000
    93 C54      0.6334   9.6170   0.9084   C.ar      1 RES1   0.0000
    94 C55     -0.1157   8.6520   0.3253   C.ar      1 RES1   0.0000
    95 C56     -0.9703   7.8781   1.0887   C.ar      1 RES1   0.0000
    96 C57     -1.4118   1.2152   4.4290   C.2       1 RES1   0.0000
    97 C58     -0.4955   0.0554   4.1122   C.ar      1 RES1   0.0000
    98 C59      0.7675   0.0212   4.6616   C.ar      1 RES1   0.0000
    99 C60      1.6137  -1.0586   4.3616   C.ar      1 RES1   0.0000
   100 C61      1.1805  -2.0471   3.5324   C.ar      1 RES1   0.0000
   101 C62     -0.0777  -2.0083   2.9796   C.ar      1 RES1   0.0000
   102 C63     -0.9234  -0.9509   3.2864   C.ar      1 RES1   0.0000
   103 C64     -1.1843  10.0786  10.9057   C.2       1 RES1   0.0000
   104 C65     -0.0655  11.0459  10.9697   C.ar      1 RES1   0.0000
   105 C66      0.2723  11.6737  12.1545   C.ar      1 RES1   0.0000
   106 C67      1.3648  12.5213  12.2354   C.ar      1 RES1   0.0000
   107 C68      2.1147  12.7723  11.1079   C.ar      1 RES1   0.0000
   108 C69      1.7789  12.1707   9.9350   C.ar      1 RES1   0.0000
   109 C70      0.6891  11.3282   9.8389   C.ar      1 RES1   0.0000
   110 H1      -1.1962   7.4538  13.0528   H         1 RES1   0.0000
   111 H2      -0.3352   3.2882  15.9280   H         1 RES1   0.0000
   112 H3       1.9418   8.5894  12.2320   H         1 RES1   0.0000
   113 H4       3.9074   9.8648  12.5994   H         1 RES1   0.0000
   114 H5       5.3415  10.2898  10.7962   H         1 RES1   0.0000
   115 H6       4.8482   9.5184   8.7198   H         1 RES1   0.0000
   116 H7       2.9244   8.2990   8.3255   H         1 RES1   0.0000
   117 H8       0.7877   5.3717   2.6308   H         1 RES1   0.0000
   118 H9       2.3776   6.3861   1.2134   H         1 RES1   0.0000
   119 H10      3.9435   7.8545   2.1083   H         1 RES1   0.0000
   120 H11      4.0409   8.2460   4.3717   H         1 RES1   0.0000
   121 H12      2.4790   7.2624   5.7874   H         1 RES1   0.0000
   122 H13     -9.4536  10.0525   5.7115   H         1 RES1   0.0000
   123 H14    -10.8050  11.7293   4.7829   H         1 RES1   0.0000
   124 H15    -11.6059  13.4373   6.1261   H         1 RES1   0.0000
   125 H16    -11.1458  13.4422   8.3912   H         1 RES1   0.0000
   126 H17     -9.8373  11.7379   9.3367   H         1 RES1   0.0000
   127 H18     -3.3362  10.0965   3.0993   H         1 RES1   0.0000
   128 H19     -3.8338  11.3912   1.1898   H         1 RES1   0.0000
   129 H20     -5.9722  12.2306   0.9084   H         1 RES1   0.0000
   130 H21     -7.6308  11.7935   2.4117   H         1 RES1   0.0000
   131 H22     -7.1739  10.5268   4.3279   H         1 RES1   0.0000
   132 H23     -2.9424  12.4706   9.7007   H         1 RES1   0.0000
   133 H24     -3.3430  14.5559  10.6934   H         1 RES1   0.0000
   134 H25     -5.5215  15.2714  11.0237   H         1 RES1   0.0000
   135 H26     -7.3011  13.9799  10.3125   H         1 RES1   0.0000
   136 H27     -6.9158  11.9529   9.2659   H         1 RES1   0.0000
   137 H28      1.2258   1.8246  16.8313   H         1 RES1   0.0000
   138 H29      3.0551   1.1415  15.5656   H         1 RES1   0.0000
   139 H30      3.2662   1.8572  13.3646   H         1 RES1   0.0000
   140 H31      1.6965   3.3040  12.4410   H         1 RES1   0.0000
   141 H32     -2.9949   6.7333  17.6284   H         1 RES1   0.0000
   142 H33     -2.8067   7.5077  19.8059   H         1 RES1   0.0000
   143 H34     -2.4060   9.7679  20.2104   H         1 RES1   0.0000
   144 H35     -2.2939  11.2542  18.4357   H         1 RES1   0.0000
   145 H36     -2.4929  10.4814  16.2532   H         1 RES1   0.0000
   146 H37     -0.3160   9.1835   3.9925   H         1 RES1   0.0000
   147 H38      1.1150  10.4959   2.6729   H         1 RES1   0.0000
   148 H39      1.2031  10.1582   0.3741   H         1 RES1   0.0000
   149 H40     -0.0516   8.5053  -0.6118   H         1 RES1   0.0000
   150 H41     -1.4988   7.2053   0.6758   H         1 RES1   0.0000
   151 H42      1.0613   0.7187   5.2363   H         1 RES1   0.0000
   152 H43      2.4857  -1.0981   4.7357   H         1 RES1   0.0000
   153 H44      1.7559  -2.7768   3.3352   H         1 RES1   0.0000
   154 H45     -0.3651  -2.6986   2.3932   H         1 RES1   0.0000
   155 H46     -1.7998  -0.9249   2.9223   H         1 RES1   0.0000
   156 H47     -0.2539  11.5186  12.9298   H         1 RES1   0.0000
   157 H48      1.5934  12.9301  13.0612   H         1 RES1   0.0000
   158 H49      2.8613  13.3575  11.1501   H         1 RES1   0.0000
   159 H50      2.3065  12.3364   9.1631   H         1 RES1   0.0000
   160 H51      0.4561  10.9413   9.0030   H         1 RES1   0.0000
   161 H80     -2.2264   3.9277   3.2948   H         1 RES1   0.0000
   162 H81     -7.5300   7.7985   9.6619   H         1 RES1   0.0000
   163 H82      0.3393   4.9625   9.2929   H         1 RES1   0.0000
   164 H85     -1.6659   8.5829   6.5424   H         1 RES1   0.0000
   165 O1A     -5.1574   4.5963   7.4306   O.3       1 RES1   0.0000
   166 O2A     -3.1266   3.7029   9.0535   O.3       1 RES1   0.0000
   167 O3A     -4.9901   5.6239   9.9754   O.3       1 RES1   0.0000
   168 O9A     -6.9076   6.4591   7.1508   O.3       1 RES1   0.0000
   169 O4A     -4.4918   6.2377   5.1520   O.3       1 RES1   0.0000
   170 O5A     -3.4524   2.8422   6.2003   O.3       1 RES1   0.0000
   171 O10A    -0.7851   3.3890   7.3665   O.3       1 RES1   0.0000
   172 Fe7A    -4.2136   3.9159  10.7975   Fe        1 RES1   0.0000
   173 O8A     -4.5314   7.0285  12.8337   O.3       1 RES1   0.0000
   174 Fe6A    -5.5285   7.2313  10.9949   Fe        1 RES1   0.0000
   175 Fe4A    -4.2996   5.4618   3.4172   Fe        1 RES1   0.0000
   176 Fe5A    -4.0402   2.4380   4.4457   Fe        1 RES1   0.0000
   177 Fe2A    -1.2796   2.9089   9.1973   Fe        1 RES1   0.0000
   178 C50A    -5.3821   3.8509  13.5618   C.2       1 RES1   0.0000
   179 C57A    -5.9709   9.9369  12.4242   C.2       1 RES1   0.0000
   180 O26A    -2.9333   6.6831   2.6898   O.co2     1 RES1   0.0000
   181 O28A    -2.6338   1.0795   4.0920   O.co2     1 RES1   0.0000
   182 Fe1A    -6.6199   4.9536   8.8811   Fe        1 RES1   0.0000
   183 Fe3A    -6.0449   5.2401   5.8223   Fe        1 RES1   0.0000
   184 Fe8A    -4.4797   2.7438   7.7892   Fe        1 RES1   0.0000
   185 H82A    -7.7221   6.1896   7.5603   H         1 RES1   0.0000
   186 H81A     0.1472   3.3536   7.1913   H         1 RES1   0.0000
   187 O6A     -5.6313   3.0780   9.5119   O.3       1 RES1   0.0000
   188 O17A    -3.6585   2.1182  11.5293   O.co2     1 RES1   0.0000
   189 O25A    -5.5573   3.8504  12.3180   O.co2     1 RES1   0.0000
   190 H80A    -5.1563   7.2244  13.5584   H         1 RES1   0.0000
   191 O13A    -7.0522   6.3326  12.0281   O.co2     1 RES1   0.0000
   192 O27A    -6.4598   8.9354  11.8748   O.co2     1 RES1   0.0000
   193 O7A     -5.4521   3.9521   4.3464   O.3       1 RES1   0.0000
   194 O21A    -5.8632   6.5058   2.6881   O.co2     1 RES1   0.0000
   195 O23A    -4.4300   4.3616   1.7106   O.co2     1 RES1   0.0000
   196 O24A    -4.4095   2.2443   2.4505   O.co2     1 RES1   0.0000
   197 O29A    -5.4257   1.1150   4.9194   O.co2     1 RES1   0.0000
   198 O16A     0.6089   2.1923   9.4749   O.co2     1 RES1   0.0000
   199 O18A    -1.4631   2.2529  11.1164   O.co2     1 RES1   0.0000
   200 O20A    -1.7113   1.0725   8.5665   O.co2     1 RES1   0.0000
   201 C51A    -6.3277   3.0723  14.3994   C.ar      1 RES1   0.0000
   202 C58A    -6.8873  11.0966  12.7410   C.ar      1 RES1   0.0000
   203 O12A    -8.1108   3.9397   8.0390   O.co2     1 RES1   0.0000
   204 O14A    -7.9055   5.1088  10.3917   O.co2     1 RES1   0.0000
   205 O11A    -7.6950   3.9984   5.8700   O.co2     1 RES1   0.0000
   206 O22A    -7.2249   6.2309   4.4492   O.co2     1 RES1   0.0000
   207 O19A    -3.8991   0.8774   8.2513   O.co2     1 RES1   0.0000
   208 O30A    -6.0710   1.7756   6.9654   O.co2     1 RES1   0.0000
   209 H85A    -5.7169   2.5692  10.3108   H         1 RES1   0.0000
   210 C22A    -2.4437   1.8407  11.7770   C.2       1 RES1   0.0000
   211 C8A     -7.8438   5.5217  11.6068   C.2       1 RES1   0.0000
   212 H1A     -6.1866   3.6982   3.8004   H         1 RES1   0.0000
   213 C36A    -6.9396   6.7482   3.3386   C.2       1 RES1   0.0000
   214 C43A    -4.4880   3.1098   1.5336   C.2       1 RES1   0.0000
   215 C64A    -6.1984   1.0735   5.9475   C.2       1 RES1   0.0000
   216 C15A     1.2889   1.5222   8.6676   C.2       1 RES1   0.0000
   217 C29A    -2.6966   0.4513   8.1502   C.2       1 RES1   0.0000
   218 C52A    -7.1085   2.1046  13.7994   C.ar      1 RES1   0.0000
   219 C56A    -6.4125   3.2740  15.7645   C.ar      1 RES1   0.0000
   220 C59A    -8.1502  11.1309  12.1916   C.ar      1 RES1   0.0000
   221 C63A    -6.4593  12.1030  13.5668   C.ar      1 RES1   0.0000
   222 C1A     -8.3991   3.6459   6.8239   C.2       1 RES1   0.0000
   223 C23A    -2.1726   0.9667  12.9702   C.ar      1 RES1   0.0000
   224 C9A     -8.8786   4.9170  12.5118   C.ar      1 RES1   0.0000
   225 C37A    -7.9227   7.6941   2.7437   C.ar      1 RES1   0.0000
   226 C44A    -4.6207   2.6267   0.1315   C.ar      1 RES1   0.0000
   227 C65A    -7.3173   0.1062   5.8835   C.ar      1 RES1   0.0000
   228 O15A     1.3035   1.6951   7.4221   O.co2     1 RES1   0.0000
   229 C16A     2.1516   0.4247   9.2541   C.ar      1 RES1   0.0000
   230 C30A    -2.5012  -0.8666   7.4828   C.ar      1 RES1   0.0000
   231 C53A    -7.9594   1.3273  14.5831   C.ar      1 RES1   0.0000
   232 H37A    -7.0668   1.9685  12.8607   H         1 RES1   0.0000
   233 C55A    -7.2671   2.5001  16.5279   C.ar      1 RES1   0.0000
   234 H41A    -5.8840   3.9467  16.1774   H         1 RES1   0.0000
   235 C60A    -8.9965  12.2107  12.4916   C.ar      1 RES1   0.0000
   236 H42A    -8.4441  10.4333  11.6169   H         1 RES1   0.0000
   237 C62A    -7.3051  13.1604  13.8735   C.ar      1 RES1   0.0000
   238 H46A    -5.5830  12.0770  13.9309   H         1 RES1   0.0000
   239 C2A     -9.6389   2.8329   6.6098   C.ar      1 RES1   0.0000
   240 C24A    -3.1704   0.7117  13.8887   C.ar      1 RES1   0.0000
   241 C28A    -0.8925   0.4576  13.1623   C.ar      1 RES1   0.0000
   242 C10A    -8.8293   5.1931  13.8702   C.ar      1 RES1   0.0000
   243 C14A    -9.8369   4.0682  11.9978   C.ar      1 RES1   0.0000
   244 C38A    -7.7871   8.1503   1.4494   C.ar      1 RES1   0.0000
   245 C42A    -8.9879   8.1372   3.5122   C.ar      1 RES1   0.0000
   246 C45A    -4.5318   3.4931  -0.9337   C.ar      1 RES1   0.0000
   247 C49A    -4.8302   1.2822  -0.1247   C.ar      1 RES1   0.0000
   248 C66A    -7.6550  -0.5217   4.6987   C.ar      1 RES1   0.0000
   249 C70A    -8.0719  -0.1762   7.0143   C.ar      1 RES1   0.0000
   250 C17A     2.4236   0.4149  10.5838   C.ar      1 RES1   0.0000
   251 C21A     2.6448  -0.5812   8.4468   C.ar      1 RES1   0.0000
   252 C31A    -3.5486  -1.6299   7.0446   C.ar      1 RES1   0.0000
   253 C35A    -1.2022  -1.3244   7.2907   C.ar      1 RES1   0.0000
   254 C54A    -8.0162   1.5351  15.9448   C.ar      1 RES1   0.0000
   255 H38A    -8.4977   0.6562  14.1803   H         1 RES1   0.0000
   256 H40A    -7.3312   2.6467  17.4650   H         1 RES1   0.0000
   257 C61A    -8.5632  13.1992  13.3208   C.ar      1 RES1   0.0000
   258 H43A    -9.8685  12.2501  12.1174   H         1 RES1   0.0000
   259 H45A    -7.0176  13.8506  14.4600   H         1 RES1   0.0000
   260 C3A     -9.9158   2.3725   5.3408   C.ar      1 RES1   0.0000
   261 C7A    -10.5020   2.5457   7.6497   C.ar      1 RES1   0.0000
   262 C25A    -2.8760  -0.0580  15.0162   C.ar      1 RES1   0.0000
   263 H18A    -4.0466   1.0556  13.7539   H         1 RES1   0.0000
   264 C27A    -0.6261  -0.2981  14.2932   C.ar      1 RES1   0.0000
   265 H22A    -0.2088   0.6253  12.5253   H         1 RES1   0.0000
   266 C11A    -9.7664   4.5880  14.7061   C.ar      1 RES1   0.0000
   267 H8A     -8.1704   5.7804  14.2224   H         1 RES1   0.0000
   268 C13A   -10.7555   3.4810  12.8354   C.ar      1 RES1   0.0000
   269 H12A    -9.8617   3.8897  11.0658   H         1 RES1   0.0000
   270 C39A    -8.7121   9.0160   0.9134   C.ar      1 RES1   0.0000
   271 H2A     -7.0476   7.8639   0.9252   H         1 RES1   0.0000
   272 C41A    -9.9149   8.9968   2.9645   C.ar      1 RES1   0.0000
   273 H31A    -9.0792   7.8481   4.4122   H         1 RES1   0.0000
   274 C46A    -4.6507   3.0373  -2.2263   C.ar      1 RES1   0.0000
   275 H32A    -4.3879   4.4188  -0.7752   H         1 RES1   0.0000
   276 C48A    -4.9513   0.8236  -1.4190   C.ar      1 RES1   0.0000
   277 H36A    -4.8898   0.6706   0.6000   H         1 RES1   0.0000
   278 C67A    -8.7476  -1.3692   4.6178   C.ar      1 RES1   0.0000
   279 H47A    -7.1288  -0.3666   3.9234   H         1 RES1   0.0000
   280 C69A    -9.1616  -1.0186   6.9182   C.ar      1 RES1   0.0000
   281 H51A    -7.8389   0.2108   7.8502   H         1 RES1   0.0000
   282 C18A     3.2163  -0.5896  11.1433   C.ar      1 RES1   0.0000
   283 H13A     2.0708   1.0996  11.1416   H         1 RES1   0.0000
   284 C20A     3.4231  -1.5942   9.0114   C.ar      1 RES1   0.0000
   285 H17A     2.4546  -0.5858   7.5165   H         1 RES1   0.0000
   286 C32A    -3.3118  -2.8618   6.4413   C.ar      1 RES1   0.0000
   287 H23A    -4.4403  -1.3185   7.1525   H         1 RES1   0.0000
   288 C34A    -0.9717  -2.5255   6.6756   C.ar      1 RES1   0.0000
   289 H27A    -0.4669  -0.8008   7.5873   H         1 RES1   0.0000
   290 H39A    -8.5858   0.9939  16.4791   H         1 RES1   0.0000
   291 H44A    -9.1386  13.9289  13.5179   H         1 RES1   0.0000
   292 C4A    -11.0832   1.6187   5.1200   C.ar      1 RES1   0.0000
   293 H3A     -9.3246   2.5627   4.6211   H         1 RES1   0.0000
   294 C6A    -11.6385   1.8188   7.4137   C.ar      1 RES1   0.0000
   295 H7A    -10.3072   2.8531   8.5277   H         1 RES1   0.0000
   296 C26A    -1.6052  -0.5480  15.1814   C.ar      1 RES1   0.0000
   297 H19A    -3.5490  -0.2391  15.6634   H         1 RES1   0.0000
   298 H21A     0.2480  -0.6414  14.4415   H         1 RES1   0.0000
   299 C12A   -10.7052   3.7270  14.1685   C.ar      1 RES1   0.0000
   300 H9A     -9.7603   4.7660  15.6398   H         1 RES1   0.0000
   301 H11A   -11.4237   2.9061  12.4815   H         1 RES1   0.0000
   302 C40A    -9.7884   9.4300   1.6634   C.ar      1 RES1   0.0000
   303 H28A    -8.6086   9.3275   0.0219   H         1 RES1   0.0000
   304 H30A   -10.6490   9.2949   3.4886   H         1 RES1   0.0000
   305 C47A    -4.8739   1.6977  -2.4673   C.ar      1 RES1   0.0000
   306 H33A    -4.5760   3.6444  -2.9527   H         1 RES1   0.0000
   307 H35A    -5.0888  -0.1021  -1.5825   H         1 RES1   0.0000
   308 C68A    -9.4975  -1.6202   5.7453   C.ar      1 RES1   0.0000
   309 H48A    -8.9761  -1.7780   3.7920   H         1 RES1   0.0000
   310 H50A    -9.6893  -1.1843   7.6901   H         1 RES1   0.0000
   311 C19A     3.6964  -1.5894  10.3479   C.ar      1 RES1   0.0000
   312 H14A     3.4222  -0.5772  12.0703   H         1 RES1   0.0000
   313 H16A     3.7631  -2.2901   8.4620   H         1 RES1   0.0000
   314 C33A    -2.0244  -3.2860   6.2542   C.ar      1 RES1   0.0000
   315 H24A    -4.0398  -3.4039   6.1598   H         1 RES1   0.0000
   316 H26A    -0.0817  -2.8279   6.5407   H         1 RES1   0.0000
   317 C5A    -11.9300   1.3639   6.1935   C.ar      1 RES1   0.0000
   318 H4A    -11.2902   1.2872   4.2537   H         1 RES1   0.0000
   319 H6A    -12.2310   1.6336   8.1334   H         1 RES1   0.0000
   320 H20A    -1.4106  -1.0785  15.9448   H         1 RES1   0.0000
   321 H10A   -11.3263   3.2976  14.7449   H         1 RES1   0.0000
   322 H29A   -10.4379  10.0106   1.2876   H         1 RES1   0.0000
   323 H34A    -4.9767   1.3842  -3.3572   H         1 RES1   0.0000
   324 H49A   -10.2441  -2.2054   5.7031   H         1 RES1   0.0000
   325 H15A     4.2231  -2.2852  10.7271   H         1 RES1   0.0000
   326 H25A    -1.8613  -4.1193   5.8295   H         1 RES1   0.0000
   327 H5A    -12.7242   0.8623   6.0570   H         1 RES1   0.0000
   328 N1       8.9426   1.3358  10.3748   N.1       2 RES2   0.0000
   329 C71      7.9732   0.8424  10.5804   C.1       2 RES2   0.0000
   330 C72      6.7127   0.1613  10.8653   C.3       2 RES2   0.0000
   331 H52      6.0053   0.7953  10.8771   H         2 RES2   0.0000
   332 H53      6.5453  -0.4890  10.1945   H         2 RES2   0.0000
   333 H54      6.7691  -0.2647  11.7130   H         2 RES2   0.0000
   334 N2       9.5036  -2.2184  11.0945   N.1       3 RES3   0.0000
   335 C73     10.3774  -1.5309  10.9613   C.1       3 RES3   0.0000
   336 C74     11.4844  -0.6606  10.8433   C.3       3 RES3   0.0000
   337 H55     12.2054  -1.1185  10.4304   H         3 RES3   0.0000
   338 H56     11.2411   0.0904  10.3142   H         3 RES3   0.0000
   339 H57     11.7481  -0.3655  11.7079   H         3 RES3   0.0000
   340 N3       5.4622  -0.2008  14.0775   N.1       4 RES4   0.0000
   341 C75      5.5038  -0.5982  15.1207   C.1       4 RES4   0.0000
   342 C76      5.5458  -1.1049  16.4757   C.3       4 RES4   0.0000
   343 H58      5.0326  -1.9030  16.5330   H         4 RES4   0.0000
   344 H59      6.4446  -1.2885  16.7184   H         4 RES4   0.0000
   345 H60      5.1857  -0.4556  17.0689   H         4 RES4   0.0000
   346 N4      15.6418   3.5561   1.6145   N.1       5 RES5   0.0000
   347 C77     15.5961   2.6130   1.0162   C.1       5 RES5   0.0000
   348 C78     15.5111   1.3909   0.3034   C.3       5 RES5   0.0000
   349 H61     14.6006   1.1230   0.2410   H         5 RES5   0.0000
   350 H62     15.8673   1.5065  -0.5696   H         5 RES5   0.0000
   351 H63     16.0061   0.7223   0.7618   H         5 RES5   0.0000
   352 N5       9.2902   3.0579   2.6577   N.1       6 RES6   0.0000
   353 C79      8.8128   2.1868   2.1302   C.1       6 RES6   0.0000
   354 C80      8.1792   1.0598   1.4393   C.3       6 RES6   0.0000
   355 H64      7.4204   1.3704   0.9573   H         6 RES6   0.0000
   356 H65      8.7988   0.6690   0.8359   H         6 RES6   0.0000
   357 H66      7.9045   0.4104   2.0763   H         6 RES6   0.0000
   358 N6       3.5345  -3.6796  15.3347   N.1       7 RES7   0.0000
   359 C81      2.5771  -3.7028  14.7516   C.1       7 RES7   0.0000
   360 C82      1.3869  -3.7844  13.9612   C.3       7 RES7   0.0000
   361 H67      0.9074  -2.9665  14.0252   H         7 RES7   0.0000
   362 H68      1.6193  -3.9440  13.0528   H         7 RES7   0.0000
   363 H69      0.8438  -4.4963  14.2780   H         7 RES7   0.0000
   364 N7       5.5763   3.2942   1.8606   N.1       8 RES8   0.0000
   365 C83      5.8732   4.3250   2.5280   C.1       8 RES8   0.0000
   366 C84      6.1684   5.1699   3.5055   C.3       8 RES8   0.0000
   367 H70      6.8974   4.8314   4.0060   H         8 RES8   0.0000
   368 H71      6.4105   6.0124   3.1246   H         8 RES8   0.0000
   369 H72      5.4130   5.2794   4.0616   H         8 RES8   0.0000
   370 N8       3.3953   4.1840  10.3310   N.1       9 RES9   0.0000
   371 C85      3.2201   4.3997   9.2136   C.1       9 RES9   0.0000
   372 C86      3.0789   4.6526   7.7744   C.3       9 RES9   0.0000
   373 H73      2.3996   5.3014   7.6311   H         9 RES9   0.0000
   374 H74      3.9029   4.9768   7.4272   H         9 RES9   0.0000
   375 H75      2.8440   3.8451   7.3328   H         9 RES9   0.0000
   376 N9       2.2726   1.9210   0.2039   N.1      10 RES10   0.0000
   377 C87      2.2962   2.1427   1.3483   C.1      10 RES10   0.0000
   378 C88      2.3527   2.4960   2.7319   C.3      10 RES10   0.0000
   379 H76      3.2295   2.3386   3.0622   H        10 RES10   0.0000
   380 H77      2.1361   3.4156   2.8330   H        10 RES10   0.0000
   381 H78      1.7318   1.9689   3.2190   H        10 RES10   0.0000
@<TRIPOS>BOND
     1     1    10    1
     2     2    11    1
     3     3    10    1
     4     4    13    1
     5     5    14    1
     6     6    12    1
     7     7    11    1
     8     8    10    1
     9     9    10    1
    10    11     8    1
    11    12     1    1
    12    13     3    1
    13    14     8    1
    14    15     1    1
    15    16     3    1
    16    17     6    1
    17    18     1    1
    18    19     2    1
    19    20     3    1
    20    21     1    1
    21    22     6    1
    22    23     1    1
    23    24    54    2
    24    25     2    1
    25    26     7    1
    26    27     2    1
    27    28     8    1
    28    29     2    1
    29    30     4    1
    30    31     3    1
    31    32     4    1
    32    33     5    1
    33    34     7    1
    34    35     4    1
    35    36     6    1
    36    37     5    1
    37    38     5    1
    38    39     8    1
    39    40    20   un
    40    41    40    1
    41    42    41   ar
    42    43    42   ar
    43    44    43   ar
    44    45    44   ar
    45    46    41   ar
    46    47    22   un
    47    48    47    1
    48    49    48   ar
    49    50    49   ar
    50    51    50   ar
    51    52    51   ar
    52    53    48   ar
    53    54    25    1
    54    55    54    1
    55    56    55   ar
    56    57    56   ar
    57    58    57   ar
    58    59    58   ar
    59    60    55   ar
    60    61    26   un
    61    62    61    1
    62    63    62   ar
    63    64    63   ar
    64    65    64   ar
    65    66    65   ar
    66    67    62   ar
    67    68    28   un
    68    69    68    1
    69    70    69   ar
    70    71    70   ar
    71    72    71   ar
    72    73    72   ar
    73    74    69   ar
    74    75    30   un
    75    76    75    1
    76    77    76   ar
    77    78    77   ar
    78    79    78   ar
    79    80    79   ar
    80    81    76   ar
    81    82    32   un
    82    83    82    1
    83    84    83   ar
    84    85    84   ar
    85    86    85   ar
    86    87    86   ar
    87    88    83   ar
    88    89    34   un
    89    90    89    1
    90    91    90   ar
    91    92    91   ar
    92    93    92   ar
    93    94    93   ar
    94    95    90   ar
    95    96    36   un
    96    97    96    1
    97    98    97   ar
    98    99    98   ar
    99   100    99   ar
   100   101   100   ar
   101   102    97   ar
   102   103    38   un
   103   104   103    1
   104   105   104   ar
   105   106   105   ar
   106   107   106   ar
   107   108   107   ar
   108   109   104   ar
   109   110    16    1
   110   111    77    1
   111   112    42    1
   112   113    43    1
   113   114    44    1
   114   115    45    1
   115   116    46    1
   116   117    49    1
   117   118    50    1
   118   119    51    1
   119   120    52    1
   120   121    53    1
   121   122    56    1
   122   123    57    1
   123   124    58    1
   124   125    59    1
   125   126    60    1
   126   127    63    1
   127   128    64    1
   128   129    65    1
   129   130    66    1
   130   131    67    1
   131   132    70    1
   132   133    71    1
   133   134    72    1
   134   135    73    1
   135   136    74    1
   136   137    78    1
   137   138    79    1
   138   139    80    1
   139   140    81    1
   140   141    84    1
   141   142    85    1
   142   143    86    1
   143   144    87    1
   144   145    88    1
   145   146    91    1
   146   147    92    1
   147   148    93    1
   148   149    94    1
   149   150    95    1
   150   151    98    1
   151   152    99    1
   152   153   100    1
   153   154   101    1
   154   155   102    1
   155   156   105    1
   156   157   106    1
   157   158   107    1
   158   159   108    1
   159   160   109    1
   160   161    17    1
   161   162    19    1
   162   163    18    1
   163   164    15    1
   164   165     9    1
   165   166     9    1
   166   167     9    1
   167   168     2    1
   168   169     7    1
   169   170     6    1
   170   171     6    1
   171   172    13    1
   172   173     4    1
   173   174    14    1
   174   175    17    1
   175   176    17    1
   176   177    18    1
   177   178    35   un
   178   179    37   un
   179   180    89   un
   180   181    96   un
   181   182   165    1
   182   183   165    1
   183   184   165    1
   184   185   168    1
   185   186   171    1
   186   187   172    1
   187   188   172    1
   188   189   172    1
   189   190   173    1
   190   191   174    1
   191   192   174    1
   192   193   175    1
   193   194   175    1
   194   195   175    1
   195   196   176    1
   196   197   176    1
   197   198   177    1
   198   199   177    1
   199   200   177    1
   200   201   178    1
   201   202   179    1
   202   203   182    1
   203   204   182    1
   204   205   183    1
   205   206   183    1
   206   207   184    1
   207   208   184    1
   208   209   187    1
   209   210   188   un
   210   211   191   un
   211   212   193    1
   212   213   194   un
   213   214   195   un
   214   215   197   un
   215   216   198    1
   216   217   200   un
   217   218   201   ar
   218   219   201   ar
   219   220   202   ar
   220   221   202   ar
   221   222   203   un
   222   223   210    1
   223   224   211    1
   224   225   213    1
   225   226   214    1
   226   227   215    1
   227   228   216    2
   228   229   216    1
   229   230   217    1
   230   231   218   ar
   231   232   218    1
   232   233   219   ar
   233   234   219    1
   234   235   220   ar
   235   236   220    1
   236   237   221   ar
   237   238   221    1
   238   239   222    1
   239   240   223   ar
   240   241   223   ar
   241   242   224   ar
   242   243   224   ar
   243   244   225   ar
   244   245   225   ar
   245   246   226   ar
   246   247   226   ar
   247   248   227   ar
   248   249   227   ar
   249   250   229   ar
   250   251   229   ar
   251   252   230   ar
   252   253   230   ar
   253   254   231   ar
   254   255   231    1
   255   256   233    1
   256   257   235   ar
   257   258   235    1
   258   259   237    1
   259   260   239   ar
   260   261   239   ar
   261   262   240   ar
   262   263   240    1
   263   264   241   ar
   264   265   241    1
   265   266   242   ar
   266   267   242    1
   267   268   243   ar
   268   269   243    1
   269   270   244   ar
   270   271   244    1
   271   272   245   ar
   272   273   245    1
   273   274   246   ar
   274   275   246    1
   275   276   247   ar
   276   277   247    1
   277   278   248   ar
   278   279   248    1
   279   280   249   ar
   280   281   249    1
   281   282   250   ar
   282   283   250    1
   283   284   251   ar
   284   285   251    1
   285   286   252   ar
   286   287   252    1
   287   288   253   ar
   288   289   253    1
   289   290   254    1
   290   291   257    1
   291   292   260   ar
   292   293   260    1
   293   294   261   ar
   294   295   261    1
   295   296   262   ar
   296   297   262    1
   297   298   264    1
   298   299   266   ar
   299   300   266    1
   300   301   268    1
   301   302   270   ar
   302   303   270    1
   303   304   272    1
   304   305   274   ar
   305   306   274    1
   306   307   276    1
   307   308   278   ar
   308   309   278    1
   309   310   280    1
   310   311   282   ar
   311   312   282    1
   312   313   284    1
   313   314   286   ar
   314   315   286    1
   315   316   288    1
   316   317   292   ar
   317   318   292    1
   318   319   294    1
   319   320   296    1
   320   321   299    1
   321   322   302    1
   322   323   305    1
   323   324   308    1
   324   325   311    1
   325   326   314    1
   326   327   317    1
   327     3    18    1
   328     4    16    1
   329     5    16    1
   330     5   173    1
   331     7    12    1
   332     7    15    1
   333     8    15    1
   334     9    11    1
   335     9    12    1
   336    19   174    1
   337    21    40   un
   338    23    47   un
   339    27    61   un
   340    29    68   un
   341    31    75   un
   342    33    82   un
   343    39   103   un
   344    45    46   ar
   345    52    53   ar
   346    59    60   ar
   347    66    67   ar
   348    73    74   ar
   349    80    81   ar
   350    87    88   ar
   351    94    95   ar
   352   101   102   ar
   353   108   109   ar
   354   166   177    1
   355   166   172    1
   356   166   184    1
   357   167   182    1
   358   167   174    1
   359   167   172    1
   360   168   182    1
   361   168   183    1
   362   169   183    1
   363   169   175    1
   364   170   176    1
   365   170   184    1
   366   171   177    1
   367   173   174    1
   368   175   180    1
   369   176   193    1
   370   176   181    1
   371   178   189   un
   372   179   192   un
   373   182   187    1
   374   183   193    1
   375   184   187    1
   376   196   214   un
   377   199   210   un
   378   204   211   un
   379   205   222   un
   380   206   213   un
   381   207   217   un
   382   208   215   un
   383   233   254   ar
   384   237   257   ar
   385   264   296   ar
   386   268   299   ar
   387   272   302   ar
   388   276   305   ar
   389   280   308   ar
   390   284   311   ar
   391   288   314   ar
   392   294   317   ar
   393   328   329    3
   394   329   330    1
   395   330   331    1
   396   332   330    1
   397   333   330    1
   398   334   335    3
   399   335   336    1
   400   336   337    1
   401   338   336    1
   402   339   336    1
   403   340   341    3
   404   341   342    1
   405   342   343    1
   406   344   342    1
   407   345   342    1
   408   346   347    3
   409   347   348    1
   410   348   349    1
   411   350   348    1
   412   351   348    1
   413   352   353    3
   414   353   354    1
   415   354   355    1
   416   356   354    1
   417   357   354    1
   418   358   359    3
   419   359   360    1
   420   360   361    1
   421   362   360    1
   422   363   360    1
   423   364   365    3
   424   365   366    1
   425   366   367    1
   426   368   366    1
   427   369   366    1
   428   370   371    3
   429   371   372    1
   430   372   373    1
   431   374   372    1
   432   375   372    1
   433   376   377    3
   434   377   378    1
   435   378   379    1
   436   380   378    1
   437   381   378    1
@<TRIPOS>SUBSTRUCTURE
     1 RES1        1 GROUP             0 ****  ****    0  
     2 RES2      328 GROUP             0 ****  ****    0  
     3 RES3      334 GROUP             0 ****  ****    0  
     4 RES4      340 GROUP             0 ****  ****    0  
     5 RES5      346 GROUP             0 ****  ****    0  
     6 RES6      352 GROUP             0 ****  ****    0  
     7 RES7      358 GROUP             0 ****  ****    0  
     8 RES8      364 GROUP             0 ****  ****    0  
     9 RES9      370 GROUP             0 ****  ****    0  
    10 RES10     376 GROUP             0 ****  ****    0  
@<TRIPOS>CRYSIN
   16.7810   17.3160   18.0440  105.0750   99.9970  104.2090     2     1
