@<TRIPOS>MOLECULE
POZKIY
   116   120     3     0     0
SMALL
USER_CHARGES
****
Generated from the CSD

@<TRIPOS>ATOM
     1 Fe1      3.3772  14.2816   8.4283   Fe        1 RES1   1.0000
     2 O1       1.6196  14.3167   9.0836   O.3       1 RES1   0.0000
     3 O2       2.9222  14.1905   6.4952   O.co2     1 RES1   0.0000
     4 O3       0.7121  14.3265   6.5633   O.co2     1 RES1   0.0000
     5 N1       5.4600  14.3413   7.8661   N.3       1 RES1   0.0000
     6 N2       3.7597  16.4228   8.2402   N.ar      1 RES1   0.0000
     7 N3       1.8900  17.1439   9.3857   N.pl3     1 RES1   0.0000
     8 N4       3.8403  12.1499   8.3739   N.ar      1 RES1   0.0000
     9 N5       1.9007  11.4501   9.3625   N.pl3     1 RES1   0.0000
    10 N6       4.3408  14.0528  10.4244   N.2       1 RES1   0.0000
    11 N7       2.4455  13.8938  11.7618   N.pl3     1 RES1   0.0000
    12 C1       5.6130  15.5115   6.9683   C.3       1 RES1   0.0000
    13 C2       4.9062  16.7080   7.5540   C.ar      1 RES1   0.0000
    14 C3       5.3679  17.9766   7.3631   C.ar      1 RES1   0.0000
    15 C4       4.6073  19.0370   7.8687   C.ar      1 RES1   0.0000
    16 C5       3.4462  18.7993   8.5292   C.ar      1 RES1   0.0000
    17 C6       3.0081  17.4504   8.7201   C.ar      1 RES1   0.0000
    18 C7       0.8841  18.0831   9.9017   C.3       1 RES1   0.0000
    19 C8      -0.3794  18.2142   9.0297   C.3       1 RES1   0.0000
    20 C9      -1.2729  19.2304   9.7392   C.3       1 RES1   0.0000
    21 C10     -0.0045  18.7469   7.6468   C.3       1 RES1   0.0000
    22 C11     -1.1201  16.8883   8.9007   C.3       1 RES1   0.0000
    23 C12      5.7578  13.0481   7.1954   C.3       1 RES1   0.0000
    24 C13      5.0908  11.9057   7.9152   C.ar      1 RES1   0.0000
    25 C14      5.7183  10.6797   8.0648   C.ar      1 RES1   0.0000
    26 C15      4.9896   9.6472   8.6711   C.ar      1 RES1   0.0000
    27 C16      3.7242   9.8651   9.1174   C.ar      1 RES1   0.0000
    28 C17      3.1255  11.1386   8.9626   C.ar      1 RES1   0.0000
    29 C18      0.9845  10.6322  10.1726   C.3       1 RES1   0.0000
    30 C19     -0.3584  10.3552   9.4760   C.3       1 RES1   0.0000
    31 C20     -1.0321  11.6598   9.0168   C.3       1 RES1   0.0000
    32 C21     -0.1543   9.4308   8.2996   C.3       1 RES1   0.0000
    33 C22     -1.2486   9.6472  10.5002   C.3       1 RES1   0.0000
    34 C23      6.2893  14.5248   9.0890   C.3       1 RES1   0.0000
    35 C24      5.6668  13.8774  10.2964   C.2       1 RES1   0.0000
    36 C25      6.4604  13.2448  11.2174   C.2       1 RES1   0.0000
    37 C26      5.8422  12.7236  12.3603   C.2       1 RES1   0.0000
    38 C27      4.5046  12.9104  12.5461   C.2       1 RES1   0.0000
    39 C28      3.7434  13.6201  11.5709   C.2       1 RES1   0.0000
    40 C29      1.7193  13.6414  13.0027   C.3       1 RES1   0.0000
    41 C30      0.5390  14.5805  13.2014   C.3       1 RES1   0.0000
    42 C31      1.0215  16.0114  13.2246   C.3       1 RES1   0.0000
    43 C32     -0.0910  14.2265  14.5429   C.3       1 RES1   0.0000
    44 C33     -0.4955  14.3839  12.0920   C.3       1 RES1   0.0000
    45 C34      1.7604  14.2773   5.9389   C.2       1 RES1   0.0000
    46 C35      1.7518  14.3068   4.4323   C.ar      1 RES1   0.0000
    47 C36      0.5424  14.4035   3.7383   C.ar      1 RES1   0.0000
    48 C37      0.5500  14.4707   2.3709   C.ar      1 RES1   0.0000
    49 C38      1.7078  14.4511   1.6640   C.ar      1 RES1   0.0000
    50 C39      2.9388  14.3494   2.3400   C.ar      1 RES1   0.0000
    51 C40      2.9524  14.2708   3.7202   C.ar      1 RES1   0.0000
    52 H1       1.1471  14.2265   8.4105   H         1 RES1   0.0000
    53 H2       1.5328  16.3408   9.2877   H         1 RES1   0.0000
    54 H3       1.6328  12.2433   9.2103   H         1 RES1   0.0000
    55 H4       1.9887  14.0954  11.0678   H         1 RES1   0.0000
    56 H5       5.2647  15.2755   6.2434   H         1 RES1   0.0000
    57 H6       6.5708  15.6852   6.8368   H         1 RES1   0.0000
    58 H7       6.2325  18.1437   6.8110   H         1 RES1   0.0000
    59 H8       4.9150  19.8647   7.7397   H         1 RES1   0.0000
    60 H9       2.8225  19.4058   8.9781   H         1 RES1   0.0000
    61 H10      1.1776  18.9141  10.1132   H         1 RES1   0.0000
    62 H11      0.6472  17.7012  10.7840   H         1 RES1   0.0000
    63 H12     -1.4565  18.8649  10.6808   H         1 RES1   0.0000
    64 H13     -2.2059  19.3566   9.3909   H         1 RES1   0.0000
    65 H14     -0.9332  20.0122   9.9326   H         1 RES1   0.0000
    66 H15     -0.8664  19.0288   6.9400   H         1 RES1   0.0000
    67 H16      0.5841  19.6516   7.7397   H         1 RES1   0.0000
    68 H17      0.6527  17.8323   7.2495   H         1 RES1   0.0000
    69 H18     -0.4524  16.1933   8.5395   H         1 RES1   0.0000
    70 H19     -1.2800  16.5867   9.7779   H         1 RES1   0.0000
    71 H20     -1.7722  17.1767   8.4879   H         1 RES1   0.0000
    72 H21      5.3350  13.0792   6.2692   H         1 RES1   0.0000
    73 H22      6.7331  12.9153   7.1205   H         1 RES1   0.0000
    74 H23      6.6290  10.5716   7.6881   H         1 RES1   0.0000
    75 H24      5.5142   8.7850   8.7975   H         1 RES1   0.0000
    76 H25      3.1733   9.1292   9.5199   H         1 RES1   0.0000
    77 H26      1.3567   9.7029  10.4228   H         1 RES1   0.0000
    78 H27      0.7606  11.1944  11.0420   H         1 RES1   0.0000
    79 H28     -0.5265  12.0630   8.3589   H         1 RES1   0.0000
    80 H29     -2.0816  11.0633   8.7717   H         1 RES1   0.0000
    81 H30     -1.2229  12.2269   9.7005   H         1 RES1   0.0000
    82 H31      0.4089   9.9160   7.5849   H         1 RES1   0.0000
    83 H32      0.4077   8.4900   8.6427   H         1 RES1   0.0000
    84 H33     -1.0835   9.2767   7.7139   H         1 RES1   0.0000
    85 H34     -0.7963   8.8342  10.9388   H         1 RES1   0.0000
    86 H35     -2.0289   9.2112  10.0616   H         1 RES1   0.0000
    87 H36     -1.3809  10.1782  11.1452   H         1 RES1   0.0000
    88 H37      7.2246  14.2757   8.8233   H         1 RES1   0.0000
    89 H38      6.3042  15.5213   9.1071   H         1 RES1   0.0000
    90 H39      7.3414  13.0956  10.9904   H         1 RES1   0.0000
    91 H40      6.5433  12.1942  13.0027   H         1 RES1   0.0000
    92 H41      4.2056  12.5875  13.4155   H         1 RES1   0.0000
    93 H42      2.5231  14.0790  13.8799   H         1 RES1   0.0000
    94 H43      1.4491  12.8006  13.1317   H         1 RES1   0.0000
    95 H44      1.7198  16.3081  12.3578   H         1 RES1   0.0000
    96 H45      1.6633  16.2753  14.0089   H         1 RES1   0.0000
    97 H46      0.1844  16.6031  13.3639   H         1 RES1   0.0000
    98 H47     -0.8967  14.9477  14.7571   H         1 RES1   0.0000
    99 H48      0.5822  14.0462  15.4021   H         1 RES1   0.0000
   100 H49     -0.4383  13.3415  14.6539   H         1 RES1   0.0000
   101 H50     -0.1254  14.5707  11.1968   H         1 RES1   0.0000
   102 H51     -0.8713  13.4398  12.0482   H         1 RES1   0.0000
   103 H52     -1.2843  15.0624  12.2546   H         1 RES1   0.0000
   104 H53     -0.3667  14.4232   4.3342   H         1 RES1   0.0000
   105 H54     -0.4850  14.4724   1.8833   H         1 RES1   0.0000
   106 H55      1.7624  14.5871   0.6192   H         1 RES1   0.0000
   107 H56      3.8995  14.4724   1.8833   H         1 RES1   0.0000
   108 H57      3.8747  14.1937   4.1795   H         1 RES1   0.0000
   109 Cl1     -0.8316   2.2099  22.8505   Cl        2 RES2   0.0000
   110 O4      -2.0458   2.2110  23.5236   O.3       2 RES2  -1.0000
   111 O5      -0.0022   3.2649  23.3636   O.2       2 RES2   0.0000
   112 O6      -0.1871   0.9949  23.0979   O.2       2 RES2   0.0000
   113 O7      -0.9804   2.4339  21.5500   O.2       2 RES2   0.0000
   114 O8      -2.6309   2.0553  19.2410   O.3       3 RES3   0.0000
   115 H58     -3.4917   2.0651  19.3751   H         3 RES3   0.0000
   116 H59     -2.4478   1.6554  19.7621   H         3 RES3   0.0000
@<TRIPOS>BOND
     1     1     2    1
     2     2    52    1
     3     3     1    1
     4     4    45    2
     5     5     1    1
     6     6     1    1
     7     7    17    1
     8     8     1    1
     9     9    28    1
    10    10     1    1
    11    11    39    1
    12    12     5    1
    13    13     6   ar
    14    14    13   ar
    15    15    14   ar
    16    16    15   ar
    17    17     6   ar
    18    18     7    1
    19    19    18    1
    20    20    19    1
    21    21    19    1
    22    22    19    1
    23    23     5    1
    24    24     8   ar
    25    25    24   ar
    26    26    25   ar
    27    27    26   ar
    28    28     8   ar
    29    29     9    1
    30    30    29    1
    31    31    30    1
    32    32    30    1
    33    33    30    1
    34    34     5    1
    35    35    10    2
    36    36    35    1
    37    37    36    2
    38    38    37    1
    39    39    10    1
    40    40    11    1
    41    41    40    1
    42    42    41    1
    43    43    41    1
    44    44    41    1
    45    45     3    1
    46    46    45    1
    47    47    46   ar
    48    48    47   ar
    49    49    48   ar
    50    50    49   ar
    51    51    46   ar
    52    53     7    1
    53    54     9    1
    54    55    11    1
    55    56    12    1
    56    57    12    1
    57    58    14    1
    58    59    15    1
    59    60    16    1
    60    61    18    1
    61    62    18    1
    62    63    20    1
    63    64    20    1
    64    65    20    1
    65    66    21    1
    66    67    21    1
    67    68    21    1
    68    69    22    1
    69    70    22    1
    70    71    22    1
    71    72    23    1
    72    73    23    1
    73    74    25    1
    74    75    26    1
    75    76    27    1
    76    77    29    1
    77    78    29    1
    78    79    31    1
    79    80    31    1
    80    81    31    1
    81    82    32    1
    82    83    32    1
    83    84    32    1
    84    85    33    1
    85    86    33    1
    86    87    33    1
    87    88    34    1
    88    89    34    1
    89    90    36    1
    90    91    37    1
    91    92    38    1
    92    93    40    1
    93    94    40    1
    94    95    42    1
    95    96    42    1
    96    97    42    1
    97    98    43    1
    98    99    43    1
    99   100    43    1
   100   101    44    1
   101   102    44    1
   102   103    44    1
   103   104    47    1
   104   105    48    1
   105   106    49    1
   106   107    50    1
   107   108    51    1
   108    12    13    1
   109    16    17   ar
   110    23    24    1
   111    27    28   ar
   112    34    35    1
   113    38    39    2
   114    50    51   ar
   115   109   110    1
   116   111   109    2
   117   112   109    2
   118   113   109    2
   119   114   115    1
   120   116   114    1
@<TRIPOS>SUBSTRUCTURE
     1 RES1        1 GROUP             0 ****  ****    0  
     2 RES2      109 GROUP             0 ****  ****    0  
     3 RES3      114 GROUP             0 ****  ****    0  
@<TRIPOS>CRYSIN
   10.7200   16.3900   26.2300   90.0000  100.4000   90.0000    14     1
