@<TRIPOS>MOLECULE
PUFQOZ
   111   120     4     0     0
SMALL
NO_CHARGES
****
Generated from the CSD

@<TRIPOS>ATOM
     1 Fe1      5.2691   7.1525   7.9381   Fe        1 RES1   0.0000
     2 N1       5.4255   8.3006   9.5416   N.ar      1 RES1   0.0000
     3 N2       7.2401   6.7901   8.0483   N.3       1 RES1   0.0000
     4 H1       7.6917   7.5749   8.1337   H         1 RES1   0.0000
     5 H2       7.4170   6.2789   8.7801   H         1 RES1   0.0000
     6 N3       3.2946   7.4038   7.7342   N.ar      1 RES1   0.0000
     7 O1       7.3998   4.7716  10.0848   O.2       1 RES1   0.0000
     8 O2       2.9157   1.8609  11.1231   O.2       1 RES1   0.0000
     9 N4       5.5992   8.8865   6.9960   N.2       1 RES1   0.0000
    10 N5       4.6729   5.5531   9.0077   N.2       1 RES1   0.0000
    11 C1       3.3185   5.3974   8.9335   C.2       1 RES1   0.0000
    12 C2       2.5334   6.4066   8.2464   C.ar      1 RES1   0.0000
    13 C3       5.0471   4.4899   9.8031   C.2       1 RES1   0.0000
    14 C4       0.4885   7.4360   7.5763   C.ar      1 RES1   0.0000
    15 H3      -0.4601   7.4522   7.5223   H         1 RES1   0.0000
    16 C5       6.3960   2.9671  11.2515   C.ar      1 RES1   0.0000
    17 C6       3.9095   2.5456  10.9343   C.2       1 RES1   0.0000
    18 C7       3.9050   3.7532  10.1265   C.2       1 RES1   0.0000
    19 C8       1.2492   8.4564   7.0394   C.ar      1 RES1   0.0000
    20 H4       0.8251   9.1902   6.6092   H         1 RES1   0.0000
    21 C9       2.6322   8.4112   7.1276   C.ar      1 RES1   0.0000
    22 H5       3.1362   9.1195   6.7434   H         1 RES1   0.0000
    23 C10      1.1484   6.3946   8.1922   C.ar      1 RES1   0.0000
    24 H6       0.6597   5.6756   8.5762   H         1 RES1   0.0000
    25 C11      6.3657   4.1457  10.3262   C.2       1 RES1   0.0000
    26 C12      5.2386   2.2024  11.5409   C.ar      1 RES1   0.0000
    27 C13      7.6062   2.6174  11.8597   C.ar      1 RES1   0.0000
    28 H7       8.3937   3.1083  11.6565   H         1 RES1   0.0000
    29 C14      7.6676   1.5700  12.7479   C.ar      1 RES1   0.0000
    30 H8       8.4928   1.3493  13.1632   H         1 RES1   0.0000
    31 C15      6.5280   0.8330  13.0389   C.ar      1 RES1   0.0000
    32 H9       6.5715   0.1085  13.6510   H         1 RES1   0.0000
    33 C16      5.3301   1.1583  12.4353   C.ar      1 RES1   0.0000
    34 H10      4.5535   0.6516  12.6401   H         1 RES1   0.0000
    35 C17      5.5252   9.5492   5.7751   C.2       1 RES1   0.0000
    36 C18      5.4931  10.9179   6.0382   C.2       1 RES1   0.0000
    37 C19      5.6107   9.9257   7.8889   C.2       1 RES1   0.0000
    38 C20      5.3138  11.9336   4.9844   C.2       1 RES1   0.0000
    39 C21      5.4401   7.9096  10.8167   C.ar      1 RES1   0.0000
    40 H11      5.3517   6.9830  11.0080   H         1 RES1   0.0000
    41 C22      4.8514  12.2764   2.5920   C.ar      1 RES1   0.0000
    42 H12      4.7998  13.2095   2.7649   H         1 RES1   0.0000
    43 C23      5.5548   8.9974   4.4396   C.2       1 RES1   0.0000
    44 C24      5.7259  10.1614  11.6075   C.ar      1 RES1   0.0000
    45 H13      5.8239  10.7883  12.3135   H         1 RES1   0.0000
    46 C25      5.7252  10.5696  10.3030   C.ar      1 RES1   0.0000
    47 H14      5.8152  11.4913  10.0888   H         1 RES1   0.0000
    48 C26      5.2397  10.0103   3.3533   C.ar      1 RES1   0.0000
    49 C27      5.1487  11.3878   3.6102   C.ar      1 RES1   0.0000
    50 C28      5.5948   9.6335   9.3002   C.ar      1 RES1   0.0000
    51 C29      5.0154   9.5407   2.0643   C.ar      1 RES1   0.0000
    52 H15      5.0779   8.6116   1.8791   H         1 RES1   0.0000
    53 C30      5.5787   8.7924  11.8767   C.ar      1 RES1   0.0000
    54 H16      5.5732   8.4757  12.7717   H         1 RES1   0.0000
    55 C31      4.7027  10.4282   1.0507   C.ar      1 RES1   0.0000
    56 H17      4.5380  10.1020   0.1736   H         1 RES1   0.0000
    57 C32      4.6285  11.7812   1.3030   C.ar      1 RES1   0.0000
    58 H18      4.4232  12.3815   0.5964   H         1 RES1   0.0000
    59 N6       2.7975   4.3319   9.5726   N.2       1 RES1   0.0000
    60 N7       5.5615  11.1708   7.3504   N.2       1 RES1   0.0000
    61 O3       5.8228   7.8392   4.1487   O.2       1 RES1   0.0000
    62 O4       5.2542  13.1350   5.2242   O.2       1 RES1   0.0000
    63 N8       5.3493   5.9584   6.3167   N.3       1 RES1   0.0000
    64 H19      4.6139   5.4233   6.2830   H         1 RES1   0.0000
    65 H20      5.3771   6.4594   5.5575   H         1 RES1   0.0000
    66 C33      7.6918   6.0854   6.8274   C.3       1 RES1   0.0000
    67 H21      8.5239   5.5810   7.0087   H         1 RES1   0.0000
    68 H22      7.8664   6.7334   6.1002   H         1 RES1   0.0000
    69 C34      6.5747   5.1380   6.4343   C.3       1 RES1   0.0000
    70 H23      6.7813   4.7000   5.5704   H         1 RES1   0.0000
    71 H24      6.4567   4.4373   7.1235   H         1 RES1   0.0000
    72 O5       5.5324   3.2578   1.8214   O.3       2 RES2   0.0000
    73 O6       5.8985   5.9909   1.1420   O.3       2 RES2   0.0000
    74 C35      4.8061   5.5381   1.9188   C.3       2 RES2   0.0000
    75 H25      4.0383   5.3459   1.3242   H         2 RES2   0.0000
    76 H26      4.5331   6.2525   2.5482   H         2 RES2   0.0000
    77 C36      6.3313   4.9290   0.2863   C.3       2 RES2   0.0000
    78 H27      7.1452   5.2144  -0.2007   H         2 RES2   0.0000
    79 H28      5.6267   4.7424  -0.3835   H         2 RES2   0.0000
    80 C37      5.1516   4.3181   2.6833   C.3       2 RES2   0.0000
    81 H29      5.8964   4.5194   3.3040   H         2 RES2   0.0000
    82 H30      4.3712   4.0370   3.2239   H         2 RES2   0.0000
    83 C38      6.6307   3.6729   1.0492   C.3       2 RES2   0.0000
    84 H31      6.8725   2.9537   0.4141   H         2 RES2   0.0000
    85 H32      7.4065   3.8288   1.6440   H         2 RES2   0.0000
    86 O7       0.2925   2.7348   2.4403   O.3       3 RES3   0.0000
    87 O8      -0.1861   2.6224  -0.3343   O.3       3 RES3   0.0000
    88 C39     -1.0009   2.5339   1.8941   C.3       3 RES3   0.0000
    89 H33     -1.4490   3.4105   1.7866   H         3 RES3   0.0000
    90 H34     -1.5406   1.9926   2.5243   H         3 RES3   0.0000
    91 C40      1.0374   3.5060   1.5258   C.3       3 RES3   0.0000
    92 H35      1.9507   3.6404   1.8835   H         3 RES3   0.0000
    93 H36      0.6138   4.3959   1.4322   H         3 RES3   0.0000
    94 C41     -0.9488   1.8433   0.5726   C.3       3 RES3   0.0000
    95 H37     -0.5348   0.9494   0.6774   H         3 RES3   0.0000
    96 H38     -1.8656   1.7205   0.2207   H         3 RES3   0.0000
    97 C42      1.1243   2.8744   0.2120   C.3       3 RES3   0.0000
    98 H39      1.6278   3.4654  -0.4035   H         3 RES3   0.0000
    99 H40      1.6190   2.0209   0.2890   H         3 RES3   0.0000
   100 N9       3.7229  -0.3435   3.3936   N.am      4 RES4   0.0000
   101 C43      3.5140  -0.8128   2.2005   C.2       4 RES4   0.0000
   102 H41      3.3778  -0.1315   1.5511   H         4 RES4   0.0000
   103 O9       3.4576  -1.9186   1.7393   O.2       4 RES4   0.0000
   104 C44      3.8999  -1.0401   4.4675   C.3       4 RES4   0.0000
   105 H42      3.2823  -0.7328   5.1633   H         4 RES4   0.0000
   106 H43      4.8231  -0.9315   4.7791   H         4 RES4   0.0000
   107 H44      3.7304  -1.9864   4.2751   H         4 RES4   0.0000
   108 C45      3.7296   0.9970   3.4137   C.3       4 RES4   0.0000
   109 H45      3.3267   1.3383   2.5887   H         4 RES4   0.0000
   110 H46      4.6531   1.3178   3.4839   H         4 RES4   0.0000
   111 H47      3.2146   1.3151   4.1850   H         4 RES4   0.0000
@<TRIPOS>BOND
     1     1     2    1
     2     2    39   ar
     3     3     1    1
     4     4     3    1
     5     5     3    1
     6     6     1    1
     7     7    25    2
     8     8    17    2
     9     9     1    1
    10    10     1    1
    11    11    10    1
    12    12     6   ar
    13    13    10    1
    14    14    15    1
    15    16    25    1
    16    17    18    1
    17    18    13    2
    18    19    14   ar
    19    20    19    1
    20    21     6   ar
    21    22    21    1
    22    23    12   ar
    23    24    23    1
    24    25    13    1
    25    26    16   ar
    26    27    16   ar
    27    28    27    1
    28    29    27   ar
    29    30    29    1
    30    31    29   ar
    31    32    31    1
    32    33    26   ar
    33    34    33    1
    34    35     9    1
    35    36    35    2
    36    37     9    1
    37    38    36    1
    38    39    40    1
    39    41    42    1
    40    43    35    1
    41    44    45    1
    42    46    44   ar
    43    47    46    1
    44    48    43    1
    45    49    38    1
    46    50     2   ar
    47    51    48   ar
    48    52    51    1
    49    53    39   ar
    50    54    53    1
    51    55    51   ar
    52    56    55    1
    53    57    41   ar
    54    58    57    1
    55    59    11    2
    56    60    36    1
    57    61    43    2
    58    62    38    2
    59    63     1    1
    60    64    63    1
    61    65    63    1
    62    66     3    1
    63    67    66    1
    64    68    66    1
    65    69    63    1
    66    70    69    1
    67    71    69    1
    68    11    12    1
    69    14    23   ar
    70    17    26    1
    71    18    59    1
    72    19    21   ar
    73    31    33   ar
    74    37    50    1
    75    37    60    2
    76    41    49   ar
    77    44    53   ar
    78    46    50   ar
    79    48    49   ar
    80    55    57   ar
    81    66    69    1
    82    72    80    1
    83    73    74    1
    84    74    75    1
    85    76    74    1
    86    77    73    1
    87    78    77    1
    88    79    77    1
    89    80    74    1
    90    81    80    1
    91    82    80    1
    92    83    72    1
    93    84    83    1
    94    85    83    1
    95    77    83    1
    96    86    88    1
    97    87    94    1
    98    88    89    1
    99    90    88    1
   100    91    86    1
   101    92    91    1
   102    93    91    1
   103    94    88    1
   104    95    94    1
   105    96    94    1
   106    97    87    1
   107    98    97    1
   108    99    97    1
   109    91    97    1
   110   100   101   am
   111   101   102    1
   112   103   101    2
   113   104   100    1
   114   105   104    1
   115   106   104    1
   116   107   104    1
   117   108   100    1
   118   109   108    1
   119   110   108    1
   120   111   108    1
@<TRIPOS>SUBSTRUCTURE
     1 RES1        1 GROUP             0 ****  ****    0  
     2 RES2       72 GROUP             0 ****  ****    0  
     3 RES3       86 GROUP             0 ****  ****    0  
     4 RES4      100 GROUP             0 ****  ****    0  
@<TRIPOS>CRYSIN
   11.0880   12.3980   16.2390  101.5440  100.7910  100.5660     2     1
