@<TRIPOS>MOLECULE
PUWTIK
   168   184     4     0     0
SMALL
NO_CHARGES
****
Generated from the CSD

@<TRIPOS>ATOM
     1 Fe1      0.0521   5.9968   9.6827   Fe        1 RES1   0.0000
     2 Fe2     -1.4740   2.9732   8.8208   Fe        1 RES1   0.0000
     3 Fe3     -0.6949   5.2895   6.3451   Fe        1 RES1   0.0000
     4 Fe4      1.3108   3.8130   8.0616   Fe        1 RES1   0.0000
     5 S1      -0.3051   2.9732   6.7412   S.3       1 RES1   0.0000
     6 S2       1.1741   6.0006   7.5958   S.3       1 RES1   0.0000
     7 S3       0.3850   3.6894  10.0898   S.3       1 RES1   0.0000
     8 S4      -1.7647   5.2554   8.4064   S.3       1 RES1   0.0000
     9 Cl1      3.3642   2.9555   7.9406   Cl        1 RES1   0.0000
    10 P1       0.5397   5.1697   4.4379   P.3       1 RES1   0.0000
    11 P2      -0.9519   0.7981   9.2793   P.3       1 RES1   0.0000
    12 P3       1.9422   6.5869  10.8124   P.3       1 RES1   0.0000
    13 O1      -1.2314   8.1341   5.9894   O.2       1 RES1   0.0000
    14 O2      -3.2511   4.5468   5.1421   O.2       1 RES1   0.0000
    15 O3      -3.8129   2.2444   7.2217   O.2       1 RES1   0.0000
    16 O4      -3.0618   3.2834  11.2525   O.2       1 RES1   0.0000
    17 O5      -0.6253   8.7557   9.0446   O.2       1 RES1   0.0000
    18 O6      -1.5101   5.9250  12.1438   O.2       1 RES1   0.0000
    19 C1      -1.0308   7.0144   6.1177   C.1       1 RES1   0.0000
    20 C2      -2.2307   4.8116   5.5822   C.1       1 RES1   0.0000
    21 C3      -2.8906   2.5243   7.8489   C.1       1 RES1   0.0000
    22 C4      -2.4298   3.1384  10.3172   C.1       1 RES1   0.0000
    23 C5      -0.3477   7.6726   9.3050   C.1       1 RES1   0.0000
    24 C6      -0.9011   5.9552  11.1902   C.1       1 RES1   0.0000
    25 C13      0.9539   6.7546   3.6200   C.3       1 RES1   0.0000
    26 C14      1.9499   7.6184   4.4159   C.3       1 RES1   0.0000
    27 C15     -0.2038   4.1673   3.0955   C.3       1 RES1   0.0000
    28 C16     -1.3080   4.8872   2.3070   C.3       1 RES1   0.0000
    29 C17      2.1746   4.3741   4.6947   C.3       1 RES1   0.0000
    30 C18      3.0879   4.2921   3.4953   C.3       1 RES1   0.0000
    31 C19     -1.4844   0.2257  10.9444   C.3       1 RES1   0.0000
    32 C20     -0.7631   0.8738  12.1218   C.3       1 RES1   0.0000
    33 C21      0.8418   0.4375   9.2279   C.3       1 RES1   0.0000
    34 C22      1.2515  -0.9974   9.5874   C.3       1 RES1   0.0000
    35 C23     -1.7035  -0.4854   8.2120   C.3       1 RES1   0.0000
    36 C24     -1.1988  -0.5384   6.7852   C.3       1 RES1   0.0000
    37 C25      1.6814   8.0118  11.9237   C.3       1 RES1   0.0000
    38 C26      2.9286   8.5565  12.6279   C.3       1 RES1   0.0000
    39 C27      2.6965   5.2945  11.8723   C.3       1 RES1   0.0000
    40 C28      1.8553   4.8116  13.0460   C.3       1 RES1   0.0000
    41 C29      3.3837   7.0749   9.7928   C.3       1 RES1   0.0000
    42 C30      3.1867   8.3799   9.0225   C.3       1 RES1   0.0000
    43 Fe5      4.8276  12.5611  -0.3998   Fe        2 RES2   0.0000
    44 Fe6      5.5534  11.8663   2.9598   Fe        2 RES2   0.0000
    45 Fe7      3.5274  10.3911   1.2177   Fe        2 RES2   0.0000
    46 Fe8      6.3753   9.5690   0.4841   Fe        2 RES2   0.0000
    47 S5       5.1717   9.5715   2.5234   S.3       2 RES2   0.0000
    48 S6       4.4999  10.2536  -0.8032   S.3       2 RES2   0.0000
    49 S7       6.6337  11.8550   0.8876   S.3       2 RES2   0.0000
    50 S8       3.6726  12.5712   1.6871   S.3       2 RES2   0.0000
    51 Cl2      1.4739   9.5274   1.3387   Cl        2 RES2   0.0000
    52 P4       5.8744   7.3712   0.1394   P.3       2 RES2   0.0000
    53 P5       2.9694  13.1449  -1.5808   P.3       2 RES2   0.0000
    54 P6       4.4807  11.6066   4.9477   P.3       2 RES2   0.0000
    55 O7       8.7173   8.9499   2.1199   O.2       2 RES2   0.0000
    56 O8       7.9388   9.7531  -1.9622   O.2       2 RES2   0.0000
    57 O9       6.4457  12.4741  -2.8241   O.2       2 RES2   0.0000
    58 O10      5.5545  15.3098   0.2384   O.2       2 RES2   0.0000
    59 O11      5.9360  14.7134   3.4476   O.2       2 RES2   0.0000
    60 O12      8.1970  11.3771   4.1042   O.2       2 RES2   0.0000
    61 C7       7.7957   9.1743   1.4818   C.1       2 RES2   0.0000
    62 C8       7.3325   9.6862  -1.0160   C.1       2 RES2   0.0000
    63 C9       5.8091  12.5106  -1.8852   C.1       2 RES2   0.0000
    64 C10      5.2232  14.2456   0.0257   C.1       2 RES2   0.0000
    65 C11      5.7834  13.6013   3.2422   C.1       2 RES2   0.0000
    66 C12      7.1329  11.5057   3.6934   C.1       2 RES2   0.0000
    67 C31      4.0787   6.9967   0.3228   C.3       2 RES2   0.0000
    68 C32      3.6482   5.5782   0.0110   C.3       2 RES2   0.0000
    69 C33      6.7164   6.1494   1.2213   C.3       2 RES2   0.0000
    70 C34      6.4456   6.2490   2.7031   C.3       2 RES2   0.0000
    71 C35      6.3348   6.7206  -1.5001   C.3       2 RES2   0.0000
    72 C36      5.5786   7.3094  -2.6811   C.3       2 RES2   0.0000
    73 C37      1.4918  13.6303  -0.5795   C.3       2 RES2   0.0000
    74 C38      1.6678  14.9518   0.1760   C.3       2 RES2   0.0000
    75 C39      2.2144  11.8600  -2.6297   C.3       2 RES2   0.0000
    76 C40      3.0993  11.4099  -3.8327   C.3       2 RES2   0.0000
    77 C41      3.2657  14.5445  -2.6628   C.3       2 RES2   0.0000
    78 C42      2.0539  15.0841  -3.4366   C.3       2 RES2   0.0000
    79 C43      2.6636  11.7957   4.9367   C.3       2 RES2   0.0000
    80 C44      2.1884  13.2205   4.8377   C.3       2 RES2   0.0000
    81 C45      4.6605   9.9485   5.7289   C.3       2 RES2   0.0000
    82 C46      6.0971   9.5601   6.0590   C.3       2 RES2   0.0000
    83 C47      5.0970  12.7275   6.2681   C.3       2 RES2   0.0000
    84 C48      4.6450  12.4047   7.6948   C.3       2 RES2   0.0000
    85 Fe9     10.3245   6.6613  12.0704   Fe        3 RES3   0.0000
    86 Fe10     8.3773   7.9903  10.1669   Fe        3 RES3   0.0000
    87 Fe11    11.2268   8.7040   9.3930   Fe        3 RES3   0.0000
    88 Fe12     9.7026   5.6299   8.7878   Fe        3 RES3   0.0000
    89 S9       9.3663   7.8945   8.1460   S.3       3 RES3   0.0000
    90 S10     11.4640   6.4810  10.0532   S.3       3 RES3   0.0000
    91 S11      8.4773   5.8417  10.8050   S.3       3 RES3   0.0000
    92 S12      9.9942   8.9183  11.4212   S.3       3 RES3   0.0000
    93 Cl3      6.4055   9.0306  10.3172   Cl        3 RES3   0.0000
    94 P7       9.0979   7.0043  13.9739   P.3       3 RES3   0.0000
    95 P8      10.7669  10.8538   8.7915   P.3       3 RES3   0.0000
    96 P9       7.8860   4.9276   7.5921   P.3       3 RES3   0.0000
    97 O13     10.9338   3.8848  12.7416   O.2       3 RES3   0.0000
    98 O14     12.7787   7.5906  13.3358   O.2       3 RES3   0.0000
    99 O15     12.8875   8.3018   7.0236   O.2       3 RES3   0.0000
   100 O16     13.6030   9.4126  10.9261   O.2       3 RES3   0.0000
   101 O17     11.4272   5.6589   6.4331   O.2       3 RES3   0.0000
   102 O18     10.3662   2.9265   9.6534   O.2       3 RES3   0.0000
   103 C49     10.6753   4.9616  12.4739   C.1       3 RES3   0.0000
   104 C50     11.8015   7.2413  12.8590   C.1       3 RES3   0.0000
   105 C51     12.2206   8.4518   7.9369   C.1       3 RES3   0.0000
   106 C52     12.6593   9.1667  10.3392   C.1       3 RES3   0.0000
   107 C53     10.7471   5.6160   7.3464   C.1       3 RES3   0.0000
   108 C54     10.0811   3.9744   9.3050   C.1       3 RES3   0.0000
   109 C61      9.5098   8.5993  14.7882   C.3       3 RES3   0.0000
   110 C62      8.8576   8.8843  16.1489   C.3       3 RES3   0.0000
   111 C63      9.3307   5.7774  15.3053   C.3       3 RES3   0.0000
   112 C64     10.7256   5.7384  15.9032   C.3       3 RES3   0.0000
   113 C65      7.2666   7.0623  13.7759   C.3       3 RES3   0.0000
   114 C66      6.6037   5.6791  13.7392   C.3       3 RES3   0.0000
   115 C67      8.9809  11.2334   8.7585   C.3       3 RES3   0.0000
   116 C68      8.6098  12.6506   8.3293   C.3       3 RES3   0.0000
   117 C69     11.4903  12.1904   9.8184   C.3       3 RES3   0.0000
   118 C70     10.8856  12.3530  11.1938   C.3       3 RES3   0.0000
   119 C71     11.3983  11.3506   7.1263   C.3       3 RES3   0.0000
   120 C72     10.7316  10.6521   5.9710   C.3       3 RES3   0.0000
   121 C73      8.2474   4.6086   5.8353   C.3       3 RES3   0.0000
   122 C74      9.1489   3.3918   5.5712   C.3       3 RES3   0.0000
   123 C75      7.1042   3.3313   8.0616   C.3       3 RES3   0.0000
   124 C76      6.5362   3.2619   9.4627   C.3       3 RES3   0.0000
   125 C77      6.4952   6.1078   7.5701   C.3       3 RES3   0.0000
   126 C78      5.3398   5.8481   6.6239   C.3       3 RES3   0.0000
   127 Fe13    10.1702   3.1813  -0.2494   Fe        4 RES4   0.0000
   128 Fe14    13.0268   4.0563  -0.8802   Fe        4 RES4   0.0000
   129 Fe15    11.0476   5.5833  -2.6151   Fe        4 RES4   0.0000
   130 Fe16    11.6392   6.1721   0.7776   Fe        4 RES4   0.0000
   131 S13     12.8962   6.2692  -1.2544   S.3       4 RES4   0.0000
   132 S14      9.8950   5.4748  -0.5978   S.3       4 RES4   0.0000
   133 S15     12.0003   3.8571   1.1076   S.3       4 RES4   0.0000
   134 S16     11.4232   3.2645  -2.2703   S.3       4 RES4   0.0000
   135 Cl4     15.0715   3.1497  -0.9683   Cl        4 RES4   0.0000
   136 P10     12.2769   5.4181  -4.5259   P.3       4 RES4   0.0000
   137 P11     13.4487   6.7294   2.0649   P.3       4 RES4   0.0000
   138 P12     10.6823   0.9797   0.0917   P.3       4 RES4   0.0000
   139 O19      8.4996   4.9150  -3.8584   O.2       4 RES4   0.0000
   140 O20     10.5890   8.4455  -2.9672   O.2       4 RES4   0.0000
   141 O21     10.9416   8.9247   0.0954   O.2       4 RES4   0.0000
   142 O22      9.9469   6.0675   3.1432   O.2       4 RES4   0.0000
   143 O23      8.5113   3.3162   2.1419   O.2       4 RES4   0.0000
   144 O24      7.8494   2.5470  -1.9072   O.2       4 RES4   0.0000
   145 C55      9.5219   5.1558  -3.4146   C.1       4 RES4   0.0000
   146 C56     10.7710   7.3284  -2.8241   C.1       4 RES4   0.0000
   147 C57     11.2231   7.8541   0.3814   C.1       4 RES4   0.0000
   148 C58     10.6019   6.1015   2.2263   C.1       4 RES4   0.0000
   149 C59      9.1690   3.2506   1.2177   C.1       4 RES4   0.0000
   150 C60      8.7631   2.7866  -1.2654   C.1       4 RES4   0.0000
   151 C79     13.9203   4.6729  -4.2472   C.3       4 RES4   0.0000
   152 C80     14.8685   4.5733  -5.4429   C.3       4 RES4   0.0000
   153 C81     11.5291   4.3299  -5.8023   C.3       4 RES4   0.0000
   154 C82     10.4611   4.9906  -6.6899   C.3       4 RES4   0.0000
   155 C83     12.6422   6.9640  -5.4355   C.3       4 RES4   0.0000
   156 C84     13.6101   7.8907  -4.6983   C.3       4 RES4   0.0000
   157 C85     13.7309   8.5325   2.2226   C.3       4 RES4   0.0000
   158 C86     12.7178   9.2462   3.0992   C.3       4 RES4   0.0000
   159 C87     13.4178   6.2213   3.8291   C.3       4 RES4   0.0000
   160 C88     13.4896   4.7195   4.0932   C.3       4 RES4   0.0000
   161 C89     15.0482   6.0952   1.4524   C.3       4 RES4   0.0000
   162 C90     16.2605   6.3196   2.3693   C.3       4 RES4   0.0000
   163 C91      9.8139  -0.2345  -0.9719   C.3       4 RES4   0.0000
   164 C92     10.1961  -0.2131  -2.4427   C.3       4 RES4   0.0000
   165 C93     10.2701   0.3001   1.7348   C.3       4 RES4   0.0000
   166 C94     11.0514   0.8675   2.9195   C.3       4 RES4   0.0000
   167 C95     12.4619   0.5939  -0.1467   C.3       4 RES4   0.0000
   168 C96     12.8444  -0.8738   0.0073   C.3       4 RES4   0.0000
@<TRIPOS>BOND
     1     1     6    1
     2     2     5    1
     3     3     5    1
     4     4     5    1
     5     6     3    1
     6     7     1    1
     7     8     1    1
     8     9     4    1
     9    10     3    1
    10    11     2    1
    11    12     1    1
    12    13    19    3
    13    14    20    3
    14    15    21    3
    15    16    22    3
    16    17    23    3
    17    18    24    3
    18    19     3    1
    19    20     3    1
    20    21     2    1
    21    22     2    1
    22    23     1    1
    23    24     1    1
    24    25    10    1
    25    26    25    1
    26    27    10    1
    27    28    27    1
    28    29    10    1
    29    30    29    1
    30    31    11    1
    31    32    31    1
    32    33    11    1
    33    34    33    1
    34    35    11    1
    35    36    35    1
    36    37    12    1
    37    38    37    1
    38    39    12    1
    39    40    39    1
    40    41    12    1
    41    42    41    1
    42     2     7    1
    43     2     8    1
    44     3     8    1
    45     4     7    1
    46     4     6    1
    47    43    48    1
    48    44    47    1
    49    45    47    1
    50    46    47    1
    51    48    45    1
    52    49    43    1
    53    50    43    1
    54    51    45    1
    55    52    46    1
    56    53    43    1
    57    54    44    1
    58    55    61    3
    59    56    62    3
    60    57    63    3
    61    58    64    3
    62    59    65    3
    63    60    66    3
    64    61    46    1
    65    62    46    1
    66    63    43    1
    67    64    43    1
    68    65    44    1
    69    66    44    1
    70    67    52    1
    71    68    67    1
    72    69    52    1
    73    70    69    1
    74    71    52    1
    75    72    71    1
    76    73    53    1
    77    74    73    1
    78    75    53    1
    79    76    75    1
    80    77    53    1
    81    78    77    1
    82    79    54    1
    83    80    79    1
    84    81    54    1
    85    82    81    1
    86    83    54    1
    87    84    83    1
    88    44    49    1
    89    44    50    1
    90    45    50    1
    91    46    49    1
    92    46    48    1
    93    85    90    1
    94    86    89    1
    95    87    89    1
    96    88    89    1
    97    90    87    1
    98    91    85    1
    99    92    85    1
   100    93    86    1
   101    94    85    1
   102    95    87    1
   103    96    88    1
   104    97   103    3
   105    98   104    3
   106    99   105    3
   107   100   106    3
   108   101   107    3
   109   102   108    3
   110   103    85    1
   111   104    85    1
   112   105    87    1
   113   106    87    1
   114   107    88    1
   115   108    88    1
   116   109    94    1
   117   110   109    1
   118   111    94    1
   119   112   111    1
   120   113    94    1
   121   114   113    1
   122   115    95    1
   123   116   115    1
   124   117    95    1
   125   118   117    1
   126   119    95    1
   127   120   119    1
   128   121    96    1
   129   122   121    1
   130   123    96    1
   131   124   123    1
   132   125    96    1
   133   126   125    1
   134    86    91    1
   135    86    92    1
   136    87    92    1
   137    88    91    1
   138    88    90    1
   139   127   132    1
   140   128   131    1
   141   129   131    1
   142   130   131    1
   143   132   129    1
   144   133   127    1
   145   134   127    1
   146   135   128    1
   147   136   129    1
   148   137   130    1
   149   138   127    1
   150   139   145    3
   151   140   146    3
   152   141   147    3
   153   142   148    3
   154   143   149    3
   155   144   150    3
   156   145   129    1
   157   146   129    1
   158   147   130    1
   159   148   130    1
   160   149   127    1
   161   150   127    1
   162   151   136    1
   163   152   151    1
   164   153   136    1
   165   154   153    1
   166   155   136    1
   167   156   155    1
   168   157   137    1
   169   158   157    1
   170   159   137    1
   171   160   159    1
   172   161   137    1
   173   162   161    1
   174   163   138    1
   175   164   163    1
   176   165   138    1
   177   166   165    1
   178   167   138    1
   179   168   167    1
   180   128   133    1
   181   128   134    1
   182   129   134    1
   183   130   133    1
   184   130   132    1
@<TRIPOS>SUBSTRUCTURE
     1 RES1        1 GROUP             0 ****  ****    0  
     2 RES2       43 GROUP             0 ****  ****    0  
     3 RES3       85 GROUP             0 ****  ****    0  
     4 RES4      127 GROUP             0 ****  ****    0  
@<TRIPOS>CRYSIN
   32.9920   12.6090   39.0480   90.0000  110.0690   90.0000    14     1
