@<TRIPOS>MOLECULE
PUXKEY
    54    60     3     0     0
SMALL
NO_CHARGES
****
Generated from the CSD

@<TRIPOS>ATOM
     1 Fe1      7.9723   4.6019   9.3502   Fe        1 RES1   0.0000
     2 O1       7.8591   6.2339   8.2354   O.3       1 RES1   0.0000
     3 O2       6.6363   5.7092  10.4827   O.2       1 RES1   0.0000
     4 N1       5.3871   8.8476   8.2178   N.pl3     1 RES1   0.0000
     5 C1       6.8499   7.0126   8.5718   C.2       1 RES1   0.0000
     6 C2       6.4218   8.0523   7.7775   C.2       1 RES1   0.0000
     7 C3       4.7279   8.5673   9.3713   C.2       1 RES1   0.0000
     8 C4       5.0874   7.5166  10.1639   C.2       1 RES1   0.0000
     9 C5       6.1851   6.7171   9.8011   C.2       1 RES1   0.0000
    10 C6       6.9830   8.2235   6.3879   C.3       1 RES1   0.0000
    11 C7       6.2058   7.4020   5.3787   C.3       1 RES1   0.0000
    12 C8       5.1010  10.0999   7.5344   C.ar      1 RES1   0.0000
    13 C9       3.9459  10.2503   6.8088   C.ar      1 RES1   0.0000
    14 C10      3.7323  11.4598   6.1519   C.ar      1 RES1   0.0000
    15 C11      4.6474  12.4926   6.2118   C.ar      1 RES1   0.0000
    16 C12      5.7857  12.3048   6.9567   C.ar      1 RES1   0.0000
    17 C13      6.0296  11.1147   7.6225   C.ar      1 RES1   0.0000
    18 C14      4.3899  13.7891   5.4650   C.3       1 RES1   0.0000
    19 O1A      6.6148   3.6892   8.2354   O.3       1 RES1   0.0000
    20 C1A      6.4450   2.4259   8.5718   C.2       1 RES1   0.0000
    21 C2A      5.7586   1.5353   7.7775   C.2       1 RES1   0.0000
    22 N1A      5.5872   0.2416   8.2178   N.pl3     1 RES1   0.0000
    23 C3A      6.1596  -0.1892   9.3713   C.2       1 RES1   0.0000
    24 C4A      6.8898   0.6476  10.1639   C.2       1 RES1   0.0000
    25 C5A      7.0333   1.9979   9.8011   C.2       1 RES1   0.0000
    26 O2A      7.6805   2.8926  10.4827   O.2       1 RES1   0.0000
    27 O1C      9.4406   3.8839   8.2354   O.3       1 RES1   0.0000
    28 C1C     10.6196   4.3685   8.5718   C.2       1 RES1   0.0000
    29 C2C     11.7340   4.2194   7.7775   C.2       1 RES1   0.0000
    30 N1C     12.9401   4.7179   8.2178   N.pl3     1 RES1   0.0000
    31 C3C     13.0270   5.4289   9.3713   C.2       1 RES1   0.0000
    32 C4C     11.9373   5.6429  10.1639   C.2       1 RES1   0.0000
    33 C5C     10.6962   5.0920   9.8011   C.2       1 RES1   0.0000
    34 O2C      9.5977   5.2053  10.4827   O.2       1 RES1   0.0000
    35 C8C     14.1677   4.3396   7.5344   C.ar      1 RES1   0.0000
    36 C9C     14.8756   5.2646   6.8088   C.ar      1 RES1   0.0000
    37 C10C    16.0299   4.8449   6.1519   C.ar      1 RES1   0.0000
    38 C11C    16.4667   3.5360   6.2118   C.ar      1 RES1   0.0000
    39 C12C    15.7349   2.6440   6.9567   C.ar      1 RES1   0.0000
    40 C13C    14.5823   3.0279   7.6225   C.ar      1 RES1   0.0000
    41 C14C    17.7183   3.1107   5.4650   C.3       1 RES1   0.0000
    42 C6C     11.6017   3.6478   6.3879   C.3       1 RES1   0.0000
    43 C7C     11.2789   4.7317   5.3787   C.3       1 RES1   0.0000
    44 C8A      4.6458  -0.6324   7.5344   C.ar      1 RES1   0.0000
    45 C9A      5.0930  -1.7079   6.8088   C.ar      1 RES1   0.0000
    46 C10A     4.1524  -2.4977   6.1519   C.ar      1 RES1   0.0000
    47 C11A     2.8004  -2.2216   6.2118   C.ar      1 RES1   0.0000
    48 C12A     2.3938  -1.1418   6.9567   C.ar      1 RES1   0.0000
    49 C13A     3.3026  -0.3355   7.6225   C.ar      1 RES1   0.0000
    50 C14A     1.8063  -3.0928   5.4650   C.3       1 RES1   0.0000
    51 C6A      5.3297   1.9357   6.3879   C.3       1 RES1   0.0000
    52 C7A      6.4298   1.6734   5.3787   C.3       1 RES1   0.0000
    53 O3       5.6693   5.9315  13.2090   O.3       2 RES2   0.0000
    54 O4       7.9723   4.6019   5.5724   O.3       3 RES3   0.0000
@<TRIPOS>BOND
     1     1     2    1
     2     2     5    1
     3     3     1    1
     4     4     6    1
     5     5     6    2
     6     6    10    1
     7     7     4    1
     8     8     7    2
     9     9     3    2
    10    10    11    1
    11    12     4    1
    12    13    12   ar
    13    14    13   ar
    14    15    14   ar
    15    16    15   ar
    16    17    12   ar
    17    18    15    1
    18    19     1    1
    19    20    19    1
    20    21    20    2
    21    22    21    1
    22    23    22    1
    23    24    23    2
    24    25    20    1
    25    26     1    1
    26    27     1    1
    27    28    27    1
    28    29    28    2
    29    30    29    1
    30    31    30    1
    31    32    31    2
    32    33    28    1
    33    34     1    1
    34    35    30    1
    35    36    35   ar
    36    37    36   ar
    37    38    37   ar
    38    39    38   ar
    39    40    35   ar
    40    41    38    1
    41    42    29    1
    42    43    42    1
    43    44    22    1
    44    45    44   ar
    45    46    45   ar
    46    47    46   ar
    47    48    47   ar
    48    49    44   ar
    49    50    47    1
    50    51    21    1
    51    52    51    1
    52     5     9    1
    53     8     9    1
    54    16    17   ar
    55    24    25    1
    56    25    26    2
    57    32    33    1
    58    33    34    2
    59    39    40   ar
    60    48    49   ar
@<TRIPOS>SUBSTRUCTURE
     1 RES1        1 GROUP             0 ****  ****    0  
     2 RES2       53 GROUP             0 ****  ****    0  
     3 RES3       54 GROUP             0 ****  ****    0  
@<TRIPOS>CRYSIN
   15.9430   15.9430   17.6120   90.0000   90.0000  120.0000   163     1
