@<TRIPOS>MOLECULE
PUZGOJ
   102   105     3     0     0
SMALL
NO_CHARGES
****
Generated from the CSD

@<TRIPOS>ATOM
     1 Fe1     -5.9039   0.0000   7.2124   Fe        1 RES1   0.0000
     2 S1      -2.5690   2.8438   4.9937   S.2       1 RES1   0.0000
     3 O1      -2.2404  -1.4802  13.3797   O.2       1 RES1   0.0000
     4 O2      -0.4549   4.3046  15.9538   O.2       1 RES1   0.0000
     5 N1      -4.4612   1.1420   6.1666   N.2       1 RES1   0.0000
     6 N2      -4.6430   0.1414   9.0486   N.ar      1 RES1   0.0000
     7 N3      -2.5219   0.6412  12.6404   N.am      1 RES1   0.0000
     8 H1      -2.3795   1.4664  12.8364   H         1 RES1   0.0000
     9 N4       1.7038   3.6007  15.6955   N.am      1 RES1   0.0000
    10 H2       2.1943   2.8953  15.7343   H         1 RES1   0.0000
    11 N5       3.8475   7.1036  14.8863   N.ar      1 RES1   0.0000
    12 C1      -3.6754   1.8419   5.6819   C.1       1 RES1   0.0000
    13 C2      -3.9360   1.2363   9.3371   C.ar      1 RES1   0.0000
    14 H3      -3.9263   1.9251   8.7137   H         1 RES1   0.0000
    15 C3      -3.2252   1.4071  10.4940   C.ar      1 RES1   0.0000
    16 H4      -2.7553   2.1961  10.6442   H         1 RES1   0.0000
    17 C4      -3.2113   0.3917  11.4431   C.ar      1 RES1   0.0000
    18 C5      -3.9026  -0.7745  11.1417   C.ar      1 RES1   0.0000
    19 H5      -3.8932  -1.4963  11.7280   H         1 RES1   0.0000
    20 C6      -4.6019  -0.8446   9.9574   C.ar      1 RES1   0.0000
    21 H6      -5.0751  -1.6235   9.7758   H         1 RES1   0.0000
    22 C7      -1.2377   0.2426  14.6671   C.ar      1 RES1   0.0000
    23 C8      -0.9449   1.5922  14.8503   C.ar      1 RES1   0.0000
    24 H7      -1.3572   2.2373  14.3236   H         1 RES1   0.0000
    25 C9      -0.0288   1.9623  15.8268   C.ar      1 RES1   0.0000
    26 C10      0.5396   1.0189  16.6649   C.ar      1 RES1   0.0000
    27 H8       1.1612   1.2834  17.3039   H         1 RES1   0.0000
    28 C11      0.1905  -0.3217  16.5567   C.ar      1 RES1   0.0000
    29 C12     -0.6866  -0.6972  15.5426   C.ar      1 RES1   0.0000
    30 H9      -0.9115  -1.5941  15.4460   H         1 RES1   0.0000
    31 C13     -2.0535  -0.2839  13.5261   C.2       1 RES1   0.0000
    32 C14      0.3646   3.4071  15.8614   C.2       1 RES1   0.0000
    33 C15      2.3737   4.7980  15.4691   C.ar      1 RES1   0.0000
    34 C16      1.7628   6.0380  15.3955   C.ar      1 RES1   0.0000
    35 H10      0.8475   6.1235  15.5374   H         1 RES1   0.0000
    36 C17      2.5263   7.1359  15.1099   C.ar      1 RES1   0.0000
    37 H11      2.0996   7.9619  15.0681   H         1 RES1   0.0000
    38 C18      4.4167   5.8960  14.9310   C.ar      1 RES1   0.0000
    39 H12      5.3274   5.8358  14.7525   H         1 RES1   0.0000
    40 C19      3.7426   4.7459  15.2210   C.ar      1 RES1   0.0000
    41 H13      4.1936   3.9328  15.2536   H         1 RES1   0.0000
    42 C20      0.7322  -1.3352  17.5174   C.3       1 RES1   0.0000
    43 H14      1.5129  -0.9803  17.9498   H         1 RES1   0.0000
    44 H15      0.9654  -2.1348  17.0414   H         1 RES1   0.0000
    45 H16      0.0656  -1.5379  18.1779   H         1 RES1   0.0000
    46 S1B     -9.2389  -2.8438   9.4310   S.2       1 RES1   0.0000
    47 O1B     -9.5675   1.4802   1.0451   O.2       1 RES1   0.0000
    48 O2B    -11.3530  -4.3046  -1.5290   O.2       1 RES1   0.0000
    49 N1B     -7.3466  -1.1420   8.2582   N.2       1 RES1   0.0000
    50 N2B     -7.1649  -0.1414   5.3761   N.ar      1 RES1   0.0000
    51 N3B     -9.2860  -0.6412   1.7843   N.am      1 RES1   0.0000
    52 H1B     -9.4284  -1.4664   1.5884   H         1 RES1   0.0000
    53 N4B    -13.5117  -3.6007  -1.2708   N.am      1 RES1   0.0000
    54 H2B    -14.0022  -2.8953  -1.3096   H         1 RES1   0.0000
    55 N5B    -15.6554  -7.1036  -0.4616   N.ar      1 RES1   0.0000
    56 C1B     -8.1325  -1.8419   8.7428   C.1       1 RES1   0.0000
    57 C2B     -7.8719  -1.2363   5.0876   C.ar      1 RES1   0.0000
    58 H3B     -7.8816  -1.9251   5.7110   H         1 RES1   0.0000
    59 C3B     -8.5827  -1.4071   3.9307   C.ar      1 RES1   0.0000
    60 H4B     -9.0526  -2.1961   3.7805   H         1 RES1   0.0000
    61 C4B     -8.5966  -0.3917   2.9816   C.ar      1 RES1   0.0000
    62 C5B     -7.9052   0.7745   3.2831   C.ar      1 RES1   0.0000
    63 H5B     -7.9146   1.4963   2.6967   H         1 RES1   0.0000
    64 C6B     -7.2060   0.8446   4.4673   C.ar      1 RES1   0.0000
    65 H6B     -6.7327   1.6235   4.6490   H         1 RES1   0.0000
    66 C7B    -10.5702  -0.2426  -0.2423   C.ar      1 RES1   0.0000
    67 C8B    -10.8629  -1.5922  -0.4255   C.ar      1 RES1   0.0000
    68 H7B    -10.4506  -2.2373   0.1012   H         1 RES1   0.0000
    69 C9B    -11.7791  -1.9623  -1.4021   C.ar      1 RES1   0.0000
    70 C10B   -12.3475  -1.0189  -2.2402   C.ar      1 RES1   0.0000
    71 H8B    -12.9691  -1.2834  -2.8792   H         1 RES1   0.0000
    72 C11B   -11.9984   0.3217  -2.1320   C.ar      1 RES1   0.0000
    73 C12B   -11.1213   0.6972  -1.1179   C.ar      1 RES1   0.0000
    74 H9B    -10.8964   1.5941  -1.0212   H         1 RES1   0.0000
    75 C13B    -9.7544   0.2839   0.8987   C.2       1 RES1   0.0000
    76 C14B   -12.1725  -3.4071  -1.4367   C.2       1 RES1   0.0000
    77 C15B   -14.1816  -4.7980  -1.0444   C.ar      1 RES1   0.0000
    78 C16B   -13.5707  -6.0380  -0.9708   C.ar      1 RES1   0.0000
    79 H10B   -12.6554  -6.1235  -1.1126   H         1 RES1   0.0000
    80 C17B   -14.3342  -7.1359  -0.6852   C.ar      1 RES1   0.0000
    81 H11B   -13.9075  -7.9619  -0.6433   H         1 RES1   0.0000
    82 C18B   -16.2246  -5.8960  -0.5063   C.ar      1 RES1   0.0000
    83 H12B   -17.1352  -5.8358  -0.3278   H         1 RES1   0.0000
    84 C19B   -15.5505  -4.7459  -0.7962   C.ar      1 RES1   0.0000
    85 H13B   -16.0015  -3.9328  -0.8289   H         1 RES1   0.0000
    86 C20B   -12.5401   1.3352  -3.0927   C.3       1 RES1   0.0000
    87 H14B   -13.3207   0.9803  -3.5250   H         1 RES1   0.0000
    88 H15B   -12.7733   2.1348  -2.6166   H         1 RES1   0.0000
    89 H16B   -11.8734   1.5379  -3.7532   H         1 RES1   0.0000
    90 Fe1A   -16.7370  -8.9851   0.0000   Fe        1 RES1   0.0000
    91 Fe1A     4.9291   8.9851  14.4247   Fe        1 RES1   0.0000
    92 N5A     -4.8223  -1.8815   6.7508   N.3       1 RES1   0.0000
    93 N5C     -6.9856   1.8815   7.6740   N.3       1 RES1   0.0000
    94 O3       1.7462   4.1044   4.0375   O.3       2 RES2   0.0000
    95 H17      2.1586   4.2933   3.3286   H         2 RES2   0.0000
    96 C21      0.4032   4.5141   4.1947   C.3       2 RES2   0.0000
    97 H18      0.1529   4.4433   5.1185   H         2 RES2   0.0000
    98 H19     -0.1662   3.9518   3.6645   H         2 RES2   0.0000
    99 H20      0.3112   5.4252   3.9067   H         2 RES2   0.0000
   100 O4      -2.2215   3.6212  12.6721   O.3       3 RES3   0.0000
   101 H21     -3.0615   3.7302  12.6124   H         3 RES3   0.0000
   102 H22     -1.8158   4.3703  12.5357   H         3 RES3   0.0000
@<TRIPOS>BOND
     1     1     5    1
     2     2    12    2
     3     3    31    2
     4     4    32    2
     5     5    12    2
     6     6     1    1
     7     7     8    1
     8     9    10    1
     9    11    36   ar
    10    13     6   ar
    11    14    13    1
    12    15    13   ar
    13    16    15    1
    14    17     7    1
    15    18    17   ar
    16    19    18    1
    17    20     6   ar
    18    21    20    1
    19    22    23   ar
    20    23    24    1
    21    25    23   ar
    22    26    25   ar
    23    27    26    1
    24    28    26   ar
    25    29    22   ar
    26    30    29    1
    27    31     7   am
    28    32     9   am
    29    33     9    1
    30    34    33   ar
    31    35    34    1
    32    36    34   ar
    33    37    36    1
    34    38    11   ar
    35    39    38    1
    36    40    33   ar
    37    41    40    1
    38    42    28    1
    39    43    42    1
    40    44    42    1
    41    45    42    1
    42    46    56    2
    43    47    75    2
    44    48    76    2
    45    49     1    1
    46    50     1    1
    47    51    52    1
    48    53    54    1
    49    55    80   ar
    50    56    49    2
    51    57    50   ar
    52    58    57    1
    53    59    57   ar
    54    60    59    1
    55    61    51    1
    56    62    61   ar
    57    63    62    1
    58    64    50   ar
    59    65    64    1
    60    66    67   ar
    61    67    68    1
    62    69    67   ar
    63    70    69   ar
    64    71    70    1
    65    72    70   ar
    66    73    66   ar
    67    74    73    1
    68    75    51   am
    69    76    53   am
    70    77    53    1
    71    78    77   ar
    72    79    78    1
    73    80    78   ar
    74    81    80    1
    75    82    55   ar
    76    83    82    1
    77    84    77   ar
    78    85    84    1
    79    86    72    1
    80    87    86    1
    81    88    86    1
    82    89    86    1
    83    90    55   un
    84    91    11   un
    85    92     1   un
    86    93     1   un
    87    15    17   ar
    88    18    20   ar
    89    22    31    1
    90    25    32    1
    91    28    29   ar
    92    38    40   ar
    93    59    61   ar
    94    62    64   ar
    95    66    75    1
    96    69    76    1
    97    72    73   ar
    98    82    84   ar
    99    94    95    1
   100    96    94    1
   101    97    96    1
   102    98    96    1
   103    99    96    1
   104   100   101    1
   105   102   100    1
@<TRIPOS>SUBSTRUCTURE
     1 RES1        1 GROUP             0 ****  ****    0  
     2 RES2       94 GROUP             0 ****  ****    0  
     3 RES3      100 GROUP             0 ****  ****    0  
@<TRIPOS>CRYSIN
    8.3685   17.9701   14.8291   90.0000  103.4110   90.0000   231     1
