@<TRIPOS>MOLECULE
QADFIL
   103   114     1     0     0
SMALL
NO_CHARGES
****
Generated from the CSD

@<TRIPOS>ATOM
     1 Fe1     11.8520   4.3822  17.5872   Fe        1 RES1   0.0000
     2 N1      12.9078   5.3540  16.2444   N.2       1 RES1   0.0000
     3 N2      13.2412   4.6638  18.9478   N.2       1 RES1   0.0000
     4 N3      11.0235   6.0311  18.2101   N.2       1 RES1   0.0000
     5 N4      10.3943   4.1498  16.2890   N.2       1 RES1   0.0000
     6 N5      12.6989   2.7316  16.9539   N.2       1 RES1   0.0000
     7 N6      10.7485   3.3430  18.8531   N.2       1 RES1   0.0000
     8 C1       6.5750   5.4009  22.2717   C.ar      1 RES1   0.0000
     9 H1       6.4782   5.1743  23.1904   H         1 RES1   0.0000
    10 C2       7.8967   5.4067  20.2617   C.ar      1 RES1   0.0000
    11 C3       9.5789   3.7649  19.5012   C.2       1 RES1   0.0000
    12 C4       8.9873   2.6394  20.1493   C.2       1 RES1   0.0000
    13 H2       8.1759   2.6346  20.6440   H         1 RES1   0.0000
    14 C5       7.7355   5.0774  21.6082   C.ar      1 RES1   0.0000
    15 H3       8.4325   4.6270  22.0694   H         1 RES1   0.0000
    16 C6       9.8674   6.1700  18.9708   C.2       1 RES1   0.0000
    17 C7      10.8628   2.0437  19.1162   C.2       1 RES1   0.0000
    18 H4      11.5704   1.4965  18.7976   H         1 RES1   0.0000
    19 C8       9.1680   5.0987  19.5410   C.2       1 RES1   0.0000
    20 C9      10.5391   8.2331  18.3936   C.2       1 RES1   0.0000
    21 H5      10.5996   9.1736  18.2798   H         1 RES1   0.0000
    22 C10      9.8042   1.5778  19.9265   C.2       1 RES1   0.0000
    23 H6       9.6867   0.6935  20.2514   H         1 RES1   0.0000
    24 C11      6.8470   6.0450  19.5970   C.ar      1 RES1   0.0000
    25 H7       6.9406   6.2688  18.6781   H         1 RES1   0.0000
    26 C12     11.4141   7.2684  17.8786   C.2       1 RES1   0.0000
    27 H8      12.1857   7.4669  17.3608   H         1 RES1   0.0000
    28 C13      5.6737   6.3560  20.2611   C.ar      1 RES1   0.0000
    29 H9       4.9596   6.7734  19.7934   H         1 RES1   0.0000
    30 C14      9.5756   7.5512  19.0955   C.2       1 RES1   0.0000
    31 H10      8.8502   7.9338  19.5743   H         1 RES1   0.0000
    32 C15      4.3498   6.4702  22.4017   C.2       1 RES1   0.0000
    33 C16      5.5382   6.0586  21.6080   C.ar      1 RES1   0.0000
    34 C17     13.1946   4.2647  20.2315   C.2       1 RES1   0.0000
    35 H11     12.4657   3.7950  20.6184   H         1 RES1   0.0000
    36 C18     14.4562   5.3244  18.7979   C.2       1 RES1   0.0000
    37 C19     14.1693   5.9298  16.4105   C.2       1 RES1   0.0000
    38 C20     12.5501   5.6218  14.9809   C.2       1 RES1   0.0000
    39 H12     11.7382   5.3273  14.5868   H         1 RES1   0.0000
    40 C21     15.1565   5.2924  20.0298   C.2       1 RES1   0.0000
    41 H13     16.0152   5.6595  20.2031   H         1 RES1   0.0000
    42 C22     14.5400   6.5758  15.1906   C.2       1 RES1   0.0000
    43 H14     15.3472   7.0495  15.0250   H         1 RES1   0.0000
    44 C23     16.2395   6.5293  17.5890   C.ar      1 RES1   0.0000
    45 C24     14.3549   4.6270  20.9243   C.2       1 RES1   0.0000
    46 H15     14.5506   4.4478  21.8361   H         1 RES1   0.0000
    47 C25     13.5151   6.3850  14.3120   C.2       1 RES1   0.0000
    48 H16     13.4649   6.7066  13.4203   H         1 RES1   0.0000
    49 C26     17.2842   5.8823  16.9571   C.ar      1 RES1   0.0000
    50 H17     17.1314   5.0396  16.5471   H         1 RES1   0.0000
    51 C27     14.8869   5.9065  17.5986   C.2       1 RES1   0.0000
    52 O1       4.2254   6.2711  23.5833   O.2       1 RES1   0.0000
    53 O2       3.4270   7.0964  21.6592   O.3       1 RES1   0.0000
    54 C28     18.7828   7.6762  17.4885   C.ar      1 RES1   0.0000
    55 C29     16.4855   7.7585  18.2015   C.ar      1 RES1   0.0000
    56 H18     15.7841   8.2079  18.6582   H         1 RES1   0.0000
    57 C30     18.5474   6.4422  16.9107   C.ar      1 RES1   0.0000
    58 H19     19.2553   5.9782  16.4817   H         1 RES1   0.0000
    59 C31     17.7534   8.3280  18.1469   C.ar      1 RES1   0.0000
    60 H20     17.9136   9.1678  18.5614   H         1 RES1   0.0000
    61 C32      2.2932   7.5996  22.4003   C.3       1 RES1   0.0000
    62 H21      1.8277   6.8519  22.8319   H         1 RES1   0.0000
    63 H22      1.6802   8.0568  21.7878   H         1 RES1   0.0000
    64 H23      2.6031   8.2292  23.0851   H         1 RES1   0.0000
    65 C33     20.1713   8.2408  17.3486   C.2       1 RES1   0.0000
    66 C34     21.6612   9.9020  18.0561   C.3       1 RES1   0.0000
    67 H24     22.3303   9.1959  18.1773   H         1 RES1   0.0000
    68 H25     21.7704  10.5790  18.7549   H         1 RES1   0.0000
    69 H26     21.7804  10.3175  17.1759   H         1 RES1   0.0000
    70 O3      20.3204   9.3234  18.1432   O.3       1 RES1   0.0000
    71 O4      21.0198   7.7972  16.6433   O.2       1 RES1   0.0000
    72 C35     10.4277   0.7119  14.6847   C.ar      1 RES1   0.0000
    73 C36     13.0113   0.6189  16.1354   C.2       1 RES1   0.0000
    74 H27     12.8635  -0.2092  15.6936   H         1 RES1   0.0000
    75 C37      9.5249   5.0958  15.9064   C.2       1 RES1   0.0000
    76 H28      9.4956   5.9734  16.2683   H         1 RES1   0.0000
    77 C38     12.1206   1.7231  16.1721   C.2       1 RES1   0.0000
    78 C39      9.0064   3.3145  14.6790   C.2       1 RES1   0.0000
    79 H29      8.5881   2.7198  14.0662   H         1 RES1   0.0000
    80 C40      8.6645   4.6260  14.9043   C.2       1 RES1   0.0000
    81 H30      7.9798   5.1171  14.4673   H         1 RES1   0.0000
    82 C41     13.8930   2.2704  17.3380   C.2       1 RES1   0.0000
    83 H31     14.5079   2.7595  17.8701   H         1 RES1   0.0000
    84 C42     14.1253   0.9676  16.8532   C.2       1 RES1   0.0000
    85 H32     14.9005   0.4368  16.9966   H         1 RES1   0.0000
    86 C43     10.1007   3.0123  15.5328   C.2       1 RES1   0.0000
    87 C44     10.8985   1.8616  15.5152   C.2       1 RES1   0.0000
    88 C45      9.1830   0.1395  14.9097   C.ar      1 RES1   0.0000
    89 H33      8.6304   0.4814  15.6025   H         1 RES1   0.0000
    90 C46      9.5363  -1.4287  13.1358   C.ar      1 RES1   0.0000
    91 C47     10.7860  -0.8766  12.9039   C.ar      1 RES1   0.0000
    92 H34     11.3419  -1.2330  12.2225   H         1 RES1   0.0000
    93 C48     11.2238   0.1898  13.6639   C.ar      1 RES1   0.0000
    94 H35     12.0753   0.5734  13.4886   H         1 RES1   0.0000
    95 C49      8.7312  -0.9211  14.1393   C.ar      1 RES1   0.0000
    96 H36      7.8731  -1.2970  14.2995   H         1 RES1   0.0000
    97 C50      9.1014  -2.5319  12.2262   C.2       1 RES1   0.0000
    98 O5       7.7812  -2.7007  12.2336   O.3       1 RES1   0.0000
    99 O6       9.8512  -3.1654  11.5369   O.2       1 RES1   0.0000
   100 C51      7.2881  -3.6613  11.2640   C.3       1 RES1   0.0000
   101 H37      7.7851  -3.5625  10.4244   H         1 RES1   0.0000
   102 H38      6.3350  -3.5005  11.1016   H         1 RES1   0.0000
   103 H39      7.4118  -4.5689  11.6109   H         1 RES1   0.0000
@<TRIPOS>BOND
     1     1     2    1
     2     2    37    1
     3     3     1    1
     4     4     1    1
     5     5     1    1
     6     6     1    1
     7     7     1    1
     8     8     9    1
     9    10    14   ar
    10    11     7    1
    11    12    11    2
    12    13    12    1
    13    14     8   ar
    14    15    14    1
    15    16     4    1
    16    17     7    1
    17    18    17    1
    18    19    10    1
    19    20    21    1
    20    22    12    1
    21    23    22    1
    22    24    10   ar
    23    25    24    1
    24    26     4    2
    25    27    26    1
    26    28    24   ar
    27    29    28    1
    28    30    16    1
    29    31    30    1
    30    32    33    1
    31    33     8   ar
    32    34     3    1
    33    35    34    1
    34    36     3    1
    35    37    42    1
    36    38     2    2
    37    39    38    1
    38    40    36    2
    39    41    40    1
    40    42    43    1
    41    44    49   ar
    42    45    34    2
    43    46    45    1
    44    47    38    1
    45    48    47    1
    46    49    50    1
    47    51    36    1
    48    52    32    2
    49    53    32    1
    50    54    57   ar
    51    55    44   ar
    52    56    55    1
    53    57    49   ar
    54    58    57    1
    55    59    54   ar
    56    60    59    1
    57    61    53    1
    58    62    61    1
    59    63    61    1
    60    64    61    1
    61    65    54    1
    62    66    67    1
    63    68    66    1
    64    69    66    1
    65    70    65    1
    66    71    65    2
    67    72    87    1
    68    73    74    1
    69    75     5    2
    70    76    75    1
    71    77     6    1
    72    78    79    1
    73    80    75    1
    74    81    80    1
    75    82     6    1
    76    83    82    1
    77    84    73    1
    78    85    84    1
    79    86     5    1
    80    87    77    1
    81    88    72   ar
    82    89    88    1
    83    90    91   ar
    84    91    92    1
    85    93    72   ar
    86    94    93    1
    87    95    88   ar
    88    96    95    1
    89    97    90    1
    90    98    97    1
    91    99    97    2
    92   100    98    1
    93   101   100    1
    94   102   100    1
    95   103   100    1
    96    11    19    1
    97    16    19    2
    98    17    22    2
    99    20    30    2
   100    20    26    1
   101    28    33   ar
   102    37    51    2
   103    40    45    1
   104    42    47    2
   105    44    51    1
   106    55    59   ar
   107    66    70    1
   108    73    77    2
   109    78    80    2
   110    78    86    1
   111    82    84    2
   112    86    87    2
   113    90    95   ar
   114    91    93   ar
@<TRIPOS>SUBSTRUCTURE
     1 RES1        1 GROUP             0 ****  ****    0  
@<TRIPOS>CRYSIN
   14.8968    9.6860   28.4720   90.0000   92.2010   90.0000   231     1
