@<TRIPOS>MOLECULE
QANSUU
   311   342    13     0     0
SMALL
NO_CHARGES
****
Generated from the CSD

@<TRIPOS>ATOM
     1 Fe1      5.1019   5.2584   8.3879   Fe        1 RES1   0.0000
     2 Fe2      4.7657   7.3231   4.1818   Fe        1 RES1   0.0000
     3 Fe3      6.3883   2.9681   6.2074   Fe        1 RES1   0.0000
     4 Fe4      5.2956   4.0333   3.4813   Fe        1 RES1   0.0000
     5 Fe5      3.1832   4.5744   5.5467   Fe        1 RES1   0.0000
     6 Fe6      1.7797   5.7054   7.9500   Fe        1 RES1   0.0000
     7 Fe7      1.7268   7.8766   5.6702   Fe        1 RES1   0.0000
     8 Fe8      4.1785   8.4842   7.3503   Fe        1 RES1   0.0000
     9 Fe9      6.8581   8.1706   8.6454   Fe        1 RES1   0.0000
    10 Fe10     7.4757   8.7678   5.6321   Fe        1 RES1   0.0000
    11 Fe11     7.3879   5.7752   5.8853   Fe        1 RES1   0.0000
    12 O1       4.4486   5.4591   4.3982   O.3       1 RES1   0.0000
    13 O2       3.4859   5.1674   7.3583   O.3       1 RES1   0.0000
    14 O3       3.6335   7.8401   5.6328   O.3       1 RES1   0.0000
    15 O4       5.3455   7.1739   8.1373   O.3       1 RES1   0.0000
    16 O5       6.4228   7.2950   5.1628   O.3       1 RES1   0.0000
    17 O6       6.1851   4.7189   6.9431   O.3       1 RES1   0.0000
    18 O7       4.5679   3.0936   5.2242   O.3       1 RES1   0.0000
    19 H1       4.1548   2.2013   5.0457   H         1 RES1   0.0000
    20 O8       1.5847   5.8501   5.8298   O.3       1 RES1   0.0000
    21 H2       0.7185   5.4852   5.4860   H         1 RES1   0.0000
    22 O9       2.2710   7.7467   7.7327   O.3       1 RES1   0.0000
    23 H3       1.7287   8.3464   8.3214   H         1 RES1   0.0000
    24 O10      6.0551   9.3382   7.0608   O.3       1 RES1   0.0000
    25 H4       6.0702  10.3188   7.2537   H         1 RES1   0.0000
    26 O11      8.0055   7.3459   7.1185   O.3       1 RES1   0.0000
    27 H5       8.9855   7.3295   7.3219   H         1 RES1   0.0000
    28 O12      7.0171   4.2197   4.5990   O.3       1 RES1   0.0000
    29 H6       7.8350   3.8872   4.1299   H         1 RES1   0.0000
    30 O13     -0.1086   6.4366   8.0330   O.co2     1 RES1   0.0000
    31 C1      -0.7361   7.2258   7.2823   C.2       1 RES1   0.0000
    32 O14     -0.2493   7.8361   6.3146   O.co2     1 RES1   0.0000
    33 C2      -2.1765   7.4360   7.6037   C.ar      1 RES1   0.0000
    34 C3      -3.0416   8.0099   6.6725   C.ar      1 RES1   0.0000
    35 H7      -2.7406   8.2272   5.7986   H         1 RES1   0.0000
    36 C4      -4.3654   8.2533   7.0600   C.ar      1 RES1   0.0000
    37 H8      -4.9724   8.6189   6.4282   H         1 RES1   0.0000
    38 C5      -4.8148   7.9774   8.3478   C.ar      1 RES1   0.0000
    39 H9      -5.7052   8.1766   8.6098   H         1 RES1   0.0000
    40 C6      -3.9389   7.4131   9.2174   C.ar      1 RES1   0.0000
    41 H10     -4.2314   7.2163  10.1001   H         1 RES1   0.0000
    42 C7      -2.6383   7.1165   8.8695   C.ar      1 RES1   0.0000
    43 H11     -2.0615   6.6944   9.4947   H         1 RES1   0.0000
    44 O15      3.5108  10.3881   6.7474   O.co2     1 RES1   0.0000
    45 C8       2.5076  10.6510   6.0451   C.2       1 RES1   0.0000
    46 O16      1.5734   9.8652   5.7259   O.co2     1 RES1   0.0000
    47 C9       2.3904  12.0565   5.5322   C.ar      1 RES1   0.0000
    48 C10      1.3004  12.4168   4.7044   C.ar      1 RES1   0.0000
    49 H12      0.6346  11.7732   4.4887   H         1 RES1   0.0000
    50 C11      1.2031  13.6937   4.2135   C.ar      1 RES1   0.0000
    51 H13      0.4706  13.9270   3.6544   H         1 RES1   0.0000
    52 C12      2.1636  14.6503   4.5239   C.ar      1 RES1   0.0000
    53 H14      2.0861  15.5352   4.1827   H         1 RES1   0.0000
    54 C13      3.2299  14.3074   5.3274   C.ar      1 RES1   0.0000
    55 H15      3.8847  14.9602   5.5410   H         1 RES1   0.0000
    56 C14      3.3581  13.0165   5.8272   C.ar      1 RES1   0.0000
    57 H16      4.1044  12.7881   6.3687   H         1 RES1   0.0000
    58 O17      1.9807   5.9712   9.8912   O.co2     1 RES1   0.0000
    59 C15      3.0686   6.1219  10.5338   C.2       1 RES1   0.0000
    60 O18      4.1872   5.7062  10.1706   O.co2     1 RES1   0.0000
    61 C16      3.0036   6.8343  11.8415   C.ar      1 RES1   0.0000
    62 C17      1.7762   7.2676  12.3808   C.ar      1 RES1   0.0000
    63 H17      0.9705   7.1190  11.9009   H         1 RES1   0.0000
    64 C18      1.7361   7.8987  13.5828   C.ar      1 RES1   0.0000
    65 H18      0.9016   8.1585  13.9526   H         1 RES1   0.0000
    66 C19      2.8869   8.1590  14.2542   C.ar      1 RES1   0.0000
    67 H19      2.8504   8.6412  15.0732   H         1 RES1   0.0000
    68 C20      4.0948   7.7388  13.7743   C.ar      1 RES1   0.0000
    69 H20      4.8865   7.9070  14.2696   H         1 RES1   0.0000
    70 C21      4.1675   7.0639  12.5613   C.ar      1 RES1   0.0000
    71 H21      5.0038   6.7620  12.2289   H         1 RES1   0.0000
    72 O19      3.8834   9.3789   9.2231   O.co2     1 RES1   0.0000
    73 C22      4.7562   9.6050  10.1067   C.2       1 RES1   0.0000
    74 O20      5.9654   9.2378  10.0453   O.co2     1 RES1   0.0000
    75 C23      4.3455  10.3720  11.3219   C.ar      1 RES1   0.0000
    76 C24      3.0032  10.5734  11.6477   C.ar      1 RES1   0.0000
    77 H22      2.3199  10.2143  11.0930   H         1 RES1   0.0000
    78 C25      2.6710  11.2899  12.7705   C.ar      1 RES1   0.0000
    79 H23      1.7547  11.3947  13.0038   H         1 RES1   0.0000
    80 C26      3.6526  11.8652  13.5740   C.ar      1 RES1   0.0000
    81 H24      3.4159  12.3790  14.3379   H         1 RES1   0.0000
    82 C27      4.9622  11.6724  13.2416   C.ar      1 RES1   0.0000
    83 H25      5.6398  12.0570  13.7875   H         1 RES1   0.0000
    84 C28      5.3274  10.9396  12.1365   C.ar      1 RES1   0.0000
    85 H26      6.2462  10.8177  11.9295   H         1 RES1   0.0000
    86 O21      6.8768  10.1359   4.3918   O.co2     1 RES1   0.0000
    87 C29      5.7414  10.2920   3.8283   C.2       1 RES1   0.0000
    88 O22      4.8884   9.3766   3.6984   O.co2     1 RES1   0.0000
    89 C30      5.4430  11.6338   3.2867   C.ar      1 RES1   0.0000
    90 C31      6.3046  12.7040   3.5399   C.ar      1 RES1   0.0000
    91 H27      7.0592  12.5843   4.1035   H         1 RES1   0.0000
    92 C32      6.0590  13.9232   2.9719   C.ar      1 RES1   0.0000
    93 H28      6.6450  14.6502   3.1458   H         1 RES1   0.0000
    94 C33      4.9597  14.1087   2.1398   C.ar      1 RES1   0.0000
    95 H29      4.8043  14.9524   1.7303   H         1 RES1   0.0000
    96 C34      4.1055  13.0700   1.9174   C.ar      1 RES1   0.0000
    97 H30      3.3483  13.1942   1.3583   H         1 RES1   0.0000
    98 C35      4.3349  11.8325   2.5030   C.ar      1 RES1   0.0000
    99 H31      3.7225  11.1213   2.3577   H         1 RES1   0.0000
   100 O23      8.6906  10.1049   6.5735   O.co2     1 RES1   0.0000
   101 C36      8.8526  10.3033   7.8107   C.2       1 RES1   0.0000
   102 O24      8.3508   9.6110   8.7309   O.co2     1 RES1   0.0000
   103 C37      9.6991  11.4575   8.2113   C.ar      1 RES1   0.0000
   104 C38     10.5737  12.0164   7.2823   C.ar      1 RES1   0.0000
   105 H32     10.6103  11.6679   6.3995   H         1 RES1   0.0000
   106 C39     11.4069  13.1055   7.6455   C.ar      1 RES1   0.0000
   107 H33     12.0206  13.4763   7.0225   H         1 RES1   0.0000
   108 C40     11.3039  13.6085   8.9224   C.ar      1 RES1   0.0000
   109 H34     11.8472  14.3474   9.1733   H         1 RES1   0.0000
   110 C41     10.4289  13.0687   9.8514   C.ar      1 RES1   0.0000
   111 H35     10.3680  13.4295  10.7275   H         1 RES1   0.0000
   112 C42      9.6277  11.9701   9.4639   C.ar      1 RES1   0.0000
   113 H36      9.0299  11.5850  10.0935   H         1 RES1   0.0000
   114 O25      8.9410   6.1272   4.5746   O.co2     1 RES1   0.0000
   115 C43      9.5486   7.1803   4.2818   C.2       1 RES1   0.0000
   116 O26      9.1418   8.3547   4.5658   O.co2     1 RES1   0.0000
   117 C44     10.8678   7.0474   3.6059   C.ar      1 RES1   0.0000
   118 C45     11.2547   5.7587   3.2141   C.ar      1 RES1   0.0000
   119 H37     10.6805   5.0141   3.3484   H         1 RES1   0.0000
   120 C46     12.5304   5.6010   2.6131   C.ar      1 RES1   0.0000
   121 H38     12.8218   4.7376   2.3489   H         1 RES1   0.0000
   122 C47     13.3446   6.6817   2.4128   C.ar      1 RES1   0.0000
   123 H39     14.1949   6.5685   2.0011   H         1 RES1   0.0000
   124 C48     12.9375   7.9142   2.8002   C.ar      1 RES1   0.0000
   125 H40     13.5097   8.6596   2.6593   H         1 RES1   0.0000
   126 C49     11.6907   8.1124   3.4034   C.ar      1 RES1   0.0000
   127 H41     11.4211   8.9834   3.6676   H         1 RES1   0.0000
   128 O27      6.7917   5.0862   9.6114   O.co2     1 RES1   0.0000
   129 C50      7.6799   5.7897  10.1288   C.2       1 RES1   0.0000
   130 O28      7.8080   7.0374   9.9447   O.co2     1 RES1   0.0000
   131 C51      8.6764   5.1386  11.0181   C.ar      1 RES1   0.0000
   132 C52      8.5912   3.7837  11.2515   C.ar      1 RES1   0.0000
   133 H42      7.9000   3.2719  10.8486   H         1 RES1   0.0000
   134 C53      9.5333   3.1627  12.0880   C.ar      1 RES1   0.0000
   135 H43      9.4811   2.2263  12.2443   H         1 RES1   0.0000
   136 C54     10.5182   3.8904  12.6758   C.ar      1 RES1   0.0000
   137 H44     11.1194   3.4684  13.2768   H         1 RES1   0.0000
   138 C55     10.6567   5.2494  12.4072   C.ar      1 RES1   0.0000
   139 H45     11.3830   5.7432  12.7683   H         1 RES1   0.0000
   140 C56      9.7083   5.8722  11.5949   C.ar      1 RES1   0.0000
   141 H46      9.7682   6.8075  11.4320   H         1 RES1   0.0000
   142 O29      0.9780   3.8856   8.0286   O.co2     1 RES1   0.0000
   143 C57      1.2798   2.9229   7.2317   C.2       1 RES1   0.0000
   144 O30      2.0719   3.0006   6.2719   O.co2     1 RES1   0.0000
   145 C58      0.6185   1.5850   7.4760   C.ar      1 RES1   0.0000
   146 C59     -0.5445   1.4929   8.1695   C.ar      1 RES1   0.0000
   147 H47     -0.9408   2.2687   8.5481   H         1 RES1   0.0000
   148 C60     -1.1427   0.2536   8.3214   C.ar      1 RES1   0.0000
   149 H48     -1.9655   0.1827   8.7925   H         1 RES1   0.0000
   150 C61     -0.5615  -0.8634   7.8018   C.ar      1 RES1   0.0000
   151 H49     -0.9707  -1.7108   7.9273   H         1 RES1   0.0000
   152 C62      0.6043  -0.7705   7.1018   C.ar      1 RES1   0.0000
   153 H50      1.0009  -1.5475   6.7276   H         1 RES1   0.0000
   154 C63      1.1965   0.4547   6.9455   C.ar      1 RES1   0.0000
   155 H51      2.0152   0.5242   6.4656   H         1 RES1   0.0000
   156 O31      6.2096   4.9587   2.0209   O.co2     1 RES1   0.0000
   157 C64      6.5753   6.1931   1.9615   C.2       1 RES1   0.0000
   158 O32      5.9747   7.1350   2.4744   O.co2     1 RES1   0.0000
   159 C65      7.8645   6.4563   1.2614   C.ar      1 RES1   0.0000
   160 C66      8.5717   5.4000   0.6890   C.ar      1 RES1   0.0000
   161 H52      8.2176   4.5196   0.7243   H         1 RES1   0.0000
   162 C67      9.7943   5.6315   0.0682   C.ar      1 RES1   0.0000
   163 H53     10.2863   4.9071  -0.2994   H         1 RES1   0.0000
   164 C68     10.2946   6.9186  -0.0088   C.ar      1 RES1   0.0000
   165 H54     11.1290   7.0712  -0.4337   H         1 RES1   0.0000
   166 C69      9.5944   7.9781   0.5217   C.ar      1 RES1   0.0000
   167 H55      9.9432   8.8586   0.4381   H         1 RES1   0.0000
   168 C70      8.3731   7.7757   1.1822   C.ar      1 RES1   0.0000
   169 H56      7.8991   8.5047   1.5674   H         1 RES1   0.0000
   170 O33      6.7194   1.4188   4.9466   O.co2     1 RES1   0.0000
   171 C71      6.5368   1.3158   3.7072   C.2       1 RES1   0.0000
   172 O34      6.0506   2.2046   2.9697   O.co2     1 RES1   0.0000
   173 C72      6.9380   0.0384   3.0534   C.ar      1 RES1   0.0000
   174 C73      6.7931  -0.1421   1.7215   C.ar      1 RES1   0.0000
   175 H57      6.4419   0.5527   1.1778   H         1 RES1   0.0000
   176 C74      7.1757  -1.4033   1.1359   C.ar      1 RES1   0.0000
   177 H58      7.0773  -1.5414   0.2025   H         1 RES1   0.0000
   178 C75      7.8172  -2.1808   3.2031   C.ar      1 RES1   0.0000
   179 H59      8.1940  -2.8716   3.7358   H         1 RES1   0.0000
   180 C76      7.6689  -2.3769   1.9064   C.ar      1 RES1   0.0000
   181 H60      7.9123  -3.2092   1.5212   H         1 RES1   0.0000
   182 C77      7.4358  -0.9845   3.8151   C.ar      1 RES1   0.0000
   183 H61      7.5211  -0.8797   4.7551   H         1 RES1   0.0000
   184 O35      5.5644   1.8340   7.5773   O.co2     1 RES1   0.0000
   185 C78      4.7988   2.1552   8.5437   C.2       1 RES1   0.0000
   186 O36      4.7022   3.3150   9.0060   O.co2     1 RES1   0.0000
   187 C79      3.9874   1.0674   9.1447   C.ar      1 RES1   0.0000
   188 C80      4.1397  -0.2456   8.7441   C.ar      1 RES1   0.0000
   189 H62      4.7696  -0.4554   8.0660   H         1 RES1   0.0000
   190 C81      3.3898  -1.2575   9.3164   C.ar      1 RES1   0.0000
   191 H63      3.4949  -2.1547   9.0192   H         1 RES1   0.0000
   192 C82      2.4998  -0.9632  10.3071   C.ar      1 RES1   0.0000
   193 H64      2.0218  -1.6645  10.7341   H         1 RES1   0.0000
   194 C83      2.2778   0.3830  10.7121   C.ar      1 RES1   0.0000
   195 H65      1.6236   0.5971  11.3682   H         1 RES1   0.0000
   196 C84      3.0644   1.3968  10.1023   C.ar      1 RES1   0.0000
   197 H66      2.9520   2.3031  10.3599   H         1 RES1   0.0000
   198 O37      8.2522   2.7361   6.8640   O.co2     1 RES1   0.0000
   199 C85      9.0778   3.6129   7.1656   C.2       1 RES1   0.0000
   200 O38      8.9650   4.8479   6.8993   O.co2     1 RES1   0.0000
   201 C86     10.2976   3.1813   7.9031   C.ar      1 RES1   0.0000
   202 C87     11.0339   4.0778   8.6670   C.ar      1 RES1   0.0000
   203 H67     10.7778   4.9921   8.6780   H         1 RES1   0.0000
   204 C88     12.0994   3.6875   9.3869   C.ar      1 RES1   0.0000
   205 H68     12.6052   4.3225   9.8822   H         1 RES1   0.0000
   206 C89     12.4484   2.3401   9.3957   C.ar      1 RES1   0.0000
   207 H69     13.1606   2.0468   9.9504   H         1 RES1   0.0000
   208 C90     11.7670   1.4124   8.6032   C.ar      1 RES1   0.0000
   209 H70     12.0400   0.5047   8.5723   H         1 RES1   0.0000
   210 C91     10.6840   1.8558   7.8679   C.ar      1 RES1   0.0000
   211 H71     10.2007   1.2408   7.3285   H         1 RES1   0.0000
   212 O39      3.7242   3.5907   2.3555   O.co2     1 RES1   0.0000
   213 C92      2.5254   3.8249   2.6461   C.2       1 RES1   0.0000
   214 O40      2.0907   4.1063   3.8261   O.co2     1 RES1   0.0000
   215 C93      1.5024   3.7523   1.5300   C.ar      1 RES1   0.0000
   216 C94      1.8911   3.1911   0.3346   C.ar      1 RES1   0.0000
   217 H72      2.7765   2.8674   0.2201   H         1 RES1   0.0000
   218 C95      0.9685   3.1050  -0.6957   C.ar      1 RES1   0.0000
   219 H73      1.2246   2.7257  -1.5300   H         1 RES1   0.0000
   220 C96     -0.3149   3.5664  -0.5195   C.ar      1 RES1   0.0000
   221 H74     -0.9436   3.5088  -1.2284   H         1 RES1   0.0000
   222 C97     -0.6812   4.1049   0.6648   C.ar      1 RES1   0.0000
   223 H75     -1.5703   4.4194   0.7815   H         1 RES1   0.0000
   224 C98      0.2173   4.2052   1.7127   C.ar      1 RES1   0.0000
   225 H76     -0.0491   4.5819   2.5426   H         1 RES1   0.0000
   226 O41      3.2461   7.3899   2.7628   O.co2     1 RES1   0.0000
   227 C99      2.0175   7.5962   2.7606   C.2       1 RES1   0.0000
   228 O42      1.2801   7.8473   3.7688   O.co2     1 RES1   0.0000
   229 C100     1.3554   7.5939   1.4177   C.ar      1 RES1   0.0000
   230 C101     2.0311   7.0603   0.3390   C.ar      1 RES1   0.0000
   231 H77      2.8981   6.6902   0.4579   H         1 RES1   0.0000
   232 C102     1.4385   7.0650  -0.9334   C.ar      1 RES1   0.0000
   233 H78      1.8987   6.7136  -1.6863   H         1 RES1   0.0000
   234 C103     0.1757   7.5902  -1.0633   C.ar      1 RES1   0.0000
   235 H79     -0.2397   7.5810  -1.9174   H         1 RES1   0.0000
   236 C104    -0.5038   8.1214  -0.0132   C.ar      1 RES1   0.0000
   237 H80     -1.3659   8.5000  -0.1387   H         1 RES1   0.0000
   238 C105     0.0828   8.1045   1.2548   C.ar      1 RES1   0.0000
   239 H81     -0.3950   8.4418   2.0033   H         1 RES1   0.0000
   240 N1      13.2996   6.7179  15.1568   N.1       2 RES2   0.0000
   241 C106    12.3168   7.3016  15.2449   C.1       2 RES2   0.0000
   242 C107    11.1778   8.1056  15.2977   C.3       2 RES2   0.0000
   243 H82     11.2870   8.7767  16.0022   H         2 RES2   0.0000
   244 H83     10.3904   7.5555  15.4892   H         2 RES2   0.0000
   245 H84     11.0597   8.5539  14.4325   H         2 RES2   0.0000
   246 N2      -0.9781   4.7237   5.1998   N.1       3 RES3   0.0000
   247 C108    -1.9694   4.3129   5.4639   C.1       3 RES3   0.0000
   248 C109    -3.2571   3.7345   5.8448   C.3       3 RES3   0.0000
   249 H85     -3.1703   3.1747   6.6439   H         3 RES3   0.0000
   250 H86     -3.5697   3.1887   5.0963   H         3 RES3   0.0000
   251 H87     -3.9011   4.4539   6.0187   H         3 RES3   0.0000
   252 N3       6.1241  12.0859   8.1673   N.1       4 RES4   0.0000
   253 C110     5.5823  12.7431   8.8938   C.1       4 RES4   0.0000
   254 C111     4.8021  13.6371   9.7655   C.3       4 RES4   0.0000
   255 H88      4.7679  14.5293   9.3605   H         4 RES4   0.0000
   256 H89      5.2179  13.6970  10.6505   H         4 RES4   0.0000
   257 H90      3.8929  13.2814   9.8536   H         4 RES4   0.0000
   258 N4       3.6246   0.5538   4.4359   N.1       5 RES5   0.0000
   259 C112     3.7041  -0.4800   4.0594   C.1       5 RES5   0.0000
   260 C113     3.7923  -1.8595   3.5993   C.3       5 RES5   0.0000
   261 H91      4.3798  -2.3683   4.1959   H         5 RES5   0.0000
   262 H92      4.1584  -1.8753   2.6901   H         5 RES5   0.0000
   263 H93      2.8996  -2.2655   3.5971   H         5 RES5   0.0000
   264 N5       0.5202  -1.0200   3.1128   N.1       6 RES6   0.0000
   265 C114     0.2468   0.0396   3.4584   C.1       6 RES6   0.0000
   266 C115    -0.0438   1.3538   3.8921   C.3       6 RES6   0.0000
   267 H94      0.6808   1.6549   4.4799   H         6 RES6   0.0000
   268 H95     -0.8869   1.3448   4.3918   H         6 RES6   0.0000
   269 H96     -0.1215   1.9634   3.1304   H         6 RES6   0.0000
   270 N6      10.0857  13.6965   3.8591   N.1       7 RES7   0.0000
   271 C116     9.8352  12.6437   3.3968   C.1       7 RES7   0.0000
   272 C117     9.5970  11.3682   2.8420   C.3       7 RES7   0.0000
   273 H97     10.3219  11.1392   2.2256   H         7 RES7   0.0000
   274 H98      8.7454  11.3854   2.3577   H         7 RES7   0.0000
   275 H99      9.5532  10.7017   3.5575   H         7 RES7   0.0000
   276 N7       4.9568   9.1828   0.3566   N.1       8 RES8   0.0000
   277 C118     4.8850   8.2749  -0.7793   C.1       8 RES8   0.0000
   278 C119     4.8806   7.5812  -1.7545   C.3       8 RES8   0.0000
   279 H100     5.6923   7.7841  -2.2631   H         8 RES8   0.0000
   280 H101     4.0933   7.8042  -2.2939   H         8 RES8   0.0000
   281 H102     4.8633   6.6264  -1.5322   H         8 RES8   0.0000
   282 N8       9.2647   2.8413   3.3770   N.1       9 RES9   0.0000
   283 C120     9.8252   1.9799   3.1877   C.1       9 RES9   0.0000
   284 C121    10.5718   0.7646   2.8376   C.3       9 RES9   0.0000
   285 H103    10.2190   0.3892   2.0033   H         9 RES9   0.0000
   286 H104    10.4859   0.1023   3.5553   H         9 RES9   0.0000
   287 H105    11.5152   0.9966   2.7166   H         9 RES9   0.0000
   288 N9       4.4660   2.0150  -1.9703   N.1      10 RES10   0.0000
   289 C122     4.8627   2.9646  -1.5938   C.1      10 RES10   0.0000
   290 C123     5.1493   4.3270  -1.2328   C.3      10 RES10   0.0000
   291 H106     6.0454   4.5757  -1.5432   H        10 RES10   0.0000
   292 H107     5.0966   4.4387  -0.2598   H        10 RES10   0.0000
   293 H108     4.4830   4.9014  -1.6643   H        10 RES10   0.0000
   294 N10     -3.8613   2.3402   0.2752   N.1      11 RES11   0.0000
   295 C124    -3.1970   1.5143   0.2422   C.1      11 RES11   0.0000
   296 C125    -2.2403   0.4007   0.3280   C.3      11 RES11   0.0000
   297 H109    -1.4498   0.6160  -0.2113   H        11 RES11   0.0000
   298 H110    -2.6761  -0.3961  -0.0374   H        11 RES11   0.0000
   299 H111    -1.9666   0.2314   1.2526   H        11 RES11   0.0000
   300 N11      3.4905   5.5195  -4.6538   N.1      12 RES12   0.0000
   301 C126     3.5325   6.5351  -4.7925   C.1      12 RES12   0.0000
   302 C127     3.5875   7.8797  -4.8938   C.3      12 RES12   0.0000
   303 H112     4.5291   8.1489  -4.9598   H        12 RES12   0.0000
   304 H113     3.1830   8.2943  -4.1035   H        12 RES12   0.0000
   305 H114     3.1092   8.1729  -5.6973   H        12 RES12   0.0000
   306 N12     -3.0843   0.2392   4.7287   N.1      13 RES13   0.0000
   307 C128    -2.7729  -0.9535   4.8101   C.1      13 RES13   0.0000
   308 C129    -2.4758  -2.2163   4.9334   C.3      13 RES13   0.0000
   309 H115    -3.2719  -2.7836   4.8651   H        13 RES13   0.0000
   310 H116    -2.0071  -2.4107   5.7699   H        13 RES13   0.0000
   311 H117    -1.8810  -2.3962   4.1761   H        13 RES13   0.0000
@<TRIPOS>BOND
     1     1    13    1
     2     2    12    1
     3     3    17    1
     4     4    12    1
     5     5    12    1
     6     6    13    1
     7     7    14    1
     8     8    14    1
     9     9    15    1
    10    10    16    1
    11    11    16    1
    12    13     5    1
    13    14     2    1
    14    15     1    1
    15    16     2    1
    16    17     1    1
    17    18     3    1
    18    19    18    1
    19    20     5    1
    20    21    20    1
    21    22     6    1
    22    23    22    1
    23    24     8    1
    24    25    24    1
    25    26     9    1
    26    27    26    1
    27    28     3    1
    28    29    28    1
    29    30     6    1
    30    31    30   un
    31    32     7    1
    32    33    31    1
    33    34    33   ar
    34    35    34    1
    35    36    34   ar
    36    37    36    1
    37    38    36   ar
    38    39    38    1
    39    40    38   ar
    40    41    40    1
    41    42    33   ar
    42    43    42    1
    43    44     8    1
    44    45    44   un
    45    46     7    1
    46    47    45    1
    47    48    47   ar
    48    49    48    1
    49    50    48   ar
    50    51    50    1
    51    52    50   ar
    52    53    52    1
    53    54    52   ar
    54    55    54    1
    55    56    47   ar
    56    57    56    1
    57    58     6    1
    58    59    58   un
    59    60     1    1
    60    61    59    1
    61    62    61   ar
    62    63    62    1
    63    64    62   ar
    64    65    64    1
    65    66    64   ar
    66    67    66    1
    67    68    66   ar
    68    69    68    1
    69    70    61   ar
    70    71    70    1
    71    72     8    1
    72    73    72   un
    73    74     9    1
    74    75    73    1
    75    76    75   ar
    76    77    76    1
    77    78    76   ar
    78    79    78    1
    79    80    78   ar
    80    81    80    1
    81    82    80   ar
    82    83    82    1
    83    84    75   ar
    84    85    84    1
    85    86    10    1
    86    87    86   un
    87    88     2    1
    88    89    87    1
    89    90    89   ar
    90    91    90    1
    91    92    90   ar
    92    93    92    1
    93    94    92   ar
    94    95    94    1
    95    96    94   ar
    96    97    96    1
    97    98    89   ar
    98    99    98    1
    99   100    10    1
   100   101   100   un
   101   102     9    1
   102   103   101    1
   103   104   103   ar
   104   105   104    1
   105   106   104   ar
   106   107   106    1
   107   108   106   ar
   108   109   108    1
   109   110   108   ar
   110   111   110    1
   111   112   103   ar
   112   113   112    1
   113   114    11    1
   114   115   114   un
   115   116    10    1
   116   117   115    1
   117   118   117   ar
   118   119   118    1
   119   120   118   ar
   120   121   120    1
   121   122   120   ar
   122   123   122    1
   123   124   122   ar
   124   125   124    1
   125   126   117   ar
   126   127   126    1
   127   128     1    1
   128   129   128   un
   129   130     9    1
   130   131   129    1
   131   132   131   ar
   132   133   132    1
   133   134   132   ar
   134   135   134    1
   135   136   134   ar
   136   137   136    1
   137   138   136   ar
   138   139   138    1
   139   140   131   ar
   140   141   140    1
   141   142     6    1
   142   143   142   un
   143   144     5    1
   144   145   143    1
   145   146   145   ar
   146   147   146    1
   147   148   146   ar
   148   149   148    1
   149   150   148   ar
   150   151   150    1
   151   152   150   ar
   152   153   152    1
   153   154   145   ar
   154   155   154    1
   155   156     4    1
   156   157   156   un
   157   158     2    1
   158   159   157    1
   159   160   159   ar
   160   161   160    1
   161   162   160   ar
   162   163   162    1
   163   164   162   ar
   164   165   164    1
   165   166   164   ar
   166   167   166    1
   167   168   159   ar
   168   169   168    1
   169   170     3    1
   170   171   170   un
   171   172     4    1
   172   173   171    1
   173   174   173   ar
   174   175   174    1
   175   176   174   ar
   176   177   176    1
   177   178   179    1
   178   180   176   ar
   179   181   180    1
   180   182   173   ar
   181   183   182    1
   182   184     3    1
   183   185   184   un
   184   186     1    1
   185   187   185    1
   186   188   187   ar
   187   189   188    1
   188   190   188   ar
   189   191   190    1
   190   192   190   ar
   191   193   192    1
   192   194   192   ar
   193   195   194    1
   194   196   187   ar
   195   197   196    1
   196   198     3    1
   197   199   198   un
   198   200    11    1
   199   201   199    1
   200   202   201   ar
   201   203   202    1
   202   204   202   ar
   203   205   204    1
   204   206   204   ar
   205   207   206    1
   206   208   206   ar
   207   209   208    1
   208   210   201   ar
   209   211   210    1
   210   212     4    1
   211   213   212   un
   212   214     5    1
   213   215   213    1
   214   216   215   ar
   215   217   216    1
   216   218   216   ar
   217   219   218    1
   218   220   218   ar
   219   221   220    1
   220   222   220   ar
   221   223   222    1
   222   224   215   ar
   223   225   224    1
   224   226     2    1
   225   227   226   un
   226   228     7    1
   227   229   227    1
   228   230   229   ar
   229   231   230    1
   230   232   230   ar
   231   233   232    1
   232   234   232   ar
   233   235   234    1
   234   236   234   ar
   235   237   236    1
   236   238   229   ar
   237   239   238    1
   238     4    18    1
   239     4    28    1
   240     5    18    1
   241     6    20    1
   242     7    20    1
   243     7    22    1
   244     8    15    1
   245     8    22    1
   246     9    24    1
   247    10    24    1
   248    10    26    1
   249    11    17    1
   250    11    26    1
   251    11    28    1
   252    31    32   un
   253    40    42   ar
   254    45    46   un
   255    54    56   ar
   256    59    60   un
   257    68    70   ar
   258    73    74   un
   259    82    84   ar
   260    87    88   un
   261    96    98   ar
   262   101   102   un
   263   110   112   ar
   264   115   116   un
   265   124   126   ar
   266   129   130   un
   267   138   140   ar
   268   143   144   un
   269   152   154   ar
   270   157   158   un
   271   166   168   ar
   272   171   172   un
   273   178   180   ar
   274   178   182   ar
   275   185   186   un
   276   194   196   ar
   277   199   200   un
   278   208   210   ar
   279   213   214   un
   280   222   224   ar
   281   227   228   un
   282   236   238   ar
   283   240   241    3
   284   241   242    1
   285   242   243    1
   286   244   242    1
   287   245   242    1
   288   246   247    3
   289   247   248    1
   290   248   249    1
   291   250   248    1
   292   251   248    1
   293   252   253    3
   294   253   254    1
   295   254   255    1
   296   256   254    1
   297   257   254    1
   298   258   259    3
   299   259   260    1
   300   260   261    1
   301   262   260    1
   302   263   260    1
   303   264   265    3
   304   265   266    1
   305   266   267    1
   306   268   266    1
   307   269   266    1
   308   270   271    3
   309   271   272    1
   310   272   273    1
   311   274   272    1
   312   275   272    1
   313   276   277    3
   314   277   278    1
   315   278   279    1
   316   280   278    1
   317   281   278    1
   318   282   283    3
   319   283   284    1
   320   284   285    1
   321   286   284    1
   322   287   284    1
   323   288   289    3
   324   289   290    1
   325   290   291    1
   326   292   290    1
   327   293   290    1
   328   294   295    3
   329   295   296    1
   330   296   297    1
   331   298   296    1
   332   299   296    1
   333   300   301    3
   334   301   302    1
   335   302   303    1
   336   304   302    1
   337   305   302    1
   338   306   307    3
   339   307   308    1
   340   308   309    1
   341   310   308    1
   342   311   308    1
@<TRIPOS>SUBSTRUCTURE
     1 RES1        1 GROUP             0 ****  ****    0  
     2 RES2      240 GROUP             0 ****  ****    0  
     3 RES3      246 GROUP             0 ****  ****    0  
     4 RES4      252 GROUP             0 ****  ****    0  
     5 RES5      258 GROUP             0 ****  ****    0  
     6 RES6      264 GROUP             0 ****  ****    0  
     7 RES7      270 GROUP             0 ****  ****    0  
     8 RES8      276 GROUP             0 ****  ****    0  
     9 RES9      282 GROUP             0 ****  ****    0  
    10 RES10     288 GROUP             0 ****  ****    0  
    11 RES11     294 GROUP             0 ****  ****    0  
    12 RES12     300 GROUP             0 ****  ****    0  
    13 RES13     306 GROUP             0 ****  ****    0  
@<TRIPOS>CRYSIN
   16.3728   19.1675   22.3490   80.9930   85.3150   86.5060     2     1
