@<TRIPOS>MOLECULE
QATRAE
   105   112     1     0     0
SMALL
NO_CHARGES
****
Generated from the CSD

@<TRIPOS>ATOM
     1 Fe1      0.0000   0.0000   0.0000   Fe        1 RES1   0.0000
     2 N1      -0.4236  -0.0459   1.9963   N.2       1 RES1   0.0000
     3 N2      -0.3735   2.0050  -0.0853   N.2       1 RES1   0.0000
     4 N3       2.7681   0.8821   0.9807   N.1       1 RES1   0.0000
     5 C1      -0.3546  -1.0741   2.8505   C.2       1 RES1   0.0000
     6 C2      -0.6105  -0.6585   4.1777   C.2       1 RES1   0.0000
     7 H1      -0.6060  -1.2066   4.9538   H         1 RES1   0.0000
     8 C3      -0.8657   0.6786   4.1314   C.2       1 RES1   0.0000
     9 H2      -1.0789   1.2388   4.8684   H         1 RES1   0.0000
    10 C4      -0.7517   1.0782   2.7745   C.2       1 RES1   0.0000
    11 C5      -0.9136   2.3769   2.3191   C.2       1 RES1   0.0000
    12 C6      -0.7310   2.8161   1.0187   C.2       1 RES1   0.0000
    13 C7      -0.8469   4.1573   0.5818   C.2       1 RES1   0.0000
    14 H3      -1.0834   4.9051   1.1174   H         1 RES1   0.0000
    15 C8      -0.5571   4.1784  -0.7442   C.2       1 RES1   0.0000
    16 H4      -0.5467   4.9425  -1.3086   H         1 RES1   0.0000
    17 C9      -0.2698   2.8380  -1.1267   C.2       1 RES1   0.0000
    18 C10     -0.0737  -2.5247   2.5514   C.3       1 RES1   0.0000
    19 C11     -1.3143   3.4219   3.3594   C.3       1 RES1   0.0000
    20 H5      -1.8427   4.1308   2.9133   H         1 RES1   0.0000
    21 H6      -1.8952   2.9937   4.0358   H         1 RES1   0.0000
    22 C12     -0.1322   4.0639   4.0656   C.3       1 RES1   0.0000
    23 H7       0.3917   3.3716   4.5210   H         1 RES1   0.0000
    24 H8      -0.4582   4.7121   4.7235   H         1 RES1   0.0000
    25 H9       0.4322   4.5203   3.4077   H         1 RES1   0.0000
    26 C13     -1.3458  -3.3391   2.9441   C.3       1 RES1   0.0000
    27 H10     -1.5845  -3.1306   3.8826   H         1 RES1   0.0000
    28 H11     -1.1389  -4.3047   2.8927   H         1 RES1   0.0000
    29 C14     -2.5340  -3.0400   2.0559   C.3       1 RES1   0.0000
    30 H12     -2.3266  -3.2998   1.1338   H         1 RES1   0.0000
    31 H13     -3.3129  -3.5457   2.3695   H         1 RES1   0.0000
    32 H14     -2.7333  -2.0807   2.0878   H         1 RES1   0.0000
    33 C15      1.0888  -3.0101   3.4396   C.3       1 RES1   0.0000
    34 H15      1.2015  -3.9854   3.3111   H         1 RES1   0.0000
    35 H16      0.8497  -2.8586   4.3884   H         1 RES1   0.0000
    36 C16      2.4084  -2.3268   3.1538   C.3       1 RES1   0.0000
    37 H17      2.3150  -1.3613   3.2987   H         1 RES1   0.0000
    38 H18      3.0972  -2.6810   3.7552   H         1 RES1   0.0000
    39 H19      2.6687  -2.4944   2.2245   H         1 RES1   0.0000
    40 C17      1.7645   0.4774   0.5428   C.1       1 RES1   0.0000
    41 C18      3.8625   1.5465   1.6725   C.3       1 RES1   0.0000
    42 C19      4.7558   2.2238   0.6209   C.3       1 RES1   0.0000
    43 H20      5.1367   1.5427   0.0288   H         1 RES1   0.0000
    44 H21      5.4797   2.7074   1.0701   H         1 RES1   0.0000
    45 H22      4.2209   2.8531   0.0935   H         1 RES1   0.0000
    46 C20      4.6791   0.4857   2.4096   C.3       1 RES1   0.0000
    47 H23      4.1243   0.0675   3.1003   H         1 RES1   0.0000
    48 H24      5.4593   0.9060   2.8269   H         1 RES1   0.0000
    49 H25      4.9779  -0.1972   1.7732   H         1 RES1   0.0000
    50 C21      3.2358   2.5677   2.5946   C.3       1 RES1   0.0000
    51 H26      2.6507   3.1593   2.0775   H         1 RES1   0.0000
    52 H27      3.9407   3.0971   3.0222   H         1 RES1   0.0000
    53 H28      2.7104   2.1082   3.2823   H         1 RES1   0.0000
    54 N1A      0.4236   0.0459  -1.9963   N.2       1 RES1   0.0000
    55 C1A      0.3546   1.0741  -2.8505   C.2       1 RES1   0.0000
    56 C2A      0.6105   0.6585  -4.1777   C.2       1 RES1   0.0000
    57 H1A      0.6060   1.2066  -4.9538   H         1 RES1   0.0000
    58 C3A      0.8657  -0.6786  -4.1314   C.2       1 RES1   0.0000
    59 H2A      1.0789  -1.2388  -4.8684   H         1 RES1   0.0000
    60 C4A      0.7517  -1.0782  -2.7745   C.2       1 RES1   0.0000
    61 C5A      0.9136  -2.3769  -2.3191   C.2       1 RES1   0.0000
    62 C6A      0.7310  -2.8161  -1.0187   C.2       1 RES1   0.0000
    63 N2A      0.3735  -2.0050   0.0853   N.2       1 RES1   0.0000
    64 C17A    -1.7645  -0.4774  -0.5428   C.1       1 RES1   0.0000
    65 N3A     -2.7681  -0.8821  -0.9807   N.1       1 RES1   0.0000
    66 C18A    -3.8625  -1.5465  -1.6725   C.3       1 RES1   0.0000
    67 C19A    -4.7558  -2.2238  -0.6209   C.3       1 RES1   0.0000
    68 H20A    -5.1367  -1.5427  -0.0288   H         1 RES1   0.0000
    69 H21A    -5.4797  -2.7074  -1.0701   H         1 RES1   0.0000
    70 H22A    -4.2209  -2.8531  -0.0935   H         1 RES1   0.0000
    71 C20A    -4.6791  -0.4857  -2.4096   C.3       1 RES1   0.0000
    72 H23A    -4.1243  -0.0675  -3.1003   H         1 RES1   0.0000
    73 H24A    -5.4593  -0.9060  -2.8269   H         1 RES1   0.0000
    74 H25A    -4.9779   0.1972  -1.7732   H         1 RES1   0.0000
    75 C21A    -3.2358  -2.5677  -2.5946   C.3       1 RES1   0.0000
    76 H26A    -2.6507  -3.1593  -2.0775   H         1 RES1   0.0000
    77 H27A    -3.9407  -3.0971  -3.0222   H         1 RES1   0.0000
    78 H28A    -2.7104  -2.1082  -3.2823   H         1 RES1   0.0000
    79 C9A      0.2698  -2.8380   1.1267   C.2       1 RES1   0.0000
    80 C8A      0.5571  -4.1784   0.7442   C.2       1 RES1   0.0000
    81 C7A      0.8469  -4.1573  -0.5818   C.2       1 RES1   0.0000
    82 H3A      1.0834  -4.9051  -1.1174   H         1 RES1   0.0000
    83 H4A      0.5467  -4.9425   1.3086   H         1 RES1   0.0000
    84 C11A     1.3143  -3.4219  -3.3594   C.3       1 RES1   0.0000
    85 H5A      1.8427  -4.1308  -2.9133   H         1 RES1   0.0000
    86 H6A      1.8952  -2.9937  -4.0358   H         1 RES1   0.0000
    87 C12A     0.1322  -4.0639  -4.0656   C.3       1 RES1   0.0000
    88 H7A     -0.3917  -3.3716  -4.5210   H         1 RES1   0.0000
    89 H8A      0.4582  -4.7121  -4.7235   H         1 RES1   0.0000
    90 H9A     -0.4322  -4.5203  -3.4077   H         1 RES1   0.0000
    91 C10A     0.0737   2.5247  -2.5514   C.3       1 RES1   0.0000
    92 C13A     1.3458   3.3391  -2.9441   C.3       1 RES1   0.0000
    93 H10A     1.5845   3.1306  -3.8826   H         1 RES1   0.0000
    94 H11A     1.1389   4.3047  -2.8927   H         1 RES1   0.0000
    95 C14A     2.5340   3.0400  -2.0559   C.3       1 RES1   0.0000
    96 H12A     2.3266   3.2998  -1.1338   H         1 RES1   0.0000
    97 H13A     3.3129   3.5457  -2.3695   H         1 RES1   0.0000
    98 H14A     2.7333   2.0807  -2.0878   H         1 RES1   0.0000
    99 C15A    -1.0888   3.0101  -3.4396   C.3       1 RES1   0.0000
   100 H15A    -1.2015   3.9854  -3.3111   H         1 RES1   0.0000
   101 H16A    -0.8497   2.8586  -4.3884   H         1 RES1   0.0000
   102 C16A    -2.4084   2.3268  -3.1538   C.3       1 RES1   0.0000
   103 H17A    -2.3150   1.3613  -3.2987   H         1 RES1   0.0000
   104 H18A    -3.0972   2.6810  -3.7552   H         1 RES1   0.0000
   105 H19A    -2.6687   2.4944  -2.2245   H         1 RES1   0.0000
@<TRIPOS>BOND
     1     1     2    1
     2     2     5    2
     3     3     1    1
     4     4    40    3
     5     5     6    1
     6     6     7    1
     7     8     6    2
     8     9     8    1
     9    10     2    1
    10    11    10    2
    11    12     3    1
    12    13    12    2
    13    14    13    1
    14    15    13    1
    15    16    15    1
    16    17     3    1
    17    18     5    1
    18    19    11    1
    19    20    19    1
    20    21    19    1
    21    22    19    1
    22    23    22    1
    23    24    22    1
    24    25    22    1
    25    26    18    1
    26    27    26    1
    27    28    26    1
    28    29    26    1
    29    30    29    1
    30    31    29    1
    31    32    29    1
    32    33    18    1
    33    34    33    1
    34    35    33    1
    35    36    33    1
    36    37    36    1
    37    38    36    1
    38    39    36    1
    39    40     1    1
    40    41     4    1
    41    42    41    1
    42    43    42    1
    43    44    42    1
    44    45    42    1
    45    46    41    1
    46    47    46    1
    47    48    46    1
    48    49    46    1
    49    50    41    1
    50    51    50    1
    51    52    50    1
    52    53    50    1
    53    54     1    1
    54    55    54    2
    55    56    55    1
    56    57    56    1
    57    58    56    2
    58    59    58    1
    59    60    54    1
    60    61    60    2
    61    62    61    1
    62    63     1    1
    63    64     1    1
    64    65    64    3
    65    66    65    1
    66    67    66    1
    67    68    67    1
    68    69    67    1
    69    70    67    1
    70    71    66    1
    71    72    71    1
    72    73    71    1
    73    74    71    1
    74    75    66    1
    75    76    75    1
    76    77    75    1
    77    78    75    1
    78    79    18    1
    79    80    79    2
    80    81    62    2
    81    82    81    1
    82    83    80    1
    83    84    61    1
    84    85    84    1
    85    86    84    1
    86    87    84    1
    87    88    87    1
    88    89    87    1
    89    90    87    1
    90    91    17    1
    91    92    91    1
    92    93    92    1
    93    94    92    1
    94    95    92    1
    95    96    95    1
    96    97    95    1
    97    98    95    1
    98    99    91    1
    99   100    99    1
   100   101    99    1
   101   102    99    1
   102   103   102    1
   103   104   102    1
   104   105   102    1
   105     8    10    1
   106    11    12    1
   107    15    17    2
   108    55    91    1
   109    58    60    1
   110    62    63    1
   111    63    79    1
   112    80    81    1
@<TRIPOS>SUBSTRUCTURE
     1 RES1        1 GROUP             0 ****  ****    0  
@<TRIPOS>CRYSIN
    9.0900   11.0240   11.5450   68.0700   67.2500   66.7000     2     1
