@<TRIPOS>MOLECULE
QAXQAJ01
   113   123     3     0     0
SMALL
USER_CHARGES
****
Generated from the CSD

@<TRIPOS>ATOM
     1 Fe1     -3.6069   5.0144  10.4373   Fe        1 RES1   2.0000
     2 N1      -4.0259   6.6704  11.4059   N.2       1 RES1   0.0000
     3 N2      -3.5839   6.7859  12.6901   N.pl3     1 RES1   0.0000
     4 N3      -4.0080   4.0021  12.0720   N.2       1 RES1   0.0000
     5 N4      -3.5408   4.4888  13.2579   N.pl3     1 RES1   0.0000
     6 N5      -1.7765   5.1732  11.1095   N.2       1 RES1   0.0000
     7 N6      -1.5997   5.5306  12.4163   N.pl3     1 RES1   0.0000
     8 C1      -2.7858   5.7142  13.2262   C.3       1 RES1   0.0000
     9 H1      -2.5097   5.9500  14.1572   H         1 RES1   0.0000
    10 C2      -4.6960   7.7945  11.1776   C.2       1 RES1   0.0000
    11 H2      -5.1204   8.0109  10.3559   H         1 RES1   0.0000
    12 C3      -4.6921   8.6187  12.3125   C.2       1 RES1   0.0000
    13 H3      -5.0990   9.4721  12.3975   H         1 RES1   0.0000
    14 C4      -3.9804   7.9443  13.2763   C.2       1 RES1   0.0000
    15 C5      -4.6310   2.8707  12.3845   C.2       1 RES1   0.0000
    16 H4      -5.0596   2.2986  11.7587   H         1 RES1   0.0000
    17 C6      -4.5676   2.6388  13.7691   C.2       1 RES1   0.0000
    18 H5      -4.9337   1.8994  14.2386   H         1 RES1   0.0000
    19 C7      -3.8711   3.6914  14.3069   C.2       1 RES1   0.0000
    20 C8      -0.5517   5.0048  10.6254   C.2       1 RES1   0.0000
    21 H6      -0.3544   4.7536   9.7318   H         1 RES1   0.0000
    22 C9       0.4116   5.2484  11.6155   C.2       1 RES1   0.0000
    23 H7       1.3553   5.1939  11.5186   H         1 RES1   0.0000
    24 C10     -0.2811   5.5815  12.7534   C.2       1 RES1   0.0000
    25 C11     -3.6776   8.2370  14.7148   C.3       1 RES1   0.0000
    26 H8      -2.7068   8.2817  14.8419   H         1 RES1   0.0000
    27 H9      -4.0482   7.5255  15.2782   H         1 RES1   0.0000
    28 H10     -4.0790   9.0950  14.9651   H         1 RES1   0.0000
    29 C12     -3.4965   4.0410  15.7107   C.3       1 RES1   0.0000
    30 H11     -3.9364   3.4228  16.3303   H         1 RES1   0.0000
    31 H12     -3.7827   4.9582  15.9065   H         1 RES1   0.0000
    32 H13     -2.5245   3.9724  15.8167   H         1 RES1   0.0000
    33 C13      0.1635   5.9519  14.1395   C.3       1 RES1   0.0000
    34 H14     -0.2315   5.3313  14.7855   H         1 RES1   0.0000
    35 H15     -0.1283   6.8656  14.3430   H         1 RES1   0.0000
    36 H16      1.1406   5.9009  14.1927   H         1 RES1   0.0000
    37 N1B     -3.1879   3.3583   9.4688   N.2       1 RES1   0.0000
    38 N2B     -3.6299   3.2428   8.1845   N.pl3     1 RES1   0.0000
    39 N3B     -3.2058   6.0266   8.8026   N.2       1 RES1   0.0000
    40 N4B     -3.6730   5.5399   7.6168   N.pl3     1 RES1   0.0000
    41 N5B     -5.4373   4.8555   9.7652   N.2       1 RES1   0.0000
    42 N6B     -5.6141   4.4981   8.4584   N.pl3     1 RES1   0.0000
    43 C1B     -4.4281   4.3145   7.6485   C.3       1 RES1   0.0000
    44 H1B     -4.7041   4.0787   6.7175   H         1 RES1   0.0000
    45 C2B     -2.5178   2.2342   9.6971   C.2       1 RES1   0.0000
    46 H2B     -2.0934   2.0178  10.5188   H         1 RES1   0.0000
    47 C3B     -2.5217   1.4100   8.5622   C.2       1 RES1   0.0000
    48 H3B     -2.1148   0.5566   8.4772   H         1 RES1   0.0000
    49 C4B     -3.2334   2.0844   7.5984   C.2       1 RES1   0.0000
    50 C5B     -2.5828   7.1580   8.4901   C.2       1 RES1   0.0000
    51 H4B     -2.1542   7.7301   9.1160   H         1 RES1   0.0000
    52 C6B     -2.6462   7.3899   7.1055   C.2       1 RES1   0.0000
    53 H5B     -2.2801   8.1293   6.6361   H         1 RES1   0.0000
    54 C7B     -3.3427   6.3373   6.5678   C.2       1 RES1   0.0000
    55 C8B     -6.6621   5.0239  10.2493   C.2       1 RES1   0.0000
    56 H6B     -6.8595   5.2751  11.1429   H         1 RES1   0.0000
    57 C9B     -7.6254   4.7803   9.2592   C.2       1 RES1   0.0000
    58 H7B     -8.5691   4.8348   9.3560   H         1 RES1   0.0000
    59 C10B    -6.9328   4.4472   8.1213   C.2       1 RES1   0.0000
    60 C11B    -3.5363   1.7917   6.1599   C.3       1 RES1   0.0000
    61 H8B     -4.5070   1.7470   6.0328   H         1 RES1   0.0000
    62 H9B     -3.1656   2.5032   5.5965   H         1 RES1   0.0000
    63 H10B    -3.1349   0.9337   5.9096   H         1 RES1   0.0000
    64 C12B    -3.7173   5.9877   5.1640   C.3       1 RES1   0.0000
    65 H11B    -3.2774   6.6059   4.5444   H         1 RES1   0.0000
    66 H12B    -3.4312   5.0705   4.9682   H         1 RES1   0.0000
    67 H13B    -4.6894   6.0563   5.0579   H         1 RES1   0.0000
    68 C13B    -7.3773   4.0768   6.7352   C.3       1 RES1   0.0000
    69 H14B    -6.9823   4.6974   6.0891   H         1 RES1   0.0000
    70 H15B    -7.0855   3.1631   6.5317   H         1 RES1   0.0000
    71 H16B    -8.3544   4.1278   6.6820   H         1 RES1   0.0000
    72 N7      -1.0690   4.1158   6.3701   N.1       2 RES2   0.0000
    73 C14      0.0486   4.2136   6.6281   C.1       2 RES2   0.0000
    74 C15      1.9110   5.9642   7.1554   C.ar      2 RES2   0.0000
    75 C16      0.9628   6.8139   7.7362   C.ar      2 RES2   0.0000
    76 H17      0.1355   6.4444   8.0221   H         2 RES2   0.0000
    77 C17      1.1805   8.1746   7.9125   C.ar      2 RES2   0.0000
    78 H18      0.5092   8.7139   8.3123   H         2 RES2   0.0000
    79 C18      2.3749   8.7469   7.5067   C.ar      2 RES2   0.0000
    80 H19      2.5288   9.6777   7.6193   H         2 RES2   0.0000
    81 C19      3.3424   7.9353   6.9333   C.ar      2 RES2   0.0000
    82 H20      4.1689   8.3118   6.6528   H         2 RES2   0.0000
    83 C20      3.1124   6.5712   6.7646   C.ar      2 RES2   0.0000
    84 H21      3.7917   6.0353   6.3730   H         2 RES2   0.0000
    85 C21      1.8995   3.5381   8.3664   C.ar      2 RES2   0.0000
    86 C22      3.0135   3.8163   9.1730   C.ar      2 RES2   0.0000
    87 H22      3.5670   4.5560   8.9490   H         2 RES2   0.0000
    88 C23      3.3381   3.0494  10.2879   C.ar      2 RES2   0.0000
    89 H23      4.1083   3.2613  10.8026   H         2 RES2   0.0000
    90 C24      2.5375   1.9773  10.6444   C.ar      2 RES2   0.0000
    91 H24      2.7545   1.4451  11.4017   H         2 RES2   0.0000
    92 C25      1.4114   1.6877   9.8829   C.ar      2 RES2   0.0000
    93 H25      0.8440   0.9668  10.1284   H         2 RES2   0.0000
    94 C26      1.1139   2.4532   8.7607   C.ar      2 RES2   0.0000
    95 H26      0.3487   2.2304   8.2434   H         2 RES2   0.0000
    96 C27      2.4832   3.6952   5.7577   C.ar      2 RES2   0.0000
    97 C28      3.6143   2.9081   5.9827   C.ar      2 RES2   0.0000
    98 H27      3.8789   2.7328   6.8782   H         2 RES2   0.0000
    99 C29      4.3683   2.3703   4.9448   C.ar      2 RES2   0.0000
   100 H28      5.1388   1.8503   5.1414   H         2 RES2   0.0000
   101 C30      4.0039   2.5879   3.6312   C.ar      2 RES2   0.0000
   102 H29      4.5183   2.2234   2.9204   H         2 RES2   0.0000
   103 C31      2.8806   3.3452   3.3688   C.ar      2 RES2   0.0000
   104 H30      2.6132   3.4980   2.4695   H         2 RES2   0.0000
   105 C32      2.1382   3.8866   4.4156   C.ar      2 RES2   0.0000
   106 H31      1.3694   4.4056   4.2104   H         2 RES2   0.0000
   107 B1       1.6223   4.3598   6.9845   B         2 RES2  -1.0000
   108 N8      -1.0755   8.7461  11.2226   N.1       3 RES3   0.0000
   109 C33     -0.0351   8.7984  11.6781   C.1       3 RES3   0.0000
   110 C34      1.3007   8.8834  12.2513   C.3       3 RES3   0.0000
   111 H32      1.3499   9.6576  12.8505   H         3 RES3   0.0000
   112 H33      1.9587   8.9837  11.5333   H         3 RES3   0.0000
   113 H34      1.4921   8.0661  12.7565   H         3 RES3   0.0000
@<TRIPOS>BOND
     1     1     2    1
     2     2     3    1
     3     3     8    1
     4     4     1    1
     5     5     4    1
     6     6     1    1
     7     7     6    1
     8     8     5    1
     9     9     8    1
    10    10     2    2
    11    11    10    1
    12    12    10    1
    13    13    12    1
    14    14     3    1
    15    15     4    2
    16    16    15    1
    17    17    15    1
    18    18    17    1
    19    19     5    1
    20    20     6    2
    21    21    20    1
    22    22    20    1
    23    23    22    1
    24    24     7    1
    25    25    14    1
    26    26    25    1
    27    27    25    1
    28    28    25    1
    29    29    19    1
    30    30    29    1
    31    31    29    1
    32    32    29    1
    33    33    24    1
    34    34    33    1
    35    35    33    1
    36    36    33    1
    37    37     1    1
    38    38    37    1
    39    39     1    1
    40    40    39    1
    41    41     1    1
    42    42    41    1
    43    43    38    1
    44    44    43    1
    45    45    37    2
    46    46    45    1
    47    47    45    1
    48    48    47    1
    49    49    38    1
    50    50    39    2
    51    51    50    1
    52    52    50    1
    53    53    52    1
    54    54    40    1
    55    55    41    2
    56    56    55    1
    57    57    55    1
    58    58    57    1
    59    59    42    1
    60    60    49    1
    61    61    60    1
    62    62    60    1
    63    63    60    1
    64    64    54    1
    65    65    64    1
    66    66    64    1
    67    67    64    1
    68    68    59    1
    69    69    68    1
    70    70    68    1
    71    71    68    1
    72     7     8    1
    73    12    14    2
    74    17    19    2
    75    22    24    2
    76    40    43    1
    77    42    43    1
    78    47    49    2
    79    52    54    2
    80    57    59    2
    81    72    73    3
    82    73   107    1
    83    74    75   ar
    84    75    76    1
    85    77    75   ar
    86    78    77    1
    87    79    77   ar
    88    80    79    1
    89    81    79   ar
    90    82    81    1
    91    83    74   ar
    92    84    83    1
    93    85    86   ar
    94    86    87    1
    95    88    86   ar
    96    89    88    1
    97    90    88   ar
    98    91    90    1
    99    92    90   ar
   100    93    92    1
   101    94    85   ar
   102    95    94    1
   103    96    97   ar
   104    97    98    1
   105    99    97   ar
   106   100    99    1
   107   101    99   ar
   108   102   101    1
   109   103   101   ar
   110   104   103    1
   111   105    96   ar
   112   106   105    1
   113   107    74    1
   114    81    83   ar
   115    85   107    1
   116    92    94   ar
   117    96   107    1
   118   103   105   ar
   119   108   109    3
   120   109   110    1
   121   110   111    1
   122   112   110    1
   123   113   110    1
@<TRIPOS>SUBSTRUCTURE
     1 RES1        1 GROUP             0 ****  ****    0  
     2 RES2       72 GROUP             0 ****  ****    0  
     3 RES3      108 GROUP             0 ****  ****    0  
@<TRIPOS>CRYSIN
   14.6268   10.0287   22.0860   90.0000  109.0640   90.0000    14     1
