@<TRIPOS>MOLECULE
QAYCUP
   112   115     9     0     0
SMALL
USER_CHARGES
****
Generated from the CSD

@<TRIPOS>ATOM
     1 Fe1      5.6480   7.6730  13.2882   Fe        1 RES1   2.0000
     2 N1       7.4463   7.5888  12.4581   N.ar      1 RES1   0.0000
     3 N2       5.2718   6.2176  11.9909   N.ar      1 RES1   0.0000
     4 C1       8.5279   8.3445  12.6766   C.ar      1 RES1   0.0000
     5 H1       8.4627   9.0570  13.2722   H         1 RES1   0.0000
     6 C2       9.7462   8.1050  12.0458   C.ar      1 RES1   0.0000
     7 H2      10.4784   8.6494  12.2287   H         1 RES1   0.0000
     8 C3       9.8687   7.0780  11.1624   C.ar      1 RES1   0.0000
     9 H3      10.6829   6.9122  10.7457   H         1 RES1   0.0000
    10 C4       8.7603   6.2723  10.8880   C.ar      1 RES1   0.0000
    11 C5       8.7718   5.1545   9.9923   C.ar      1 RES1   0.0000
    12 H4       9.5597   4.9259   9.5533   H         1 RES1   0.0000
    13 C6       7.6530   4.4287   9.7760   C.ar      1 RES1   0.0000
    14 H5       7.6861   3.7101   9.1848   H         1 RES1   0.0000
    15 C7       6.4244   4.7343  10.4300   C.ar      1 RES1   0.0000
    16 C8       5.2171   4.0259  10.2468   C.ar      1 RES1   0.0000
    17 H6       5.1821   3.2976   9.6685   H         1 RES1   0.0000
    18 C9       4.1064   4.4227  10.9278   C.ar      1 RES1   0.0000
    19 H7       3.3072   3.9593  10.8183   H         1 RES1   0.0000
    20 C10      4.1587   5.5150  11.7824   C.ar      1 RES1   0.0000
    21 H8       3.3827   5.7666  12.2287   H         1 RES1   0.0000
    22 C11      7.5695   6.5799  11.5538   C.ar      1 RES1   0.0000
    23 C12      6.3915   5.8210  11.3135   C.ar      1 RES1   0.0000
    24 N3       6.1643   9.1499  14.4783   N.ar      1 RES1   0.0000
    25 C13      6.7273   9.1090  15.6926   C.ar      1 RES1   0.0000
    26 H9       6.8860   8.2816  16.0875   H         1 RES1   0.0000
    27 C14      7.0830  10.2679  16.3831   C.ar      1 RES1   0.0000
    28 H10      7.4776  10.2050  17.2232   H         1 RES1   0.0000
    29 C15      6.8538  11.4958  15.8283   C.ar      1 RES1   0.0000
    30 H11      7.0939  12.2676  16.2878   H         1 RES1   0.0000
    31 C16      6.2583  11.5853  14.5720   C.ar      1 RES1   0.0000
    32 C17      5.9425  12.7998  13.8829   C.ar      1 RES1   0.0000
    33 H12      6.1552  13.6128  14.2804   H         1 RES1   0.0000
    34 C18      5.9401  10.3766  13.9357   C.ar      1 RES1   0.0000
    35 N1B      3.8496   7.5888  14.1182   N.ar      1 RES1   0.0000
    36 N2B      6.0242   6.2176  14.5854   N.ar      1 RES1   0.0000
    37 C1B      2.7681   8.3445  13.8998   C.ar      1 RES1   0.0000
    38 H1B      2.8333   9.0570  13.3041   H         1 RES1   0.0000
    39 C2B      1.5498   8.1050  14.5305   C.ar      1 RES1   0.0000
    40 H2B      0.8176   8.6494  14.3477   H         1 RES1   0.0000
    41 C3B      1.4272   7.0780  15.4139   C.ar      1 RES1   0.0000
    42 H3B      0.6131   6.9122  15.8306   H         1 RES1   0.0000
    43 C4B      2.5357   6.2723  15.6884   C.ar      1 RES1   0.0000
    44 C5B      2.5241   5.1545  16.5840   C.ar      1 RES1   0.0000
    45 H4B      1.7363   4.9259  17.0230   H         1 RES1   0.0000
    46 C6B      3.6430   4.4287  16.8003   C.ar      1 RES1   0.0000
    47 H5B      3.6099   3.7101  17.3916   H         1 RES1   0.0000
    48 C7B      4.8716   4.7343  16.1464   C.ar      1 RES1   0.0000
    49 C8B      6.0789   4.0259  16.3296   C.ar      1 RES1   0.0000
    50 H6B      6.1139   3.2976  16.9079   H         1 RES1   0.0000
    51 C9B      7.1896   4.4227  15.6485   C.ar      1 RES1   0.0000
    52 H7B      7.9888   3.9593  15.7580   H         1 RES1   0.0000
    53 C10B     7.1373   5.5150  14.7940   C.ar      1 RES1   0.0000
    54 H8B      7.9132   5.7666  14.3477   H         1 RES1   0.0000
    55 C11B     3.7264   6.5799  15.0225   C.ar      1 RES1   0.0000
    56 C12B     4.9045   5.8210  15.2628   C.ar      1 RES1   0.0000
    57 N3B      5.1317   9.1499  12.0981   N.ar      1 RES1   0.0000
    58 C13B     4.5687   9.1090  10.8837   C.ar      1 RES1   0.0000
    59 H9B      4.4100   8.2816  10.4888   H         1 RES1   0.0000
    60 C14B     4.2130  10.2679  10.1933   C.ar      1 RES1   0.0000
    61 H10B     3.8184  10.2050   9.3531   H         1 RES1   0.0000
    62 C15B     4.4422  11.4958  10.7480   C.ar      1 RES1   0.0000
    63 H11B     4.2021  12.2676  10.2886   H         1 RES1   0.0000
    64 C16B     5.0377  11.5853  12.0044   C.ar      1 RES1   0.0000
    65 C17B     5.3534  12.7998  12.6934   C.ar      1 RES1   0.0000
    66 H12B     5.1408  13.6128  12.2960   H         1 RES1   0.0000
    67 C18B     5.3559  10.3766  12.6406   C.ar      1 RES1   0.0000
    68 O1       2.0921  13.6085  12.6344   O.co2     2 RES2   0.0000
    69 O2       1.7103  11.5416  13.3886   O.co2     2 RES2  -1.0000
    70 C19      2.0570  12.7248  13.5516   C.2       2 RES2   0.0000
    71 C20      2.4725  13.1857  14.9430   C.3       2 RES2   0.0000
    72 H13      3.2342  13.7797  14.8509   H         2 RES2   0.0000
    73 H14      1.7440  13.7047  15.3204   H         2 RES2   0.0000
    74 C21      2.8401  12.0885  15.9323   C.3       2 RES2   0.0000
    75 H15      2.0403  11.5877  16.1602   H         2 RES2   0.0000
    76 H16      3.4615  11.4764  15.5082   H         2 RES2   0.0000
    77 C22      3.4684  12.6293  17.2080   C.3       2 RES2   0.0000
    78 H17      4.2739  13.1156  16.9752   H         2 RES2   0.0000
    79 H18      2.8537  13.2583  17.6148   H         2 RES2   0.0000
    80 O1D      5.1966  10.5855  22.8007   O.co2     2 RES2   0.0000
    81 O2D      5.5783  12.6524  22.0465   O.co2     2 RES2  -1.0000
    82 C19D     5.2316  11.4692  21.8835   C.2       2 RES2   0.0000
    83 C20D     4.8162  11.0083  20.4921   C.3       2 RES2   0.0000
    84 H13D     4.0544  10.4143  20.5843   H         2 RES2   0.0000
    85 H14D     5.5446  10.4893  20.1147   H         2 RES2   0.0000
    86 C21D     4.4485  12.1055  19.5028   C.3       2 RES2   0.0000
    87 H15D     5.2483  12.6063  19.2749   H         2 RES2   0.0000
    88 H16D     3.8271  12.7176  19.9269   H         2 RES2   0.0000
    89 C22D     3.8203  11.5647  18.2271   C.3       2 RES2   0.0000
    90 H17D     3.0147  11.0784  18.4599   H         2 RES2   0.0000
    91 H18D     4.4350  10.9357  17.8203   H         2 RES2   0.0000
    92 O3       3.4914   2.1616   8.3287   O.3       3 RES3   0.0000
    93 H19      2.8530   1.7529   8.7861   H         3 RES3   0.0000
    94 H20      3.4690   1.6549   7.6203   H         3 RES3   0.0000
    95 O4       3.1109   6.9777   8.7445   O.3       4 RES4   0.0000
    96 H21      2.4744   7.2038   9.3035   H         4 RES4   0.0000
    97 H22      2.8177   6.2312   8.4672   H         4 RES4   0.0000
    98 O5      11.0864   5.3498  14.8941   O.3       5 RES5   0.0000
    99 H23     10.5470   4.9731  14.3193   H         5 RES5   0.0000
   100 H24     11.8992   5.4461  14.5621   H         5 RES5   0.0000
   101 O6       9.9844   7.6578  15.8951   O.3       6 RES6   0.0000
   102 H25     10.2022   8.3844  15.4940   H         6 RES6   0.0000
   103 H26     10.3386   6.9642  15.5224   H         6 RES6   0.0000
   104 O7       9.5850   4.0639  13.1083   O.3       7 RES7   0.0000
   105 H27     10.1309   3.8553  12.4608   H         7 RES7   0.0000
   106 H28      9.4621   3.2275  13.3980   H         7 RES7   0.0000
   107 O8      10.9478  10.1099  15.0555   O.3       8 RES8   0.0000
   108 H29     10.8272  10.4167  15.8289   H         8 RES8   0.0000
   109 H30     10.3822  10.5147  14.5497   H         8 RES8   0.0000
   110 O9       2.2096   4.5625   7.6765   O.3       9 RES9   0.0000
   111 H31      2.6107   3.8069   7.6930   H         9 RES9   0.0000
   112 H32      1.9641   4.5630   6.8337   H         9 RES9   0.0000
@<TRIPOS>BOND
     1     1     2    1
     2     2     4   ar
     3     3     1    1
     4     4     5    1
     5     6     4   ar
     6     7     6    1
     7     8     6   ar
     8     9     8    1
     9    10     8   ar
    10    11    10   ar
    11    12    11    1
    12    13    11   ar
    13    14    13    1
    14    15    13   ar
    15    16    15   ar
    16    17    16    1
    17    18    16   ar
    18    19    18    1
    19    20     3   ar
    20    21    20    1
    21    22     2   ar
    22    23     3   ar
    23    24     1    1
    24    25    24   ar
    25    26    25    1
    26    27    25   ar
    27    28    27    1
    28    29    27   ar
    29    30    29    1
    30    31    29   ar
    31    32    31   ar
    32    33    32    1
    33    34    24   ar
    34    35     1    1
    35    36     1    1
    36    37    35   ar
    37    38    37    1
    38    39    37   ar
    39    40    39    1
    40    41    39   ar
    41    42    41    1
    42    43    41   ar
    43    44    43   ar
    44    45    44    1
    45    46    44   ar
    46    47    46    1
    47    48    46   ar
    48    49    48   ar
    49    50    49    1
    50    51    49   ar
    51    52    51    1
    52    53    36   ar
    53    54    53    1
    54    55    35   ar
    55    56    36   ar
    56    57     1    1
    57    58    57   ar
    58    59    58    1
    59    60    58   ar
    60    61    60    1
    61    62    60   ar
    62    63    62    1
    63    64    62   ar
    64    65    32   ar
    65    66    65    1
    66    67    34   ar
    67    10    22   ar
    68    15    23   ar
    69    18    20   ar
    70    22    23   ar
    71    31    34   ar
    72    43    55   ar
    73    48    56   ar
    74    51    53   ar
    75    55    56   ar
    76    57    67   ar
    77    64    65   ar
    78    64    67   ar
    79    68    70    2
    80    69    70    1
    81    70    71    1
    82    71    72    1
    83    73    71    1
    84    74    71    1
    85    75    74    1
    86    76    74    1
    87    77    74    1
    88    78    77    1
    89    79    77    1
    90    80    82    2
    91    81    82    1
    92    82    83    1
    93    83    84    1
    94    85    83    1
    95    86    83    1
    96    87    86    1
    97    88    86    1
    98    89    77    1
    99    90    89    1
   100    91    89    1
   101    86    89    1
   102    92    93    1
   103    94    92    1
   104    95    96    1
   105    97    95    1
   106    98    99    1
   107   100    98    1
   108   101   102    1
   109   103   101    1
   110   104   105    1
   111   106   104    1
   112   107   108    1
   113   109   107    1
   114   110   111    1
   115   112   110    1
@<TRIPOS>SUBSTRUCTURE
     1 RES1        1 GROUP             0 ****  ****    0  
     2 RES2       68 GROUP             0 ****  ****    0  
     3 RES3       92 GROUP             0 ****  ****    0  
     4 RES4       95 GROUP             0 ****  ****    0  
     5 RES5       98 GROUP             0 ****  ****    0  
     6 RES6      101 GROUP             0 ****  ****    0  
     7 RES7      104 GROUP             0 ****  ****    0  
     8 RES8      107 GROUP             0 ****  ****    0  
     9 RES9      110 GROUP             0 ****  ****    0  
@<TRIPOS>CRYSIN
   23.3180   12.0970   19.4460   90.0000  114.3400   90.0000    15     1
