@<TRIPOS>MOLECULE
QEHPIF
   220   222     6     0     0
SMALL
USER_CHARGES
****
Generated from the CSD

@<TRIPOS>ATOM
     1 Fe1     11.6473   4.0701  26.2271   Fe        1 RES1   1.0000
     2 S1      13.1052   4.2942  27.8830   S.3       1 RES1   0.0000
     3 S2      12.9871   4.9144  24.6316   S.3       1 RES1   0.0000
     4 S3       9.8077   0.4663  27.8848   S.3       1 RES1   0.0000
     5 S4       7.9780   5.4253  24.2661   S.3       1 RES1   0.0000
     6 N1      10.4824   2.8456  27.2760   N.2       1 RES1   0.0000
     7 N2      10.8389   5.6665  26.9493   N.2       1 RES1   0.0000
     8 N3      12.3616   2.3836  25.6345   N.2       1 RES1   0.0000
     9 N4      13.4074   2.2412  24.7553   N.2       1 RES1   0.0000
    10 N5      13.1217   6.2995  29.5391   N.pl3     1 RES1   0.0000
    11 H1      13.8654   5.8739  29.7356   H         1 RES1   0.0000
    12 N6      10.1238   4.2460  24.9864   N.2       1 RES1   0.0000
    13 N7      11.3321   6.3553  28.0304   N.2       1 RES1   0.0000
    14 N8      14.7517   3.4446  23.2998   N.pl3     1 RES1   0.0000
    15 H2      14.9259   4.2439  22.9784   H         1 RES1   0.0000
    16 C1      11.8548   1.2778  26.1233   C.2       1 RES1   0.0000
    17 C2      10.7884   1.5732  27.0370   C.2       1 RES1   0.0000
    18 C3      13.7669   3.3924  24.2374   C.2       1 RES1   0.0000
    19 C4       9.7001   6.0792  26.4234   C.2       1 RES1   0.0000
    20 C5      12.4292   5.7914  28.5005   C.2       1 RES1   0.0000
    21 C6       9.4121   2.9677  28.1260   C.2       1 RES1   0.0000
    22 H3       9.0362   3.8044  28.3730   H         1 RES1   0.0000
    23 C7      15.5449   2.3723  22.7606   C.ar      1 RES1   0.0000
    24 C8       9.3208   5.2709  25.3291   C.2       1 RES1   0.0000
    25 C9      12.2838  -0.0985  25.7806   C.3       1 RES1   0.0000
    26 H4      12.6375  -0.1123  24.8669   H         1 RES1   0.0000
    27 H5      11.5163  -0.7043  25.8417   H         1 RES1   0.0000
    28 H6      12.9809  -0.3884  26.4048   H         1 RES1   0.0000
    29 C10     12.8278   7.4155  30.3572   C.ar      1 RES1   0.0000
    30 C11     16.5144   2.7840  21.8230   C.ar      1 RES1   0.0000
    31 H7      16.5905   3.6983  21.5759   H         1 RES1   0.0000
    32 C12      8.9407   1.7744  28.5802   C.2       1 RES1   0.0000
    33 H8       8.2269   1.6783  29.1991   H         1 RES1   0.0000
    34 C13     17.3564   1.8298  21.2625   C.ar      1 RES1   0.0000
    35 H9      18.0110   2.1003  20.6303   H         1 RES1   0.0000
    36 C14      9.6871   3.6016  23.8894   C.2       1 RES1   0.0000
    37 H10     10.1393   2.8505  23.5229   H         1 RES1   0.0000
    38 C15     13.7694   7.6966  31.3240   C.ar      1 RES1   0.0000
    39 H11     14.5504   7.1587  31.3745   H         1 RES1   0.0000
    40 C16     11.6841   8.1996  30.2748   C.ar      1 RES1   0.0000
    41 H12     11.0263   8.0206  29.6134   H         1 RES1   0.0000
    42 C17     16.2881   0.1163  22.5003   C.ar      1 RES1   0.0000
    43 H13     16.2080  -0.8030  22.7260   H         1 RES1   0.0000
    44 C18     15.4282   1.0286  23.0740   C.ar      1 RES1   0.0000
    45 H14     14.7576   0.7365  23.6796   H         1 RES1   0.0000
    46 C19      8.5440   4.1091  23.3396   C.2       1 RES1   0.0000
    47 H15      8.1245   3.7763  22.5560   H         1 RES1   0.0000
    48 C20     11.5105   9.2601  31.1779   C.ar      1 RES1   0.0000
    49 H16     10.7307   9.8009  31.1301   H         1 RES1   0.0000
    50 C21      8.8799   7.2118  26.9334   C.3       1 RES1   0.0000
    51 H17      8.3041   6.8972  27.6612   H         1 RES1   0.0000
    52 H18      8.3259   7.5661  26.2056   H         1 RES1   0.0000
    53 H19      9.4709   7.9179  27.2681   H         1 RES1   0.0000
    54 C22     12.4708   9.5205  32.1368   C.ar      1 RES1   0.0000
    55 H20     12.3472  10.2400  32.7451   H         1 RES1   0.0000
    56 C23     17.2641   0.5091  21.6051   C.ar      1 RES1   0.0000
    57 H21     17.8625  -0.1288  21.2333   H         1 RES1   0.0000
    58 C24     13.6125   8.7392  32.2218   C.ar      1 RES1   0.0000
    59 H22     14.2735   8.9153  32.8805   H         1 RES1   0.0000
    60 S5      15.8418  10.7079  23.3027   S.o2      2 RES2   0.0000
    61 O1      15.1402  10.8643  24.5588   O.3       2 RES2  -1.0000
    62 O2      17.0068   9.8660  23.4645   O.2       2 RES2   0.0000
    63 O3      16.2031  11.9504  22.6570   O.2       2 RES2   0.0000
    64 C25      3.1820   9.7809  10.3909   C.3       2 RES2   0.0000
    65 H23      2.5570  10.2952  10.9593   H         2 RES2   0.0000
    66 H24      3.6962  10.4352   9.8543   H         2 RES2   0.0000
    67 C26      6.6503  10.0756  14.0803   C.3       2 RES2   0.0000
    68 H25      5.9987  10.5704  14.6381   H         2 RES2   0.0000
    69 H26      7.1522  10.7424  13.5490   H         2 RES2   0.0000
    70 C27      8.3942  10.2445  15.9502   C.3       2 RES2   0.0000
    71 H27      7.7421  10.7629  16.4841   H         2 RES2   0.0000
    72 H28      8.9144  10.8918  15.4110   H         2 RES2   0.0000
    73 C28     10.0872  10.4230  17.8573   C.3       2 RES2   0.0000
    74 H29      9.4286  10.9280  18.3965   H         2 RES2   0.0000
    75 H30     10.6102  11.0820  17.3367   H         2 RES2   0.0000
    76 C29      4.9192   9.9102  12.2289   C.3       2 RES2   0.0000
    77 H31      4.2763  10.4093  12.7920   H         2 RES2   0.0000
    78 H32      5.4230  10.5769  11.6950   H         2 RES2   0.0000
    79 C30      5.8947   9.2023  13.1400   C.3       2 RES2   0.0000
    80 H33      5.3942   8.5313  13.6686   H         2 RES2   0.0000
    81 H34      6.5460   8.7114  12.5769   H         2 RES2   0.0000
    82 C31      9.3406   9.5613  16.9011   C.3       2 RES2   0.0000
    83 H35      8.8220   8.9012  17.4270   H         2 RES2   0.0000
    84 H36     10.0016   9.0564  16.3646   H         2 RES2   0.0000
    85 C32      4.1390   9.0572  11.2833   C.3       2 RES2   0.0000
    86 H37      3.6301   8.3930  11.8119   H         2 RES2   0.0000
    87 H38      4.7775   8.5565  10.7149   H         2 RES2   0.0000
    88 C33      7.6284   9.3682  15.0046   C.3       2 RES2   0.0000
    89 H39      7.1251   8.7029  15.5385   H         2 RES2   0.0000
    90 H40      8.2779   8.8707  14.4468   H         2 RES2   0.0000
    91 C34      2.3779   8.9460   9.4559   C.3       2 RES2   0.0000
    92 H41      1.8540   8.2942   9.9845   H         2 RES2   0.0000
    93 H42      2.9967   8.4327   8.8769   H         2 RES2   0.0000
    94 C35     11.0272   9.7177  18.8029   C.3       2 RES2   0.0000
    95 H43     10.5079   9.0459  19.3102   H         2 RES2   0.0000
    96 H44     11.6960   9.2264  18.2637   H         2 RES2   0.0000
    97 C36     13.6375  10.6536  21.5866   C.3       2 RES2   0.0000
    98 H45     13.9982  11.4487  21.1191   H         2 RES2   0.0000
    99 H46     13.0404  10.9703  22.3090   H         2 RES2   0.0000
   100 C37     12.8282   9.8140  20.5985   C.3       2 RES2   0.0000
   101 H47     12.3763   9.0900  21.1005   H         2 RES2   0.0000
   102 H48     13.4569   9.3873  19.9636   H         2 RES2   0.0000
   103 C38     14.7704   9.8761  22.1868   C.3       2 RES2   0.0000
   104 H49     15.3219   9.5231  21.4431   H         2 RES2   0.0000
   105 H50     14.3854   9.0963  22.6596   H         2 RES2   0.0000
   106 C39     11.7656  10.5834  19.7910   C.3       2 RES2   0.0000
   107 H51     11.1136  10.9838  20.4178   H         2 RES2   0.0000
   108 H52     12.2071  11.3229  19.3023   H         2 RES2   0.0000
   109 C40      1.4270   9.7274   8.5687   C.3       2 RES2   0.0000
   110 H53      0.9623   9.1119   7.9658   H         2 RES2   0.0000
   111 H54      1.9333  10.3807   8.0428   H         2 RES2   0.0000
   112 H55      0.7714  10.1949   9.1292   H         2 RES2   0.0000
   113 O4      15.4529   5.8136  21.9425   O.3       3 RES3   0.0000
   114 H56     15.5068   6.2876  22.6331   H         3 RES3   0.0000
   115 C41     13.9555   5.3704  20.1177   C.3       3 RES3   0.0000
   116 H57     13.4489   4.7079  20.6516   H         3 RES3   0.0000
   117 H58     14.6782   4.8977  19.6343   H         3 RES3   0.0000
   118 C42      7.7457   5.5206  13.5437   C.3       3 RES3   0.0000
   119 H59      8.2523   6.1874  13.0151   H         3 RES3   0.0000
   120 H60      7.0953   6.0153  14.1015   H         3 RES3   0.0000
   121 C43     10.4611   4.9634  16.3167   C.3       3 RES3   0.0000
   122 H61      9.9602   4.3068  16.8639   H         3 RES3   0.0000
   123 H62     11.1034   4.4617  15.7563   H         3 RES3   0.0000
   124 C44      6.0107   5.3494  11.6844   C.3       3 RES3   0.0000
   125 H63      5.3594   5.8403  12.2475   H         3 RES3   0.0000
   126 H64      6.5096   6.0190  11.1558   H         3 RES3   0.0000
   127 C45     11.2348   5.8731  17.2437   C.3       3 RES3   0.0000
   128 H65     10.5882   6.3840  17.7936   H         3 RES3   0.0000
   129 H66     11.7392   6.5242  16.6966   H         3 RES3   0.0000
   130 C46      9.4831   5.6906  15.4083   C.3       3 RES3   0.0000
   131 H67      9.9858   6.3588  14.8798   H         3 RES3   0.0000
   132 H68      8.8388   6.1844  15.9768   H         3 RES3   0.0000
   133 C47      4.2541   5.1580   9.8331   C.3       3 RES3   0.0000
   134 H69      4.7412   5.8257   9.2912   H         3 RES3   0.0000
   135 H70      3.6110   5.6519  10.4015   H         3 RES3   0.0000
   136 C48      8.7034   4.8069  14.4495   C.3       3 RES3   0.0000
   137 H71      9.3488   4.3079  13.8890   H         3 RES3   0.0000
   138 H72      8.1946   4.1428  14.9780   H         3 RES3   0.0000
   139 C49      3.4731   4.2686   8.9008   C.3       3 RES3   0.0000
   140 H73      4.1175   3.8026   8.3111   H         3 RES3   0.0000
   141 H74      3.0187   3.5764   9.4453   H         3 RES3   0.0000
   142 C50      5.2431   4.4646  10.7309   C.3       3 RES3   0.0000
   143 H75      5.8957   3.9857  10.1598   H         3 RES3   0.0000
   144 H76      4.7574   3.7855  11.2621   H         3 RES3   0.0000
   145 C51      6.9852   4.6387  12.5955   C.3       3 RES3   0.0000
   146 H77      6.4861   3.9678  13.1267   H         3 RES3   0.0000
   147 H78      7.6368   4.1479  12.0350   H         3 RES3   0.0000
   148 C52     12.2076   5.1755  18.1761   C.3       3 RES3   0.0000
   149 H79     11.7028   4.5345  18.7365   H         3 RES3   0.0000
   150 H80     12.8492   4.6553  17.6315   H         3 RES3   0.0000
   151 C53     12.9910   6.1012  19.0898   C.3       3 RES3   0.0000
   152 H81     12.3492   6.6556  19.5998   H         3 RES3   0.0000
   153 H82     13.5318   6.7106  18.5267   H         3 RES3   0.0000
   154 C54      2.4437   4.9305   8.0349   C.3       3 RES3   0.0000
   155 H83      1.8125   5.4234   8.6166   H         3 RES3   0.0000
   156 H84      2.8968   5.5955   7.4585   H         3 RES3   0.0000
   157 C55     14.5332   6.4237  21.0102   C.3       3 RES3   0.0000
   158 H85     15.0093   7.1009  20.4657   H         3 RES3   0.0000
   159 H86     13.8071   6.8805  21.5042   H         3 RES3   0.0000
   160 C56      1.6571   4.0023   7.1610   C.3       3 RES3   0.0000
   161 H87      2.2627   3.5500   6.5368   H         3 RES3   0.0000
   162 H88      0.9911   4.5157   6.6563   H         3 RES3   0.0000
   163 H89      1.2036   3.3365   7.7161   H         3 RES3   0.0000
   164 O5      16.0019   7.2777  24.0408   O.3       4 RES4   0.0000
   165 H90     16.1398   6.9840  24.8483   H         4 RES4   0.0000
   166 H91     16.3694   8.0630  23.9532   H         4 RES4   0.0000
   167 O6      15.9845   5.8039  26.4447   O.3       5 RES5   0.0000
   168 H92     15.1874   5.2038  26.5137   H         5 RES5   0.0000
   169 H93     16.2520   5.8615  27.3584   H         5 RES5   0.0000
   170 O7      15.9044  14.5986  22.7393   O.3       6 RES6   0.0000
   171 H94     15.9083  13.7596  22.7818   H         6 RES6   0.0000
   172 C57     16.7936  15.0285  21.7087   C.3       6 RES6   0.0000
   173 H95     17.2764  15.8373  22.0142   H         6 RES6   0.0000
   174 H96     17.4658  14.3195  21.5467   H         6 RES6   0.0000
   175 C58     14.4120  14.9450  18.7020   C.3       6 RES6   0.0000
   176 H97     14.1197  15.8833  18.8215   H         6 RES6   0.0000
   177 H98     15.1392  14.9967  18.0326   H         6 RES6   0.0000
   178 C59      7.4460  14.1340  11.3551   C.3       6 RES6   0.0000
   179 H99      8.0755  14.5589  10.7202   H         6 RES6   0.0000
   180 H100     6.9613  14.9000  11.7535   H         6 RES6   0.0000
   181 C60     10.9329  14.4656  15.0444   C.3       6 RES6   0.0000
   182 H101    10.5085  15.2972  15.3712   H         6 RES6   0.0000
   183 H102    11.6053  14.7859  14.3910   H         6 RES6   0.0000
   184 C61     11.7425  14.2457  16.0618   C.3       6 RES6   0.0000
   185 H103    12.1730  13.4143  15.7404   H         6 RES6   0.0000
   186 H104    11.0758  13.9298  16.7231   H         6 RES6   0.0000
   187 C62     15.1260  14.7636  19.8308   C.3       6 RES6   0.0000
   188 H105    14.4152  14.7249  20.5188   H         6 RES6   0.0000
   189 H106    15.4318  13.8274  19.7299   H         6 RES6   0.0000
   190 C63     12.6808  14.6530  16.8984   C.3       6 RES6   0.0000
   191 H107    13.3951  14.8500  16.2397   H         6 RES6   0.0000
   192 H108    12.3113  15.5447  17.1216   H         6 RES6   0.0000
   193 C64     13.4182  14.4738  17.9450   C.3       6 RES6   0.0000
   194 H109    13.7497  13.5581  17.7723   H         6 RES6   0.0000
   195 H110    12.7165  14.3518  18.6329   H         6 RES6   0.0000
   196 C65      8.2803  13.9178  12.3272   C.3       6 RES6   0.0000
   197 H111     8.7658  13.1505  11.9314   H         6 RES6   0.0000
   198 H112     7.6510  13.4957  12.9647   H         6 RES6   0.0000
   199 C66      9.1914  14.3012  13.1825   C.3       6 RES6   0.0000
   200 H113     8.7369  15.1114  13.5225   H         6 RES6   0.0000
   201 H114     9.8537  14.6546  12.5370   H         6 RES6   0.0000
   202 C67     10.0058  14.0977  14.1998   C.3       6 RES6   0.0000
   203 H115     9.3369  13.7775  14.8559   H         6 RES6   0.0000
   204 H116    10.4329  13.2647  13.8731   H         6 RES6   0.0000
   205 C68     16.1431  15.3153  20.5161   C.3       6 RES6   0.0000
   206 H117    15.8600  16.2574  20.6277   H         6 RES6   0.0000
   207 H118    16.8784  15.3426  19.8521   H         6 RES6   0.0000
   208 C69      6.5291  13.7624  10.4865   C.3       6 RES6   0.0000
   209 H119     5.9012  13.3404  11.1266   H         6 RES6   0.0000
   210 H120     7.0159  12.9939  10.0960   H         6 RES6   0.0000
   211 C70      4.8028  13.5677   8.6564   C.3       6 RES6   0.0000
   212 H121     4.1775  13.1290   9.2859   H         6 RES6   0.0000
   213 H122     5.3080  12.8127   8.2606   H         6 RES6   0.0000
   214 C71      5.6728  13.9560   9.4957   C.3       6 RES6   0.0000
   215 H123     5.1591  14.7015   9.8942   H         6 RES6   0.0000
   216 H124     6.2876  14.4056   8.8636   H         6 RES6   0.0000
   217 C72      3.9774  13.7702   7.6816   C.3       6 RES6   0.0000
   218 H125     4.3450  14.4492   7.0786   H         6 RES6   0.0000
   219 H126     3.1200  14.0822   8.0402   H         6 RES6   0.0000
   220 H127     3.8397  12.9335   7.1902   H         6 RES6   0.0000
@<TRIPOS>BOND
     1     1     2    1
     2     2    20    1
     3     3     1    1
     4     4    17    1
     5     5    24    1
     6     6     1    1
     7     7     1    1
     8     8     1    1
     9     9     8    1
    10    10    11    1
    11    12     1    1
    12    13     7    1
    13    14    15    1
    14    16     8    2
    15    17     6    2
    16    18     3    1
    17    19     7    2
    18    20    10    1
    19    21     6    1
    20    22    21    1
    21    23    14    1
    22    24    12    2
    23    25    16    1
    24    26    25    1
    25    27    25    1
    26    28    25    1
    27    29    10    1
    28    30    23   ar
    29    31    30    1
    30    32     4    1
    31    33    32    1
    32    34    30   ar
    33    35    34    1
    34    36    12    1
    35    37    36    1
    36    38    29   ar
    37    39    38    1
    38    40    29   ar
    39    41    40    1
    40    42    43    1
    41    44    23   ar
    42    45    44    1
    43    46     5    1
    44    47    46    1
    45    48    40   ar
    46    49    48    1
    47    50    19    1
    48    51    50    1
    49    52    50    1
    50    53    50    1
    51    54    48   ar
    52    55    54    1
    53    56    34   ar
    54    57    56    1
    55    58    38   ar
    56    59    58    1
    57     9    18    2
    58    13    20    2
    59    14    18    1
    60    16    17    1
    61    19    24    1
    62    21    32    2
    63    36    46    2
    64    42    44   ar
    65    42    56   ar
    66    54    58   ar
    67    60    61    1
    68    62    60    2
    69    63    60    2
    70    64    65    1
    71    66    64    1
    72    67    68    1
    73    69    67    1
    74    70    71    1
    75    72    70    1
    76    73    74    1
    77    75    73    1
    78    76    77    1
    79    78    76    1
    80    79    67    1
    81    80    79    1
    82    81    79    1
    83    82    70    1
    84    83    82    1
    85    84    82    1
    86    85    64    1
    87    86    85    1
    88    87    85    1
    89    88    67    1
    90    89    88    1
    91    90    88    1
    92    91    64    1
    93    92    91    1
    94    93    91    1
    95    94    73    1
    96    95    94    1
    97    96    94    1
    98    97    98    1
    99    99    97    1
   100   100    97    1
   101   101   100    1
   102   102   100    1
   103   103    60    1
   104   104   103    1
   105   105   103    1
   106   106    94    1
   107   107   106    1
   108   108   106    1
   109   109    91    1
   110   110   109    1
   111   111   109    1
   112   112   109    1
   113    70    88    1
   114    73    82    1
   115    76    79    1
   116    76    85    1
   117    97   103    1
   118   100   106    1
   119   113   114    1
   120   115   116    1
   121   117   115    1
   122   118   119    1
   123   120   118    1
   124   121   122    1
   125   123   121    1
   126   124   125    1
   127   126   124    1
   128   127   121    1
   129   128   127    1
   130   129   127    1
   131   130   121    1
   132   131   130    1
   133   132   130    1
   134   133   134    1
   135   135   133    1
   136   136   118    1
   137   137   136    1
   138   138   136    1
   139   139   133    1
   140   140   139    1
   141   141   139    1
   142   142   124    1
   143   143   142    1
   144   144   142    1
   145   145   118    1
   146   146   145    1
   147   147   145    1
   148   148   127    1
   149   149   148    1
   150   150   148    1
   151   151   115    1
   152   152   151    1
   153   153   151    1
   154   154   139    1
   155   155   154    1
   156   156   154    1
   157   157   113    1
   158   158   157    1
   159   159   157    1
   160   160   154    1
   161   161   160    1
   162   162   160    1
   163   163   160    1
   164   115   157    1
   165   124   145    1
   166   130   136    1
   167   133   142    1
   168   148   151    1
   169   164   165    1
   170   166   164    1
   171   167   168    1
   172   169   167    1
   173   170   171    1
   174   172   170    1
   175   173   172    1
   176   174   172    1
   177   175   176    1
   178   177   175    1
   179   178   179    1
   180   180   178    1
   181   181   182    1
   182   183   181    1
   183   184   181    1
   184   185   184    1
   185   186   184    1
   186   187   175    1
   187   188   187    1
   188   189   187    1
   189   190   184    1
   190   191   190    1
   191   192   190    1
   192   193   175    1
   193   194   193    1
   194   195   193    1
   195   196   178    1
   196   197   196    1
   197   198   196    1
   198   199   196    1
   199   200   199    1
   200   201   199    1
   201   202   181    1
   202   203   202    1
   203   204   202    1
   204   205   172    1
   205   206   205    1
   206   207   205    1
   207   208   178    1
   208   209   208    1
   209   210   208    1
   210   211   212    1
   211   213   211    1
   212   214   208    1
   213   215   214    1
   214   216   214    1
   215   217   211    1
   216   218   217    1
   217   219   217    1
   218   220   217    1
   219   187   205    1
   220   190   193    1
   221   199   202    1
   222   211   214    1
@<TRIPOS>SUBSTRUCTURE
     1 RES1        1 GROUP             0 ****  ****    0  
     2 RES2       60 GROUP             0 ****  ****    0  
     3 RES3      113 GROUP             0 ****  ****    0  
     4 RES4      164 GROUP             0 ****  ****    0  
     5 RES5      167 GROUP             0 ****  ****    0  
     6 RES6      170 GROUP             0 ****  ****    0  
@<TRIPOS>CRYSIN
   10.8333   14.5206   26.7742   85.5890   83.1280   70.2820     2     1
