@<TRIPOS>MOLECULE
QEHPAX
   100   108     4     0     0
SMALL
USER_CHARGES
****
Generated from the CSD

@<TRIPOS>ATOM
     1 Fe1     -1.9952  22.5135   7.4791   Fe        1 RES1   1.0000
     2 S1      -3.7124  22.8431   6.1405   S.3       1 RES1   0.0000
     3 S2      -0.4820  22.6230   5.8866   S.3       1 RES1   0.0000
     4 S3       0.4902  19.6699   9.6667   S.3       1 RES1   0.0000
     5 S4      -4.2255  24.5664  10.6261   S.3       1 RES1   0.0000
     6 N1      -4.8610  20.9712   4.7530   N.pl3     1 RES1   0.0000
     7 H1      -5.2250  21.7128   4.4510   H         1 RES1   0.0000
     8 N2      -0.7030  21.7232   8.7477   N.2       1 RES1   0.0000
     9 N3      -3.2273  20.1798   6.1994   N.2       1 RES1   0.0000
    10 N4      -2.3252  20.6393   7.1194   N.2       1 RES1   0.0000
    11 N5      -1.6166  24.3950   7.7108   N.2       1 RES1   0.0000
    12 N6      -3.1584  22.8752   9.0487   N.2       1 RES1   0.0000
    13 N7      -0.7625  25.1118   6.9227   N.2       1 RES1   0.0000
    14 N8       0.7651  24.8120   5.2093   N.pl3     1 RES1   0.0000
    15 H2       1.1633  24.2078   4.7105   H         1 RES1   0.0000
    16 C1      -3.9167  21.1642   5.6783   C.2       1 RES1   0.0000
    17 C2      -0.1628  24.3335   6.0463   C.2       1 RES1   0.0000
    18 C3      -5.3813  19.7933   4.1723   C.ar      1 RES1   0.0000
    19 C4       1.2045  26.1342   5.0030   C.ar      1 RES1   0.0000
    20 C5      -0.6581  20.3956   8.6371   C.2       1 RES1   0.0000
    21 C6      -6.5416  17.6178   2.9024   C.ar      1 RES1   0.0000
    22 H3      -6.9306  16.8697   2.4643   H         1 RES1   0.0000
    23 C7       0.9492  28.5113   5.0051   C.ar      1 RES1   0.0000
    24 H4       0.4490  29.2830   5.2433   H         1 RES1   0.0000
    25 C8      -1.5698  19.7581   7.7182   C.2       1 RES1   0.0000
    26 C9      -3.1423  24.1718   9.3795   C.2       1 RES1   0.0000
    27 C10      2.4030  26.2855   4.3233   C.ar      1 RES1   0.0000
    28 H5       2.9143  25.5192   4.0936   H         1 RES1   0.0000
    29 C11     -7.0015  18.8936   2.6504   C.ar      1 RES1   0.0000
    30 H6      -7.7173  19.0282   2.0399   H         1 RES1   0.0000
    31 C12     -4.9287  18.5234   4.4435   C.ar      1 RES1   0.0000
    32 H7      -4.2261  18.3899   5.0678   H         1 RES1   0.0000
    33 C13      0.4787  27.2572   5.3624   C.ar      1 RES1   0.0000
    34 H8      -0.3329  27.1709   5.8485   H         1 RES1   0.0000
    35 C14     -6.4274  19.9724   3.2811   C.ar      1 RES1   0.0000
    36 H9      -6.7497  20.8463   3.1034   H         1 RES1   0.0000
    37 C15     -4.0444  22.1828   9.8166   C.2       1 RES1   0.0000
    38 H10     -4.1713  21.2447   9.7336   H         1 RES1   0.0000
    39 C16     -2.2599  25.0399   8.6435   C.2       1 RES1   0.0000
    40 C17      0.1697  22.1901   9.6836   C.2       1 RES1   0.0000
    41 H11      0.2601  23.1131   9.8953   H         1 RES1   0.0000
    42 C18     -4.7234  22.9332  10.7015   C.2       1 RES1   0.0000
    43 H12     -5.3905  22.5986  11.2896   H         1 RES1   0.0000
    44 C19      2.1255  28.6544   4.3116   C.ar      1 RES1   0.0000
    45 H13      2.4325  29.5190   4.0649   H         1 RES1   0.0000
    46 C20      2.8592  27.5392   3.9766   C.ar      1 RES1   0.0000
    47 H14      3.6799  27.6351   3.5065   H         1 RES1   0.0000
    48 C21     -1.6146  18.2947   7.4917   C.3       1 RES1   0.0000
    49 H15     -2.4821  17.9450   7.7841   H         1 RES1   0.0000
    50 H16     -0.8989  17.8638   8.0043   H         1 RES1   0.0000
    51 H17     -1.4915  18.1075   6.5377   H         1 RES1   0.0000
    52 C22      0.9018  21.2145  10.2877   C.2       1 RES1   0.0000
    53 H18      1.5520  21.3685  10.9631   H         1 RES1   0.0000
    54 C23     -5.5091  17.4422   3.7979   C.ar      1 RES1   0.0000
    55 H19     -5.1892  16.5641   3.9766   H         1 RES1   0.0000
    56 C24     -2.1006  26.4967   8.9073   C.3       1 RES1   0.0000
    57 H20     -1.1477  26.7222   8.9392   H         1 RES1   0.0000
    58 H21     -2.5186  26.7222   9.7655   H         1 RES1   0.0000
    59 H22     -2.5328  27.0085   8.1915   H         1 RES1   0.0000
    60 S5       5.2299  23.6303   2.2690   S.o2      2 RES2   0.0000
    61 O1       4.5071  23.4144   3.5193   O.3       2 RES2  -1.0000
    62 O2      10.3222  27.1551   1.5081   O.2       2 RES2   0.0000
    63 O3       6.1005  22.5158   1.9559   O.2       2 RES2   0.0000
    64 O4       7.4432  29.5484   4.0787   O.2       2 RES2   0.0000
    65 O5       4.3473  24.0117   1.1933   O.2       2 RES2   0.0000
    66 N9       8.8187  28.3713   2.7067   N.am      2 RES2   0.0000
    67 C25     10.0028  28.2413   1.9474   C.2       2 RES2   0.0000
    68 C26      7.9351  27.2375   2.7514   C.ar      2 RES2   0.0000
    69 C27     10.7735  29.4703   1.7006   C.ar      2 RES2   0.0000
    70 C28      5.8313  26.2843   2.1218   C.ar      2 RES2   0.0000
    71 H23      4.9607  26.3818   1.7527   H         2 RES2   0.0000
    72 C29      8.3678  26.0058   3.2045   C.ar      2 RES2   0.0000
    73 H24      9.2328  25.9137   3.5863   H         2 RES2   0.0000
    74 C30     11.8967  29.4045   0.9168   C.ar      2 RES2   0.0000
    75 H25     12.1998  28.5674   0.5860   H         2 RES2   0.0000
    76 C31      6.2735  25.0441   2.5291   C.ar      2 RES2   0.0000
    77 C32     10.3225  30.7027   2.2250   C.ar      2 RES2   0.0000
    78 C33      8.4125  29.5600   3.3481   C.2       2 RES2   0.0000
    79 C34      9.2000  30.7723   3.0630   C.ar      2 RES2   0.0000
    80 C35      8.7920  31.9754   3.5863   C.ar      2 RES2   0.0000
    81 H26      8.0392  32.0102   4.1649   H         2 RES2   0.0000
    82 C36      7.5295  24.9018   3.0960   C.ar      2 RES2   0.0000
    83 H27      7.8175  24.0531   3.4098   H         2 RES2   0.0000
    84 C37     12.1698  31.7781   1.0731   C.ar      2 RES2   0.0000
    85 H28     12.6450  32.5633   0.8349   H         2 RES2   0.0000
    86 C38      6.6494  27.3845   2.2473   C.ar      2 RES2   0.0000
    87 H29      6.3358  28.2425   1.9888   H         2 RES2   0.0000
    88 C39     12.5959  30.5774   0.6052   C.ar      2 RES2   0.0000
    89 H30     13.3744  30.5325   0.0617   H         2 RES2   0.0000
    90 C40     11.0375  31.8833   1.9048   C.ar      2 RES2   0.0000
    91 C41     10.5776  33.1072   2.4355   C.ar      2 RES2   0.0000
    92 H31     11.0294  33.9134   2.2143   H         2 RES2   0.0000
    93 C42      9.4872  33.1471   3.2662   C.ar      2 RES2   0.0000
    94 H32      9.2016  33.9791   3.6278   H         2 RES2   0.0000
    95 O6       1.7221  23.0338   3.2268   O.3       3 RES3   0.0000
    96 H33      2.5702  23.0860   3.1864   H         3 RES3   0.0000
    97 H34      1.3892  23.2640   2.4791   H         3 RES3   0.0000
    98 O7       1.7771  24.9153   1.0082   O.3       4 RES4   0.0000
    99 H35      1.3002  25.4573   1.4571   H         4 RES4   0.0000
   100 H36      2.4371  25.3335   0.6690   H         4 RES4   0.0000
@<TRIPOS>BOND
     1     1     2    1
     2     2    16    1
     3     3     1    1
     4     4    20    1
     5     5    26    1
     6     6     7    1
     7     8     1    1
     8     9    10    1
     9    10     1    1
    10    11     1    1
    11    12     1    1
    12    13    11    1
    13    14    15    1
    14    16     6    1
    15    17     3    1
    16    18     6    1
    17    19    14    1
    18    20     8    2
    19    21    22    1
    20    23    24    1
    21    25    10    2
    22    26    12    2
    23    27    19   ar
    24    28    27    1
    25    29    21   ar
    26    30    29    1
    27    31    18   ar
    28    32    31    1
    29    33    19   ar
    30    34    33    1
    31    35    18   ar
    32    36    35    1
    33    37    12    1
    34    38    37    1
    35    39    11    2
    36    40     8    1
    37    41    40    1
    38    42     5    1
    39    43    42    1
    40    44    23   ar
    41    45    44    1
    42    46    27   ar
    43    47    46    1
    44    48    25    1
    45    49    48    1
    46    50    48    1
    47    51    48    1
    48    52     4    1
    49    53    52    1
    50    54    21   ar
    51    55    54    1
    52    56    39    1
    53    57    56    1
    54    58    56    1
    55    59    56    1
    56     9    16    2
    57    13    17    2
    58    14    17    1
    59    20    25    1
    60    23    33   ar
    61    26    39    1
    62    29    35   ar
    63    31    54   ar
    64    37    42    2
    65    40    52    2
    66    44    46   ar
    67    60    61    1
    68    62    67    2
    69    63    60    2
    70    64    78    2
    71    65    60    2
    72    66    67   am
    73    67    69    1
    74    68    66    1
    75    69    74   ar
    76    70    71    1
    77    72    68   ar
    78    73    72    1
    79    74    75    1
    80    76    60    1
    81    77    69   ar
    82    78    66   am
    83    79    77   ar
    84    80    79   ar
    85    81    80    1
    86    82    72   ar
    87    83    82    1
    88    84    85    1
    89    86    68   ar
    90    87    86    1
    91    88    74   ar
    92    89    88    1
    93    90    77   ar
    94    91    90   ar
    95    92    91    1
    96    93    80   ar
    97    94    93    1
    98    70    76   ar
    99    70    86   ar
   100    76    82   ar
   101    78    79    1
   102    84    88   ar
   103    84    90   ar
   104    91    93   ar
   105    95    96    1
   106    97    95    1
   107    98    99    1
   108   100    98    1
@<TRIPOS>SUBSTRUCTURE
     1 RES1        1 GROUP             0 ****  ****    0  
     2 RES2       60 GROUP             0 ****  ****    0  
     3 RES3       95 GROUP             0 ****  ****    0  
     4 RES4       98 GROUP             0 ****  ****    0  
@<TRIPOS>CRYSIN
   10.3970   38.6830   11.0305   90.0000  105.3790   90.0000   231     1
