@<TRIPOS>MOLECULE
QEQVAM
   103   108     2     0     0
SMALL
USER_CHARGES
****
Generated from the CSD

@<TRIPOS>ATOM
     1 Fe1      9.2327   6.3215   2.7888   Fe        1 RES1   0.0000
     2 O1       7.9914   7.6028   3.5500   O.3       1 RES1   0.0000
     3 O2       7.0828   9.9387   4.4263   O.3       1 RES1   0.0000
     4 O3       8.3509   6.0707   1.0953   O.3       1 RES1   0.0000
     5 O4       6.4508   5.4090  -0.5693   O.3       1 RES1   0.0000
     6 O5      10.4734   4.8865   2.3016   O.3       1 RES1   0.0000
     7 C1      11.5959   5.9301   4.7267   C.2       1 RES1   0.0000
     8 H1      12.0903   6.2113   5.4632   H         1 RES1   0.0000
     9 N1       8.0334   4.7917   3.8376   N.2       1 RES1   0.0000
    10 N2      10.2221   7.9744   1.8679   N.2       1 RES1   0.0000
    11 O6      11.3683   2.6897   1.2210   O.3       1 RES1   0.0000
    12 N3       8.4713   3.3943   0.7002   N.4       1 RES1   1.0000
    13 H2       9.1820   3.0391   1.1023   H         1 RES1   0.0000
    14 H3       8.5743   4.2766   0.6420   H         1 RES1   0.0000
    15 H4       8.3880   3.0494  -0.1139   H         1 RES1   0.0000
    16 C2      12.9031   2.3167   3.0381   C.ar      1 RES1   0.0000
    17 H5      13.2256   1.5306   2.6577   H         1 RES1   0.0000
    18 C3       8.5923   8.2290   0.0727   C.ar      1 RES1   0.0000
    19 C4       8.3104   3.3425   3.7867   C.3       1 RES1   0.0000
    20 H6       8.2207   2.9917   4.6855   H         1 RES1   0.0000
    21 H7       9.2373   3.2271   3.5250   H         1 RES1   0.0000
    22 C5       7.0552   7.5836   4.4602   C.ar      1 RES1   0.0000
    23 C6      11.9498   4.6659   4.1840   C.ar      1 RES1   0.0000
    24 C7       7.9730   6.9870   0.1841   C.ar      1 RES1   0.0000
    25 C8      11.4968   8.4599   2.4106   C.3       1 RES1   0.0000
    26 H8      11.8493   9.1349   1.8098   H         1 RES1   0.0000
    27 H9      12.1266   7.7212   2.4203   H         1 RES1   0.0000
    28 C9       6.5502   6.4053   4.9932   C.ar      1 RES1   0.0000
    29 N4      10.6752   6.7398   4.3245   N.2       1 RES1   0.0000
    30 C10      7.0981   5.1041   4.6758   C.2       1 RES1   0.0000
    31 H10      6.7235   4.3891   5.1410   H         1 RES1   0.0000
    32 C11      6.5033   8.8241   4.9132   C.ar      1 RES1   0.0000
    33 C12     13.4178   2.7622   4.2349   C.ar      1 RES1   0.0000
    34 H11     14.0761   2.2634   4.6613   H         1 RES1   0.0000
    35 C13      9.7487   8.6109   0.8479   C.2       1 RES1   0.0000
    36 H12     10.1937   9.3836   0.5887   H         1 RES1   0.0000
    37 C14     11.4244   4.2366   2.9726   C.ar      1 RES1   0.0000
    38 C15      6.4809  11.2103   4.7921   C.3       1 RES1   0.0000
    39 H13      6.4165  11.2814   5.7587   H         1 RES1   0.0000
    40 H14      5.5859  11.2740   4.4238   H         1 RES1   0.0000
    41 C16      6.9618   6.6465  -0.7171   C.ar      1 RES1   0.0000
    42 C17      5.4950   6.4127   5.9332   C.ar      1 RES1   0.0000
    43 H15      5.1642   5.6163   6.2821   H         1 RES1   0.0000
    44 C18      7.4561   2.4810   2.8636   C.3       1 RES1   0.0000
    45 C19      8.1602   9.1112  -0.9424   C.ar      1 RES1   0.0000
    46 H16      8.5866   9.9343  -1.0272   H         1 RES1   0.0000
    47 C20     11.4258   9.0506   3.8109   C.3       1 RES1   0.0000
    48 C21      5.4659   8.8063   5.8242   C.ar      1 RES1   0.0000
    49 H17      5.0935   9.6101   6.1100   H         1 RES1   0.0000
    50 C22     11.9146   3.0257   2.4057   C.ar      1 RES1   0.0000
    51 C23      6.5738   7.5688  -1.6959   C.ar      1 RES1   0.0000
    52 H18      5.9037   7.3452  -2.3016   H         1 RES1   0.0000
    53 C24      4.9734   7.6132   6.3184   C.ar      1 RES1   0.0000
    54 H19      4.2695   7.6295   6.9265   H         1 RES1   0.0000
    55 C25     10.6824   8.1328   4.7848   C.3       1 RES1   0.0000
    56 H20     11.1077   8.1787   5.6546   H         1 RES1   0.0000
    57 H21      9.7685   8.4422   4.8817   H         1 RES1   0.0000
    58 C26      7.3407  12.3205   4.2518   C.3       1 RES1   0.0000
    59 H22      6.9558  13.1673   4.4868   H         1 RES1   0.0000
    60 H23      8.2225  12.2539   4.6274   H         1 RES1   0.0000
    61 H24      7.3941  12.2465   3.2973   H         1 RES1   0.0000
    62 C27      7.1861   8.8226  -1.7686   C.ar      1 RES1   0.0000
    63 H25      6.9047   9.4458  -2.4009   H         1 RES1   0.0000
    64 C28      4.8591   3.7156  -0.9933   C.3       1 RES1   0.0000
    65 H26      4.1319   3.4447  -1.5602   H         1 RES1   0.0000
    66 H27      5.5658   3.0672  -1.0490   H         1 RES1   0.0000
    67 H28      4.5528   3.7777  -0.0872   H         1 RES1   0.0000
    68 C29      6.0606   2.3137   3.3579   C.3       1 RES1   0.0000
    69 H29      5.6367   3.1738   3.4184   H         1 RES1   0.0000
    70 H30      5.5701   1.7571   2.7498   H         1 RES1   0.0000
    71 H31      6.0757   1.9037   4.2276   H         1 RES1   0.0000
    72 C30     12.9832   3.9169   4.7994   C.ar      1 RES1   0.0000
    73 H32     13.3648   4.2174   5.5940   H         1 RES1   0.0000
    74 C31      7.2569   3.0923   1.4924   C.3       1 RES1   0.0000
    75 H33      6.7032   2.4869   0.9739   H         1 RES1   0.0000
    76 H34      6.7573   3.9169   1.6014   H         1 RES1   0.0000
    77 C32     10.7307  10.3828   3.8061   C.3       1 RES1   0.0000
    78 H35     10.7009  10.7307   4.7000   H         1 RES1   0.0000
    79 H36     11.2111  10.9912   3.2416   H         1 RES1   0.0000
    80 H37      9.8363  10.2762   3.4741   H         1 RES1   0.0000
    81 C33      5.3651   5.0360  -1.4367   C.3       1 RES1   0.0000
    82 H38      5.6737   4.9842  -2.3549   H         1 RES1   0.0000
    83 H39      4.6574   5.6977  -1.3882   H         1 RES1   0.0000
    84 C34     12.9066   9.1986   4.2276   C.3       1 RES1   0.0000
    85 H40     13.3277   8.3356   4.2252   H         1 RES1   0.0000
    86 H41     13.3572   9.7774   3.6098   H         1 RES1   0.0000
    87 H42     12.9553   9.5746   5.1119   H         1 RES1   0.0000
    88 C35     12.0537   1.6683   0.4434   C.3       1 RES1   0.0000
    89 H43     12.9939   1.6816   0.6808   H         1 RES1   0.0000
    90 H44     11.7023   0.8008   0.6977   H         1 RES1   0.0000
    91 C36     11.9556   1.7897  -0.8383   C.3       1 RES1   0.0000
    92 H45     12.4332   1.0762  -1.2671   H         1 RES1   0.0000
    93 H46     11.0276   1.7497  -1.0926   H         1 RES1   0.0000
    94 H47     12.3235   2.6320  -1.1120   H         1 RES1   0.0000
    95 C37      8.0947   1.1250   2.7813   C.3       1 RES1   0.0000
    96 H48      8.9962   1.2138   2.4615   H         1 RES1   0.0000
    97 H49      8.1011   0.7194   3.6510   H         1 RES1   0.0000
    98 H50      7.5943   0.5729   2.1732   H         1 RES1   0.0000
    99 Cl1      7.4905   1.5824  21.5765   Cl        2 RES2   0.0000
   100 O7       6.8834   1.0629  20.4645   O.3       2 RES2  -1.0000
   101 O8       7.8350   2.6349  22.2113   O.2       2 RES2   0.0000
   102 O9       6.7445   0.6957  22.4172   O.2       2 RES2   0.0000
   103 O10      8.4413   1.2879  20.7213   O.2       2 RES2   0.0000
@<TRIPOS>BOND
     1     1     2    1
     2     2    22    1
     3     3    32    1
     4     4     1    1
     5     5    41    1
     6     6     1    1
     7     7     8    1
     8     9     1    1
     9    10     1    1
    10    11    50    1
    11    12    13    1
    12    14    12    1
    13    15    12    1
    14    16    17    1
    15    18    24   ar
    16    19     9    1
    17    20    19    1
    18    21    19    1
    19    22    28   ar
    20    23     7    1
    21    24     4    1
    22    25    10    1
    23    26    25    1
    24    27    25    1
    25    28    30    1
    26    29     1    1
    27    30     9    2
    28    31    30    1
    29    32    22   ar
    30    33    16   ar
    31    34    33    1
    32    35    10    2
    33    36    35    1
    34    37     6    1
    35    38     3    1
    36    39    38    1
    37    40    38    1
    38    41    24   ar
    39    42    28   ar
    40    43    42    1
    41    44    19    1
    42    45    18   ar
    43    46    45    1
    44    47    25    1
    45    48    32   ar
    46    49    48    1
    47    50    16   ar
    48    51    41   ar
    49    52    51    1
    50    53    42   ar
    51    54    53    1
    52    55    29    1
    53    56    55    1
    54    57    55    1
    55    58    38    1
    56    59    58    1
    57    60    58    1
    58    61    58    1
    59    62    45   ar
    60    63    62    1
    61    64    65    1
    62    66    64    1
    63    67    64    1
    64    68    44    1
    65    69    68    1
    66    70    68    1
    67    71    68    1
    68    72    23   ar
    69    73    72    1
    70    74    12    1
    71    75    74    1
    72    76    74    1
    73    77    47    1
    74    78    77    1
    75    79    77    1
    76    80    77    1
    77    81     5    1
    78    82    81    1
    79    83    81    1
    80    84    47    1
    81    85    84    1
    82    86    84    1
    83    87    84    1
    84    88    11    1
    85    89    88    1
    86    90    88    1
    87    91    88    1
    88    92    91    1
    89    93    91    1
    90    94    91    1
    91    95    44    1
    92    96    95    1
    93    97    95    1
    94    98    95    1
    95     7    29    2
    96    18    35    1
    97    23    37   ar
    98    33    72   ar
    99    37    50   ar
   100    44    74    1
   101    47    55    1
   102    48    53   ar
   103    51    62   ar
   104    64    81    1
   105    99   100    1
   106   101    99    2
   107   102    99    2
   108   103    99    2
@<TRIPOS>SUBSTRUCTURE
     1 RES1        1 GROUP             0 ****  ****    0  
     2 RES2       99 GROUP             0 ****  ****    0  
@<TRIPOS>CRYSIN
   10.8789   14.8030   24.2289   90.0000   90.7240   90.0000   231     1
