@<TRIPOS>MOLECULE
QETHAZ
   128   138     4     0     0
SMALL
USER_CHARGES
****
Generated from the CSD

@<TRIPOS>ATOM
     1 Fe1      4.3265   2.2204   3.5848   Fe        1 RES1   1.0000
     2 O1       5.9586   2.5942   2.3795   O.3       1 RES1   0.0000
     3 O2       2.6591   1.8584   4.7982   O.3       1 RES1   0.0000
     4 N1       5.1919   3.2898   5.1042   N.2       1 RES1   0.0000
     5 N2       3.3754   3.9029   2.9192   N.2       1 RES1   0.0000
     6 N3       3.4606   1.1405   2.0805   N.2       1 RES1   0.0000
     7 N4       5.2247   0.5104   4.2939   N.2       1 RES1   0.0000
     8 N5       7.2097   2.5243   2.8628   N.ar      1 RES1   0.0000
     9 N6       2.8483   1.3778   6.0359   N.ar      1 RES1   0.0000
    10 C1       6.0177   2.8031   6.0925   C.2       1 RES1   0.0000
    11 C2       6.3240   3.8611   7.0134   C.2       1 RES1   0.0000
    12 H1       6.8618   3.7939   7.7697   H         1 RES1   0.0000
    13 C3       5.6875   4.9726   6.5813   C.2       1 RES1   0.0000
    14 H2       5.7034   5.8093   6.9885   H         1 RES1   0.0000
    15 C4       4.9796   4.6263   5.3809   C.2       1 RES1   0.0000
    16 C5       4.2100   5.5167   4.6108   C.2       1 RES1   0.0000
    17 C6       3.5046   5.1653   3.4438   C.2       1 RES1   0.0000
    18 C7       2.8198   6.1013   2.5885   C.2       1 RES1   0.0000
    19 H3       2.7686   7.0218   2.7103   H         1 RES1   0.0000
    20 C8       2.2666   5.3965   1.5783   C.2       1 RES1   0.0000
    21 H4       1.7592   5.7413   0.8789   H         1 RES1   0.0000
    22 C9       2.6049   4.0162   1.7819   C.2       1 RES1   0.0000
    23 C10      2.2089   2.9539   0.9677   C.2       1 RES1   0.0000
    24 C11      2.5822   1.6209   1.1366   C.2       1 RES1   0.0000
    25 C12      2.1063   0.5277   0.3383   C.2       1 RES1   0.0000
    26 H5       1.5017   0.5841  -0.3667   H         1 RES1   0.0000
    27 C13      2.6950  -0.5963   0.7965   C.2       1 RES1   0.0000
    28 H6       2.5662  -1.4578   0.4698   H         1 RES1   0.0000
    29 C14      3.5584  -0.2197   1.8848   C.2       1 RES1   0.0000
    30 C15      4.3637  -1.1066   2.6200   C.2       1 RES1   0.0000
    31 C16      5.1616  -0.7357   3.7211   C.2       1 RES1   0.0000
    32 C17      6.0602  -1.6159   4.4182   C.2       1 RES1   0.0000
    33 H7       6.2175  -2.5108   4.2211   H         1 RES1   0.0000
    34 C18      6.6365  -0.9013   5.4152   C.2       1 RES1   0.0000
    35 H8       7.2574  -1.2168   6.0322   H         1 RES1   0.0000
    36 C19      6.1123   0.4306   5.3445   C.2       1 RES1   0.0000
    37 C20      6.4729   1.4856   6.1955   C.2       1 RES1   0.0000
    38 C21      4.1385   6.9437   5.0395   C.ar      1 RES1   0.0000
    39 C22      5.2886   7.7266   5.0802   C.ar      1 RES1   0.0000
    40 H9       6.1119   7.3436   4.8807   H         1 RES1   0.0000
    41 C23      5.2203   9.0624   5.4135   C.ar      1 RES1   0.0000
    42 H10      5.9945   9.5786   5.4279   H         1 RES1   0.0000
    43 C24      3.9980   9.6342   5.7260   C.ar      1 RES1   0.0000
    44 H11      3.9506  10.5362   5.9456   H         1 RES1   0.0000
    45 C25      2.8482   8.8683   5.7128   C.ar      1 RES1   0.0000
    46 H12      2.0295   9.2518   5.9309   H         1 RES1   0.0000
    47 C26      2.9212   7.5250   5.3726   C.ar      1 RES1   0.0000
    48 H13      2.1472   7.0095   5.3671   H         1 RES1   0.0000
    49 C27      1.3266   3.2614  -0.2067   C.ar      1 RES1   0.0000
    50 C28     -0.0351   3.4322  -0.0486   C.ar      1 RES1   0.0000
    51 H14     -0.4121   3.3820   0.7996   H         1 RES1   0.0000
    52 C29     -0.8473   3.6796  -1.1512   C.ar      1 RES1   0.0000
    53 H15     -1.7631   3.7905  -1.0336   H         1 RES1   0.0000
    54 C30     -0.3105   3.7610  -2.4066   C.ar      1 RES1   0.0000
    55 H16     -0.8584   3.9222  -3.1414   H         1 RES1   0.0000
    56 C31      1.0419   3.6042  -2.5749   C.ar      1 RES1   0.0000
    57 H17      1.4154   3.6705  -3.4233   H         1 RES1   0.0000
    58 C32      1.8540   3.3463  -1.4747   C.ar      1 RES1   0.0000
    59 H18      2.7681   3.2299  -1.5993   H         1 RES1   0.0000
    60 C33      4.3668  -2.5422   2.2121   C.ar      1 RES1   0.0000
    61 C34      4.7230  -2.9095   0.9109   C.ar      1 RES1   0.0000
    62 H19      4.9626  -2.2537   0.2966   H         1 RES1   0.0000
    63 C35      4.7222  -4.2397   0.5275   C.ar      1 RES1   0.0000
    64 H20      4.9537  -4.4722  -0.3427   H         1 RES1   0.0000
    65 C36      4.3798  -5.2200   1.4351   C.ar      1 RES1   0.0000
    66 H21      4.3912  -6.1137   1.1792   H         1 RES1   0.0000
    67 C37      4.0191  -4.8731   2.7274   C.ar      1 RES1   0.0000
    68 H22      3.7874  -5.5331   3.3386   H         1 RES1   0.0000
    69 C38      4.0053  -3.5473   3.1047   C.ar      1 RES1   0.0000
    70 H23      3.7499  -3.3207   3.9705   H         1 RES1   0.0000
    71 C39      7.4439   1.1793   7.3026   C.ar      1 RES1   0.0000
    72 C40      7.0541   0.4606   8.4140   C.ar      1 RES1   0.0000
    73 H24      6.1775   0.1572   8.4864   H         1 RES1   0.0000
    74 C41      7.9681   0.1871   9.4290   C.ar      1 RES1   0.0000
    75 H25      7.6981  -0.2969  10.1760   H         1 RES1   0.0000
    76 C42      9.2577   0.6235   9.3341   C.ar      1 RES1   0.0000
    77 H26      9.8684   0.4269  10.0065   H         1 RES1   0.0000
    78 C43      9.6467   1.3527   8.2434   C.ar      1 RES1   0.0000
    79 H27     10.5214   1.6606   8.1843   H         1 RES1   0.0000
    80 C44      8.7462   1.6333   7.2254   C.ar      1 RES1   0.0000
    81 H28      9.0204   2.1301   6.4892   H         1 RES1   0.0000
    82 C45      7.8712   1.3645   2.7886   C.ar      1 RES1   0.0000
    83 H29      7.4577   0.6191   2.4173   H         1 RES1   0.0000
    84 C46      9.1671   1.2665   3.2593   C.ar      1 RES1   0.0000
    85 C47      9.7551   2.3960   3.7957   C.ar      1 RES1   0.0000
    86 H30     10.6331   2.3552   4.0995   H         1 RES1   0.0000
    87 C48      9.0547   3.5876   3.8871   C.ar      1 RES1   0.0000
    88 C49      7.7688   3.6248   3.3971   C.ar      1 RES1   0.0000
    89 H31      7.2827   4.4169   3.4362   H         1 RES1   0.0000
    90 C50      9.8881  -0.0541   3.2334   C.3       1 RES1   0.0000
    91 H32      9.2585  -0.7594   3.0677   H         1 RES1   0.0000
    92 H33     10.3185  -0.2008   4.0792   H         1 RES1   0.0000
    93 H34     10.5482  -0.0446   2.5371   H         1 RES1   0.0000
    94 C51      9.6681   4.8047   4.5445   C.3       1 RES1   0.0000
    95 H35      9.2276   5.5963   4.2248   H         1 RES1   0.0000
    96 H36     10.6017   4.8499   4.3280   H         1 RES1   0.0000
    97 H37      9.5617   4.7429   5.4961   H         1 RES1   0.0000
    98 C52      2.9846   2.2413   7.0532   C.ar      1 RES1   0.0000
    99 H38      2.9370   3.1571   6.8964   H         1 RES1   0.0000
   100 C53      3.1974   1.7671   8.3355   C.ar      1 RES1   0.0000
   101 C54      3.2743   0.3997   8.5192   C.ar      1 RES1   0.0000
   102 H39      3.4184   0.0629   9.3745   H         1 RES1   0.0000
   103 C55      3.1416  -0.4769   7.4629   C.ar      1 RES1   0.0000
   104 C56      2.9107   0.0502   6.2158   C.ar      1 RES1   0.0000
   105 H40      2.7971  -0.5193   5.4887   H         1 RES1   0.0000
   106 C57      3.3720   2.7472   9.4758   C.3       1 RES1   0.0000
   107 H41      3.1563   3.6315   9.1737   H         1 RES1   0.0000
   108 H42      4.2824   2.7256   9.7798   H         1 RES1   0.0000
   109 H43      2.7877   2.5044  10.1981   H         1 RES1   0.0000
   110 C58      3.2931  -1.9707   7.6205   C.3       1 RES1   0.0000
   111 H44      2.6372  -2.4173   7.0788   H         1 RES1   0.0000
   112 H45      3.1650  -2.2108   8.5417   H         1 RES1   0.0000
   113 H46      4.1727  -2.2350   7.3404   H         1 RES1   0.0000
   114 Cl1      4.1565  -0.6371  12.2113   Cl        2 RES2   0.0000
   115 O3       5.1902  -0.3068  11.3023   O.3       2 RES2  -1.0000
   116 O4       3.5714  -1.7943  11.8397   O.2       2 RES2   0.0000
   117 O5       4.6370  -0.6380  13.4563   O.2       2 RES2   0.0000
   118 O6       3.1212   0.3179  12.1087   O.2       2 RES2   0.0000
   119 Cl2      6.2666  -3.9359   8.9098   Cl        3 RES3   0.0000
   120 Cl3      6.6053  -4.5762  11.7117   Cl        3 RES3   0.0000
   121 C59      6.4825  -3.3115  10.5076   C.3       3 RES3   0.0000
   122 H47      5.7328  -2.7357  10.7269   H         3 RES3   0.0000
   123 H48      7.2885  -2.7725  10.5316   H         3 RES3   0.0000
   124 Cl4      4.3525   1.5745  16.9714   Cl        4 RES4   0.0000
   125 Cl5      7.0887   0.6852  16.7326   Cl        4 RES4   0.0000
   126 C60      5.4267   0.2801  16.4814   C.3       4 RES4   0.0000
   127 H49      5.2134  -0.5204  16.9876   H         4 RES4   0.0000
   128 H50      5.2842   0.0859  15.5412   H         4 RES4   0.0000
@<TRIPOS>BOND
     1     1     2    1
     2     2     8    1
     3     3     1    1
     4     4     1    1
     5     5     1    1
     6     6     1    1
     7     7     1    1
     8     8    82   ar
     9     9     3    1
    10    10     4    1
    11    11    10    1
    12    12    11    1
    13    13    11    2
    14    14    13    1
    15    15     4    1
    16    16    15    2
    17    17     5    2
    18    18    17    1
    19    19    18    1
    20    20    18    2
    21    21    20    1
    22    22     5    1
    23    23    22    2
    24    24     6    1
    25    25    24    2
    26    26    25    1
    27    27    25    1
    28    28    27    1
    29    29     6    1
    30    30    29    1
    31    31     7    1
    32    32    31    1
    33    33    32    1
    34    34    32    2
    35    35    34    1
    36    36     7    2
    37    37    10    2
    38    38    16    1
    39    39    38   ar
    40    40    39    1
    41    41    39   ar
    42    42    41    1
    43    43    41   ar
    44    44    43    1
    45    45    43   ar
    46    46    45    1
    47    47    38   ar
    48    48    47    1
    49    49    23    1
    50    50    49   ar
    51    51    50    1
    52    52    50   ar
    53    53    52    1
    54    54    52   ar
    55    55    54    1
    56    56    54   ar
    57    57    56    1
    58    58    49   ar
    59    59    58    1
    60    60    30    1
    61    61    60   ar
    62    62    61    1
    63    63    61   ar
    64    64    63    1
    65    65    63   ar
    66    66    65    1
    67    67    65   ar
    68    68    67    1
    69    69    60   ar
    70    70    69    1
    71    71    37    1
    72    72    71   ar
    73    73    72    1
    74    74    72   ar
    75    75    74    1
    76    76    74   ar
    77    77    76    1
    78    78    76   ar
    79    79    78    1
    80    80    71   ar
    81    81    80    1
    82    82    83    1
    83    84    82   ar
    84    85    84   ar
    85    86    85    1
    86    87    85   ar
    87    88     8   ar
    88    89    88    1
    89    90    84    1
    90    91    90    1
    91    92    90    1
    92    93    90    1
    93    94    87    1
    94    95    94    1
    95    96    94    1
    96    97    94    1
    97    98     9   ar
    98    99    98    1
    99   100    98   ar
   100   101   100   ar
   101   102   101    1
   102   103   101   ar
   103   104     9   ar
   104   105   104    1
   105   106   100    1
   106   107   106    1
   107   108   106    1
   108   109   106    1
   109   110   103    1
   110   111   110    1
   111   112   110    1
   112   113   110    1
   113    13    15    1
   114    16    17    1
   115    20    22    1
   116    23    24    1
   117    27    29    2
   118    30    31    2
   119    34    36    1
   120    36    37    1
   121    45    47   ar
   122    56    58   ar
   123    67    69   ar
   124    78    80   ar
   125    87    88   ar
   126   103   104   ar
   127   114   115    1
   128   116   114    2
   129   117   114    2
   130   118   114    2
   131   119   121    1
   132   120   121    1
   133   121   122    1
   134   123   121    1
   135   124   126    1
   136   125   126    1
   137   126   127    1
   138   128   126    1
@<TRIPOS>SUBSTRUCTURE
     1 RES1        1 GROUP             0 ****  ****    0  
     2 RES2      114 GROUP             0 ****  ****    0  
     3 RES3      119 GROUP             0 ****  ****    0  
     4 RES4      124 GROUP             0 ****  ****    0  
@<TRIPOS>CRYSIN
   10.1850   15.1720   20.0470  107.0100  101.2000  102.5400     2     1
