@<TRIPOS>MOLECULE
QEVBEY
   339   374    16     0     0
SMALL
NO_CHARGES
****
Generated from the CSD

@<TRIPOS>ATOM
     1 Fe1      4.0283  -0.4969   5.8788   Fe        1 RES1   0.0000
     2 Fe2      5.2763   3.5386   3.3003   Fe        1 RES1   0.0000
     3 Fe3      9.2436   6.3333   2.4724   Fe        1 RES1   0.0000
     4 Fe4     12.7491   8.8775   4.9004   Fe        1 RES1   0.0000
     5 Fe5      3.9338  -2.2309  10.5080   Fe        1 RES1   0.0000
     6 N1       3.5292  -0.9347   7.8416   N.am      1 RES1   0.0000
     7 N2       4.6054  -1.3762   8.6792   N.am      1 RES1   0.0000
     8 N3       5.0619   1.6129   4.0262   N.2       1 RES1   0.0000
     9 N4       4.6890   1.5279   5.4008   N.am      1 RES1   0.0000
    10 N5       7.3504   5.6636   2.9172   N.am      1 RES1   0.0000
    11 N6       7.2534   4.3618   3.4619   N.am      1 RES1   0.0000
    12 N7      11.7084   7.5447   3.7060   N.am      1 RES1   0.0000
    13 N8      10.3674   7.2839   4.0770   N.am      1 RES1   0.0000
    14 N9       5.3138  -2.7564  11.9479   N.am      1 RES1   0.0000
    15 N10     13.7008   8.1198   6.6837   N.am      1 RES1   0.0000
    16 O1       2.1812   0.0406   5.6605   O.3       1 RES1   0.0000
    17 O2       2.2682  -1.6465   9.5794   O.2       1 RES1   0.0000
    18 O3       5.7660  -1.0617   6.7227   O.2       1 RES1   0.0000
    19 O4       3.5288  -2.5339   5.4458   O.3       1 RES1   0.0000
    20 O5       5.7094   2.7081   1.6128   O.3       1 RES1   0.0000
    21 O6       4.6506  -0.6273   3.9989   O.2       1 RES1   0.0000
    22 O7       4.8801   3.7939   5.2310   O.2       1 RES1   0.0000
    23 O8       3.1934   3.4708   2.8391   O.3       1 RES1   0.0000
    24 O9       8.3877   8.0187   2.0932   O.3       1 RES1   0.0000
    25 O10      5.0740   5.4234   2.7356   O.2       1 RES1   0.0000
    26 O11      9.5318   4.5042   3.2296   O.2       1 RES1   0.0000
    27 O12      8.9048   5.6038   0.4960   O.3       1 RES1   0.0000
    28 O13     14.2971   8.3891   3.8583   O.3       1 RES1   0.0000
    29 O14     11.1060   6.4496   1.7632   O.2       1 RES1   0.0000
    30 O15     10.8980   8.8102   5.7152   O.2       1 RES1   0.0000
    31 O16     12.2259  10.3112   3.4717   O.3       1 RES1   0.0000
    32 O17      4.1842  -4.0246   9.7981   O.3       1 RES1   0.0000
    33 O18     13.2785  10.5073   5.9241   O.2       1 RES1   0.0000
    34 O19      4.2544  -0.5462  11.5554   O.2       1 RES1   0.0000
    35 O20      2.5187  -2.8959  11.9186   O.3       1 RES1   0.0000
    36 C1       1.0728  -0.2641   6.3576   C.ar      1 RES1   0.0000
    37 C2       1.1200  -0.8215   7.6639   C.ar      1 RES1   0.0000
    38 C3      -0.0985  -1.0594   8.3121   C.ar      1 RES1   0.0000
    39 H1      -0.0901  -1.3953   9.1791   H         1 RES1   0.0000
    40 C4      -1.3123  -0.8081   7.6990   C.ar      1 RES1   0.0000
    41 H2      -2.1058  -0.9819   8.1520   H         1 RES1   0.0000
    42 C5      -1.3455  -0.2965   6.4084   C.ar      1 RES1   0.0000
    43 H3      -2.1545  -0.1244   5.9847   H         1 RES1   0.0000
    44 C6      -0.1695  -0.0503   5.7855   C.ar      1 RES1   0.0000
    45 H4      -0.1972   0.2837   4.9186   H         1 RES1   0.0000
    46 C7       2.3507  -1.1368   8.3922   C.2       1 RES1   0.0000
    47 C8       5.7161  -1.3933   7.9939   C.2       1 RES1   0.0000
    48 C9       7.0166  -1.7373   8.6402   C.ar      1 RES1   0.0000
    49 C10      7.9428  -2.5660   7.9490   C.ar      1 RES1   0.0000
    50 H5       7.7539  -2.8959   7.1015   H         1 RES1   0.0000
    51 C11      9.1365  -2.8611   8.5836   C.ar      1 RES1   0.0000
    52 H6       9.7110  -3.4747   8.1872   H         1 RES1   0.0000
    53 C12      9.5210  -2.2672   9.8176   C.ar      1 RES1   0.0000
    54 H7      10.3450  -2.4507  10.2062   H         1 RES1   0.0000
    55 C13      8.6499  -1.4404  10.3877   C.ar      1 RES1   0.0000
    56 H8       8.9028  -1.0148  11.1766   H         1 RES1   0.0000
    57 C14      7.3527  -1.1673   9.8645   C.ar      1 RES1   0.0000
    58 H9       6.7510  -0.6255  10.3233   H         1 RES1   0.0000
    59 C15      2.8792  -3.0587   4.2215   C.3       1 RES1   0.0000
    60 C16      5.6143   1.4652   1.1462   C.ar      1 RES1   0.0000
    61 C17      5.2929   0.3493   1.9252   C.ar      1 RES1   0.0000
    62 C18      5.2329  -0.9307   1.3278   C.ar      1 RES1   0.0000
    63 H10      5.0394  -1.6645   1.8647   H         1 RES1   0.0000
    64 C19      5.4471  -1.1393  -0.0234   C.ar      1 RES1   0.0000
    65 H11      5.3790  -1.9906  -0.3866   H         1 RES1   0.0000
    66 C20      5.7597  -0.0793  -0.8064   C.ar      1 RES1   0.0000
    67 H12      5.9217  -0.1956  -1.7144   H         1 RES1   0.0000
    68 C21      5.8330   1.1842  -0.2363   C.ar      1 RES1   0.0000
    69 H13      6.0407   1.8978  -0.7947   H         1 RES1   0.0000
    70 C22      5.0052   0.4556   3.3838   C.1       1 RES1   0.0000
    71 C23      4.6615   2.7386   5.9417   C.2       1 RES1   0.0000
    72 C24      4.4076   2.9722   7.3866   C.ar      1 RES1   0.0000
    73 C25      4.7653   2.0865   8.3571   C.ar      1 RES1   0.0000
    74 H14      5.1641   1.2799   8.1247   H         1 RES1   0.0000
    75 C26      4.5294   2.3930   9.7024   C.ar      1 RES1   0.0000
    76 H15      4.7051   1.7528  10.3526   H         1 RES1   0.0000
    77 C27      4.0474   3.6153  10.0773   C.ar      1 RES1   0.0000
    78 H16      3.9724   3.8326  10.9774   H         1 RES1   0.0000
    79 C28      3.6743   4.5192   9.1166   C.ar      1 RES1   0.0000
    80 H17      3.3054   5.3371   9.3607   H         1 RES1   0.0000
    81 C29      3.8429   4.2110   7.7947   C.ar      1 RES1   0.0000
    82 H18      3.5829   4.8255   7.1465   H         1 RES1   0.0000
    83 C30      2.3460   4.3551   2.0775   C.3       1 RES1   0.0000
    84 C31      7.1279   8.3065   1.7124   C.ar      1 RES1   0.0000
    85 C32      6.0374   7.4542   1.9389   C.ar      1 RES1   0.0000
    86 C33      4.7514   7.8641   1.4996   C.ar      1 RES1   0.0000
    87 H19      4.0227   7.3037   1.6343   H         1 RES1   0.0000
    88 C34      4.5663   9.0700   0.8865   C.ar      1 RES1   0.0000
    89 H20      3.7050   9.3171   0.6346   H         1 RES1   0.0000
    90 C35      5.5878   9.9158   0.6287   C.ar      1 RES1   0.0000
    91 H21      5.4449  10.7204   0.1874   H         1 RES1   0.0000
    92 C36      6.8839   9.5354   1.0544   C.ar      1 RES1   0.0000
    93 H22      7.5978  10.1113   0.8982   H         1 RES1   0.0000
    94 C37      6.1602   6.1323   2.5716   C.2       1 RES1   0.0000
    95 C38      8.4805   3.8612   3.6064   C.2       1 RES1   0.0000
    96 C39      8.6964   2.5766   4.3015   C.ar      1 RES1   0.0000
    97 C40      7.9555   2.2776   5.4477   C.ar      1 RES1   0.0000
    98 H23      7.2764   2.8435   5.7386   H         1 RES1   0.0000
    99 C41      8.2674   1.1016   6.1467   C.ar      1 RES1   0.0000
   100 H24      7.8031   0.8852   6.9239   H         1 RES1   0.0000
   101 C42      9.2673   0.2592   5.6781   C.ar      1 RES1   0.0000
   102 H25      9.4579  -0.5252   6.1409   H         1 RES1   0.0000
   103 C43     10.0185   0.5645   4.5222   C.ar      1 RES1   0.0000
   104 H26     10.6697  -0.0179   4.2039   H         1 RES1   0.0000
   105 C44      9.7464   1.7532   3.8739   C.ar      1 RES1   0.0000
   106 H27     10.2679   2.0108   3.1476   H         1 RES1   0.0000
   107 C45      9.7910   5.1892  -0.5643   C.3       1 RES1   0.0000
   108 C46     14.4059   7.9544   2.5930   C.ar      1 RES1   0.0000
   109 C47     13.3512   7.2357   1.9155   C.ar      1 RES1   0.0000
   110 C48     13.5707   6.7670   0.6326   C.ar      1 RES1   0.0000
   111 H28     12.8821   6.3245   0.1894   H         1 RES1   0.0000
   112 C49     14.7648   6.9322  -0.0020   C.ar      1 RES1   0.0000
   113 H29     14.8967   6.5771  -0.8513   H         1 RES1   0.0000
   114 C50     15.7897   7.6362   0.6248   C.ar      1 RES1   0.0000
   115 H30     16.6011   7.7775   0.1933   H         1 RES1   0.0000
   116 C51     15.5752   8.1149   1.8921   C.ar      1 RES1   0.0000
   117 H31     16.2674   8.5766   2.3021   H         1 RES1   0.0000
   118 C52     12.0113   7.0677   2.5013   C.2       1 RES1   0.0000
   119 C53     10.0443   7.9835   5.1451   C.2       1 RES1   0.0000
   120 C54      8.7343   7.8016   5.8089   C.ar      1 RES1   0.0000
   121 C55      8.1419   6.5950   5.8675   C.ar      1 RES1   0.0000
   122 H32      8.5541   5.8565   5.4809   H         1 RES1   0.0000
   123 C56      6.9087   6.4473   6.5041   C.ar      1 RES1   0.0000
   124 H33      6.5102   5.6098   6.5685   H         1 RES1   0.0000
   125 C57      6.2860   7.5620   7.0391   C.ar      1 RES1   0.0000
   126 H34      5.4442   7.4694   7.4237   H         1 RES1   0.0000
   127 C58      6.8805   8.8064   7.0156   C.ar      1 RES1   0.0000
   128 H35      6.4682   9.5418   7.4101   H         1 RES1   0.0000
   129 C59      8.1222   8.9302   6.3810   C.ar      1 RES1   0.0000
   130 H36      8.5416   9.7590   6.3361   H         1 RES1   0.0000
   131 C60     13.0277  11.4215   3.0265   C.3       1 RES1   0.0000
   132 C61      4.5234  -5.1627  10.4287   C.ar      1 RES1   0.0000
   133 C62      5.1628  -5.2007  11.6823   C.ar      1 RES1   0.0000
   134 C63      5.4570  -6.4413  12.2700   C.ar      1 RES1   0.0000
   135 H37      5.8717  -6.4666  13.1018   H         1 RES1   0.0000
   136 C64      5.1338  -7.6412  11.6237   C.ar      1 RES1   0.0000
   137 H38      5.3272  -8.4612  12.0181   H         1 RES1   0.0000
   138 C65      4.5290  -7.5786  10.4053   C.ar      1 RES1   0.0000
   139 H39      4.3092  -8.3712   9.9738   H         1 RES1   0.0000
   140 C66      4.2337  -6.3796   9.7883   C.ar      1 RES1   0.0000
   141 H40      3.8399  -6.3762   8.9467   H         1 RES1   0.0000
   142 C67      5.5716  -3.9805  12.4536   C.2       1 RES1   0.0000
   143 C68     14.2822   6.9805   7.0000   C.2       1 RES1   0.0000
   144 C69     13.9660   5.7324   6.2756   C.ar      1 RES1   0.0000
   145 C70     12.6992   5.4717   5.8011   C.ar      1 RES1   0.0000
   146 H41     12.0231   6.0994   5.9124   H         1 RES1   0.0000
   147 C71     12.4283   4.2623   5.1490   C.ar      1 RES1   0.0000
   148 H42     11.5706   4.0973   4.8287   H         1 RES1   0.0000
   149 C72     13.3859   3.3324   4.9771   C.ar      1 RES1   0.0000
   150 H43     13.1926   2.5421   4.5241   H         1 RES1   0.0000
   151 C73     14.6371   3.5524   5.4653   C.ar      1 RES1   0.0000
   152 H44     15.2933   2.9022   5.3598   H         1 RES1   0.0000
   153 C74     14.9525   4.7613   6.1331   C.ar      1 RES1   0.0000
   154 H45     15.8063   4.9026   6.4728   H         1 RES1   0.0000
   155 C75      1.4016  -3.7775  11.6354   C.3       1 RES1   0.0000
   156 N10A     5.7175  -1.7314  12.8421   N.am      1 RES1   0.0000
   157 Fe4A     6.6692  -2.4891  14.6254   Fe        1 RES1   0.0000
   158 N7A      7.7100  -1.1563  15.8198   N.am      1 RES1   0.0000
   159 N8A      9.0509  -0.8955  15.4488   N.am      1 RES1   0.0000
   160 Fe3A    10.1748   0.0551  17.0535   Fe        1 RES1   0.0000
   161 N5A     12.0680   0.7248  16.6087   N.am      1 RES1   0.0000
   162 N6A     12.1649   2.0266  16.0639   N.am      1 RES1   0.0000
   163 Fe2A    14.1420   2.8498  16.2256   Fe        1 RES1   0.0000
   164 N3A     14.3564   4.7755  15.4996   N.2       1 RES1   0.0000
   165 N4A     14.7294   4.8605  14.1250   N.am      1 RES1   0.0000
   166 Fe1A    15.3901   6.8853  13.6470   Fe        1 RES1   0.0000
   167 N1A     15.8892   7.3231  11.6843   N.am      1 RES1   0.0000
   168 N2A     14.8130   7.7646  10.8466   N.am      1 RES1   0.0000
   169 Fe5A    15.4845   8.6193   9.0178   Fe        1 RES1   0.0000
   170 N9A     14.1045   9.1448   7.5780   N.am      1 RES1   0.0000
   171 O18A     6.1399  -4.1189  13.6017   O.2       1 RES1   0.0000
   172 O13A     5.1212  -2.0007  15.6675   O.3       1 RES1   0.0000
   173 C46A     5.0125  -1.5660  16.9328   C.ar      1 RES1   0.0000
   174 C47A     6.0671  -0.8473  17.6103   C.ar      1 RES1   0.0000
   175 C48A     5.8476  -0.3786  18.8932   C.ar      1 RES1   0.0000
   176 H28A     6.5363   0.0639  19.3364   H         1 RES1   0.0000
   177 C49A     4.6536  -0.5438  19.5278   C.ar      1 RES1   0.0000
   178 H29A     4.5216  -0.1887  20.3772   H         1 RES1   0.0000
   179 C50A     3.6286  -1.2478  18.9010   C.ar      1 RES1   0.0000
   180 H30A     2.8173  -1.3891  19.3325   H         1 RES1   0.0000
   181 C51A     3.8432  -1.7265  17.6338   C.ar      1 RES1   0.0000
   182 H31A     3.1509  -2.1882  17.2237   H         1 RES1   0.0000
   183 C52A     7.4071  -0.6793  17.0246   C.2       1 RES1   0.0000
   184 O14A     8.3124  -0.0612  17.7626   O.2       1 RES1   0.0000
   185 O9A     11.0306  -1.6303  17.4327   O.3       1 RES1   0.0000
   186 C31A    12.2904  -1.9181  17.8134   C.ar      1 RES1   0.0000
   187 C32A    13.3809  -1.0658  17.5869   C.ar      1 RES1   0.0000
   188 C33A    14.6669  -1.4757  18.0262   C.ar      1 RES1   0.0000
   189 H19A    15.3956  -0.9153  17.8915   H         1 RES1   0.0000
   190 C34A    14.8520  -2.6816  18.6394   C.ar      1 RES1   0.0000
   191 H20A    15.7134  -2.9287  18.8912   H         1 RES1   0.0000
   192 C35A    13.8305  -3.5274  18.8971   C.ar      1 RES1   0.0000
   193 H21A    13.9735  -4.3320  19.3384   H         1 RES1   0.0000
   194 C36A    12.5344  -3.1470  18.4714   C.ar      1 RES1   0.0000
   195 H22A    11.8205  -3.7229  18.6276   H         1 RES1   0.0000
   196 C37A    13.2582   0.2561  16.9543   C.2       1 RES1   0.0000
   197 O10A    14.3443   0.9650  16.7903   O.2       1 RES1   0.0000
   198 O5A     13.7089   3.6803  17.9130   O.3       1 RES1   0.0000
   199 C16A    13.8040   4.9232  18.3797   C.ar      1 RES1   0.0000
   200 C17A    14.1255   6.0391  17.6006   C.ar      1 RES1   0.0000
   201 C18A    14.1854   7.3191  18.1981   C.ar      1 RES1   0.0000
   202 H10A    14.3789   8.0528  17.6611   H         1 RES1   0.0000
   203 C19A    13.9712   7.5277  19.5493   C.ar      1 RES1   0.0000
   204 H11A    14.0393   8.3790  19.9124   H         1 RES1   0.0000
   205 C20A    13.6586   6.4677  20.3322   C.ar      1 RES1   0.0000
   206 H12A    13.4966   6.5840  21.2402   H         1 RES1   0.0000
   207 C21A    13.5854   5.2042  19.7621   C.ar      1 RES1   0.0000
   208 H13A    13.3777   4.4906  20.3205   H         1 RES1   0.0000
   209 C22A    14.4131   5.9328  16.1420   C.1       1 RES1   0.0000
   210 O6A     14.7677   7.0157  15.5269   O.2       1 RES1   0.0000
   211 O1A     17.2371   6.3477  13.8653   O.3       1 RES1   0.0000
   212 C1A     18.3455   6.6525  13.1682   C.ar      1 RES1   0.0000
   213 C2A     18.2984   7.2099  11.8619   C.ar      1 RES1   0.0000
   214 C3A     19.5168   7.4478  11.2137   C.ar      1 RES1   0.0000
   215 H1A     19.5084   7.7837  10.3467   H         1 RES1   0.0000
   216 C4A     20.7306   7.1965  11.8268   C.ar      1 RES1   0.0000
   217 H2A     21.5242   7.3703  11.3738   H         1 RES1   0.0000
   218 C5A     20.7639   6.6849  13.1175   C.ar      1 RES1   0.0000
   219 H3A     21.5729   6.5128  13.5412   H         1 RES1   0.0000
   220 C6A     19.5878   6.4387  13.7403   C.ar      1 RES1   0.0000
   221 H4A     19.6155   6.1047  14.6073   H         1 RES1   0.0000
   222 C7A     17.0676   7.5252  11.1336   C.2       1 RES1   0.0000
   223 O2A     17.1501   8.0349   9.9465   O.2       1 RES1   0.0000
   224 O17A    15.2341  10.4130   9.7278   O.3       1 RES1   0.0000
   225 C61A    14.8950  11.5511   9.0971   C.ar      1 RES1   0.0000
   226 C62A    14.2555  11.5891   7.8435   C.ar      1 RES1   0.0000
   227 C63A    13.9613  12.8297   7.2558   C.ar      1 RES1   0.0000
   228 H37A    13.5467  12.8550   6.4240   H         1 RES1   0.0000
   229 C64A    14.2846  14.0296   7.9021   C.ar      1 RES1   0.0000
   230 H38A    14.0911  14.8496   7.5077   H         1 RES1   0.0000
   231 C65A    14.8893  13.9670   9.1205   C.ar      1 RES1   0.0000
   232 H39A    15.1091  14.7596   9.5520   H         1 RES1   0.0000
   233 C66A    15.1847  12.7680   9.7375   C.ar      1 RES1   0.0000
   234 H40A    15.5784  12.7646  10.5791   H         1 RES1   0.0000
   235 C67A    13.8467  10.3689   7.0723   C.2       1 RES1   0.0000
   236 O19A    15.1639   6.9346   7.9704   O.2       1 RES1   0.0000
   237 O20A    16.8996   9.2843   7.6073   O.3       1 RES1   0.0000
   238 C75A    18.0167  10.1659   7.8904   C.3       1 RES1   0.0000
   239 O3A     13.6524   7.4501  12.8031   O.2       1 RES1   0.0000
   240 C8A     13.7023   7.7817  11.5320   C.2       1 RES1   0.0000
   241 C9A     12.4018   8.1257  10.8857   C.ar      1 RES1   0.0000
   242 C10A    11.4755   8.9544  11.5769   C.ar      1 RES1   0.0000
   243 H5A     11.6644   9.2843  12.4243   H         1 RES1   0.0000
   244 C11A    10.2818   9.2495  10.9423   C.ar      1 RES1   0.0000
   245 H6A      9.7073   9.8631  11.3387   H         1 RES1   0.0000
   246 C12A     9.8973   8.6555   9.7082   C.ar      1 RES1   0.0000
   247 H7A      9.0733   8.8391   9.3197   H         1 RES1   0.0000
   248 C13A    10.7684   7.8288   9.1381   C.ar      1 RES1   0.0000
   249 H8A     10.5155   7.4032   8.3492   H         1 RES1   0.0000
   250 C14A    12.0656   7.5557   9.6614   C.ar      1 RES1   0.0000
   251 H9A     12.6673   7.0139   9.2025   H         1 RES1   0.0000
   252 O4A     15.8896   8.9223  14.0801   O.3       1 RES1   0.0000
   253 C15A    16.5392   9.4471  15.3043   C.3       1 RES1   0.0000
   254 O7A     14.5382   2.5945  14.2949   O.2       1 RES1   0.0000
   255 C23A    14.7568   3.6498  13.5841   C.2       1 RES1   0.0000
   256 C24A    15.0107   3.4162  12.1392   C.ar      1 RES1   0.0000
   257 C25A    14.6530   4.3019  11.1688   C.ar      1 RES1   0.0000
   258 H14A    14.2542   5.1085  11.4011   H         1 RES1   0.0000
   259 C26A    14.8890   3.9954   9.8234   C.ar      1 RES1   0.0000
   260 H15A    14.7132   4.6356   9.1732   H         1 RES1   0.0000
   261 C27A    15.3710   2.7731   9.4486   C.ar      1 RES1   0.0000
   262 H16A    15.4460   2.5558   8.5484   H         1 RES1   0.0000
   263 C28A    15.7440   1.8692  10.4092   C.ar      1 RES1   0.0000
   264 H17A    16.1129   1.0513  10.1651   H         1 RES1   0.0000
   265 C29A    15.5754   2.1774  11.7311   C.ar      1 RES1   0.0000
   266 H18A    15.8354   1.5629  12.3794   H         1 RES1   0.0000
   267 O8A     16.2249   2.9176  16.6868   O.3       1 RES1   0.0000
   268 C30A    17.0723   2.0333  17.4483   C.3       1 RES1   0.0000
   269 O11A     9.8865   1.8842  16.2963   O.2       1 RES1   0.0000
   270 C38A    10.9378   2.5272  15.9194   C.2       1 RES1   0.0000
   271 C39A    10.7220   3.8118  15.2243   C.ar      1 RES1   0.0000
   272 C40A    11.4629   4.1108  14.0781   C.ar      1 RES1   0.0000
   273 H23A    12.1420   3.5449  13.7872   H         1 RES1   0.0000
   274 C41A    11.1510   5.2868  13.3791   C.ar      1 RES1   0.0000
   275 H24A    11.6153   5.5032  12.6020   H         1 RES1   0.0000
   276 C42A    10.1510   6.1292  13.8477   C.ar      1 RES1   0.0000
   277 H25A     9.9605   6.9136  13.3850   H         1 RES1   0.0000
   278 C43A     9.3999   5.8239  15.0036   C.ar      1 RES1   0.0000
   279 H26A     8.7486   6.4063  15.3219   H         1 RES1   0.0000
   280 C44A     9.6719   4.6352  15.6519   C.ar      1 RES1   0.0000
   281 H27A     9.1505   4.3776  16.3783   H         1 RES1   0.0000
   282 O12A    10.5136   0.7846  19.0299   O.3       1 RES1   0.0000
   283 C45A     9.6274   1.1992  20.0901   C.3       1 RES1   0.0000
   284 O15A     8.5204  -2.4219  13.8106   O.2       1 RES1   0.0000
   285 C53A     9.3740  -1.5951  14.3808   C.2       1 RES1   0.0000
   286 C54A    10.6840  -1.4132  13.7169   C.ar      1 RES1   0.0000
   287 C55A    11.2764  -0.2066  13.6583   C.ar      1 RES1   0.0000
   288 H32A    10.8642   0.5319  14.0449   H         1 RES1   0.0000
   289 C56A    12.5096  -0.0589  13.0218   C.ar      1 RES1   0.0000
   290 H33A    12.9081   0.7786  12.9573   H         1 RES1   0.0000
   291 C57A    13.1324  -1.1736  12.4868   C.ar      1 RES1   0.0000
   292 H34A    13.9741  -1.0810  12.1021   H         1 RES1   0.0000
   293 C58A    12.5379  -2.4180  12.5102   C.ar      1 RES1   0.0000
   294 H35A    12.9502  -3.1534  12.1158   H         1 RES1   0.0000
   295 C59A    11.2962  -2.5418  13.1448   C.ar      1 RES1   0.0000
   296 H36A    10.8767  -3.3706  13.1897   H         1 RES1   0.0000
   297 O16A     7.1925  -3.9228  16.0541   O.3       1 RES1   0.0000
   298 C60A     6.3907  -5.0331  16.4993   C.3       1 RES1   0.0000
   299 C68A     5.1362  -0.5921  12.5258   C.2       1 RES1   0.0000
   300 C69A     5.4524   0.6560  13.2502   C.ar      1 RES1   0.0000
   301 C70A     6.7191   0.9167  13.7247   C.ar      1 RES1   0.0000
   302 H41A     7.3952   0.2890  13.6134   H         1 RES1   0.0000
   303 C71A     6.9900   2.1261  14.3769   C.ar      1 RES1   0.0000
   304 H42A     7.8478   2.2911  14.6971   H         1 RES1   0.0000
   305 C72A     6.0324   3.0560  14.5487   C.ar      1 RES1   0.0000
   306 H43A     6.2257   3.8463  15.0017   H         1 RES1   0.0000
   307 C73A     4.7812   2.8360  14.0606   C.ar      1 RES1   0.0000
   308 H44A     4.1250   3.4862  14.1660   H         1 RES1   0.0000
   309 C74A     4.4659   1.6271  13.3928   C.ar      1 RES1   0.0000
   310 H45A     3.6121   1.4858  13.0530   H         1 RES1   0.0000
   311 C76     10.5936  11.9510   7.9197   C.3       2 RES2   0.0000
   312 Cl1     10.5458  12.6063   6.4982   Cl        2 RES2   0.0000
   313 Cl2      9.0923  12.1636   8.4254   Cl        2 RES2   0.0000
   314 C77      7.5282  -2.4959   3.8642   C.3       3 RES3   0.0000
   315 Cl3      6.4971  -3.7736   3.8954   Cl        3 RES3   0.0000
   316 Cl4      9.1288  -3.0588   4.2098   Cl        3 RES3   0.0000
   317 C78      1.8151  -3.1391  -1.2497   C.3       4 RES4   0.0000
   318 Cl5      1.9240  -1.4161  -1.5660   Cl        4 RES4   0.0000
   319 Cl6      1.5964  -3.2554   0.6736   Cl        4 RES4   0.0000
   320 C79      2.8407   7.2912   4.9166   C.3       5 RES5   0.0000
   321 O21      2.0424   8.5057   5.1412   O.3       5 RES5   0.0000
   322 C80      1.5825  -4.5623   7.5389   C.3       6 RES6   0.0000
   323 O22      3.0119  -4.2502   7.3417   O.3       6 RES6   0.0000
   324 C81      1.6101   0.2717   2.1771   C.3       7 RES7   0.0000
   325 O23      1.7996   1.2715   3.2589   O.3       7 RES7   0.0000
   326 C82      5.5107   5.1900  -0.8494   C.3       8 RES8   0.0000
   327 O24      6.6229   4.5400  -0.1543   O.3       8 RES8   0.0000
   328 C83      8.9058  11.1915   3.4170   C.3       9 RES9   0.0000
   329 O25      9.7848  10.3584   2.6087   O.3       9 RES9   0.0000
   330 C84      8.7008   5.0129  10.6025   C.3      10 RES10   0.0000
   331 O26      7.6978   4.5246   9.5130   O.3      10 RES10   0.0000
   332 C85      3.4748  11.6373   3.4561   C.3      11 RES11   0.0000
   333 O27      2.2205  11.9808   4.2527   O.3      11 RES11   0.0000
   334 C86      3.1529   3.3196  -4.4714   C.3      12 RES12   0.0000
   335 O28      1.5998   3.8630  -3.8466   O.3      12 RES12   0.0000
   336 O29      3.4919  -7.1350   4.6882   O.3      13 RES13   0.0000
   337 O30      2.1934   2.1700  -2.4603   O.3      14 RES14   0.0000
   338 O31      7.9799  12.9227   6.9590   O.3      15 RES15   0.0000
   339 O32      7.9105   3.0318  10.9930   O.3      16 RES16   0.0000
@<TRIPOS>BOND
     1     1     6    1
     2     2     8    1
     3     3    10    1
     4     4    12    1
     5     5     7    1
     6     6     7    1
     7     7    47   am
     8     8     9    1
     9     9     1    1
    10    10    11    1
    11    11     2    1
    12    12    13    1
    13    13     3    1
    14    14     5    1
    15    15     4    1
    16    16     1    1
    17    17     5    1
    18    18     1    1
    19    19     1    1
    20    20     2    1
    21    21     1    1
    22    22     2    1
    23    23     2    1
    24    24     3    1
    25    25     2    1
    26    26     3    1
    27    27     3    1
    28    28     4    1
    29    29     3    1
    30    30     4    1
    31    31     4    1
    32    32     5    1
    33    33     4    1
    34    34     5    1
    35    35     5    1
    36    36    16    1
    37    37    36   ar
    38    38    37   ar
    39    39    38    1
    40    40    38   ar
    41    41    40    1
    42    42    40   ar
    43    43    42    1
    44    44    36   ar
    45    45    44    1
    46    46     6   am
    47    47    18    2
    48    48    47    1
    49    49    48   ar
    50    50    49    1
    51    51    49   ar
    52    52    51    1
    53    53    51   ar
    54    54    53    1
    55    55    53   ar
    56    56    55    1
    57    57    48   ar
    58    58    57    1
    59    59    19    1
    60    60    20    1
    61    61    60   ar
    62    62    61   ar
    63    63    62    1
    64    64    62   ar
    65    65    64    1
    66    66    64   ar
    67    67    66    1
    68    68    60   ar
    69    69    68    1
    70    70     8    2
    71    71     9   am
    72    72    71    1
    73    73    72   ar
    74    74    73    1
    75    75    73   ar
    76    76    75    1
    77    77    75   ar
    78    78    77    1
    79    79    77   ar
    80    80    79    1
    81    81    72   ar
    82    82    81    1
    83    83    23    1
    84    84    24    1
    85    85    84   ar
    86    86    85   ar
    87    87    86    1
    88    88    86   ar
    89    89    88    1
    90    90    88   ar
    91    91    90    1
    92    92    84   ar
    93    93    92    1
    94    94    10   am
    95    95    11   am
    96    96    95    1
    97    97    96   ar
    98    98    97    1
    99    99    97   ar
   100   100    99    1
   101   101    99   ar
   102   102   101    1
   103   103   101   ar
   104   104   103    1
   105   105    96   ar
   106   106   105    1
   107   107    27    1
   108   108    28    1
   109   109   108   ar
   110   110   109   ar
   111   111   110    1
   112   112   110   ar
   113   113   112    1
   114   114   112   ar
   115   115   114    1
   116   116   108   ar
   117   117   116    1
   118   118    12   am
   119   119    13   am
   120   120   119    1
   121   121   120   ar
   122   122   121    1
   123   123   121   ar
   124   124   123    1
   125   125   123   ar
   126   126   125    1
   127   127   125   ar
   128   128   127    1
   129   129   120   ar
   130   130   129    1
   131   131    31    1
   132   132    32    1
   133   133   132   ar
   134   134   133   ar
   135   135   134    1
   136   136   134   ar
   137   137   136    1
   138   138   136   ar
   139   139   138    1
   140   140   132   ar
   141   141   140    1
   142   142    14   am
   143   143    15   am
   144   144   143    1
   145   145   144   ar
   146   146   145    1
   147   147   145   ar
   148   148   147    1
   149   149   147   ar
   150   150   149    1
   151   151   149   ar
   152   152   151    1
   153   153   144   ar
   154   154   153    1
   155   155    35    1
   156   156    14    1
   157   157   156    1
   158   158   157    1
   159   159   158    1
   160   160   159    1
   161   161   160    1
   162   162   161    1
   163   163   162    1
   164   164   163    1
   165   165   164    1
   166   166   165    1
   167   167   166    1
   168   168   167    1
   169   169   168    1
   170   170    15    1
   171   171   142    2
   172   172   157    1
   173   173   172    1
   174   174   173   ar
   175   175   174   ar
   176   176   175    1
   177   177   175   ar
   178   178   177    1
   179   179   177   ar
   180   180   179    1
   181   181   173   ar
   182   182   181    1
   183   183   158   am
   184   184   160    1
   185   185   160    1
   186   186   185    1
   187   187   186   ar
   188   188   187   ar
   189   189   188    1
   190   190   188   ar
   191   191   190    1
   192   192   190   ar
   193   193   192    1
   194   194   186   ar
   195   195   194    1
   196   196   161   am
   197   197   163    1
   198   198   163    1
   199   199   198    1
   200   200   199   ar
   201   201   200   ar
   202   202   201    1
   203   203   201   ar
   204   204   203    1
   205   205   203   ar
   206   206   205    1
   207   207   199   ar
   208   208   207    1
   209   209   164    2
   210   210   166    1
   211   211   166    1
   212   212   211    1
   213   213   212   ar
   214   214   213   ar
   215   215   214    1
   216   216   214   ar
   217   217   216    1
   218   218   216   ar
   219   219   218    1
   220   220   212   ar
   221   221   220    1
   222   222   167   am
   223   223   169    1
   224   224   169    1
   225   225   224    1
   226   226   225   ar
   227   227   226   ar
   228   228   227    1
   229   229   227   ar
   230   230   229    1
   231   231   229   ar
   232   232   231    1
   233   233   225   ar
   234   234   233    1
   235   235    33    2
   236   236   143    2
   237   237   169    1
   238   238   237    1
   239   239   166    1
   240   240   168   am
   241   241   240    1
   242   242   241   ar
   243   243   242    1
   244   244   242   ar
   245   245   244    1
   246   246   244   ar
   247   247   246    1
   248   248   246   ar
   249   249   248    1
   250   250   241   ar
   251   251   250    1
   252   252   166    1
   253   253   252    1
   254   254   163    1
   255   255   165   am
   256   256   255    1
   257   257   256   ar
   258   258   257    1
   259   259   257   ar
   260   260   259    1
   261   261   259   ar
   262   262   261    1
   263   263   261   ar
   264   264   263    1
   265   265   256   ar
   266   266   265    1
   267   267   163    1
   268   268   267    1
   269   269   160    1
   270   270   162   am
   271   271   270    1
   272   272   271   ar
   273   273   272    1
   274   274   272   ar
   275   275   274    1
   276   276   274   ar
   277   277   276    1
   278   278   276   ar
   279   279   278    1
   280   280   271   ar
   281   281   280    1
   282   282   160    1
   283   283   282    1
   284   284   157    1
   285   285   159   am
   286   286   285    1
   287   287   286   ar
   288   288   287    1
   289   289   287   ar
   290   290   289    1
   291   291   289   ar
   292   292   291    1
   293   293   291   ar
   294   294   293    1
   295   295   286   ar
   296   296   295    1
   297   297   157    1
   298   298   297    1
   299   299    34    2
   300   300   299    1
   301   301   300   ar
   302   302   301    1
   303   303   301   ar
   304   304   303    1
   305   305   303   ar
   306   306   305    1
   307   307   305   ar
   308   308   307    1
   309   309   300   ar
   310   310   309    1
   311    17    46    2
   312    21    70    2
   313    22    71    2
   314    25    94    2
   315    26    95    2
   316    29   118    2
   317    30   119    2
   318    37    46    1
   319    42    44   ar
   320    55    57   ar
   321    61    70    1
   322    66    68   ar
   323    79    81   ar
   324    85    94    1
   325    90    92   ar
   326   103   105   ar
   327   109   118    1
   328   114   116   ar
   329   127   129   ar
   330   133   142    1
   331   138   140   ar
   332   151   153   ar
   333   156   299   am
   334   157   171    1
   335   169   170    1
   336   169   236    1
   337   170   235   am
   338   174   183    1
   339   179   181   ar
   340   183   184    2
   341   187   196    1
   342   192   194   ar
   343   196   197    2
   344   200   209    1
   345   205   207   ar
   346   209   210    2
   347   213   222    1
   348   218   220   ar
   349   222   223    2
   350   226   235    1
   351   231   233   ar
   352   239   240    2
   353   248   250   ar
   354   254   255    2
   355   263   265   ar
   356   269   270    2
   357   278   280   ar
   358   284   285    2
   359   293   295   ar
   360   307   309   ar
   361   311   312    1
   362   313   311    1
   363   314   315    1
   364   316   314    1
   365   317   318    1
   366   319   317    1
   367   320   321    1
   368   322   323    1
   369   324   325    1
   370   326   327    1
   371   328   329    1
   372   330   331    1
   373   332   333    1
   374   334   335    1
@<TRIPOS>SUBSTRUCTURE
     1 RES1        1 GROUP             0 ****  ****    0  
     2 RES2      311 GROUP             0 ****  ****    0  
     3 RES3      314 GROUP             0 ****  ****    0  
     4 RES4      317 GROUP             0 ****  ****    0  
     5 RES5      320 GROUP             0 ****  ****    0  
     6 RES6      322 GROUP             0 ****  ****    0  
     7 RES7      324 GROUP             0 ****  ****    0  
     8 RES8      326 GROUP             0 ****  ****    0  
     9 RES9      328 GROUP             0 ****  ****    0  
    10 RES10     330 GROUP             0 ****  ****    0  
    11 RES11     332 GROUP             0 ****  ****    0  
    12 RES12     334 GROUP             0 ****  ****    0  
    13 RES13     336 GROUP             0 ****  ****    0  
    14 RES14     337 GROUP             0 ****  ****    0  
    15 RES15     338 GROUP             0 ****  ****    0  
    16 RES16     339 GROUP             0 ****  ****    0  
@<TRIPOS>CRYSIN
   14.7040   18.9081   21.0783   71.2010   77.0760   84.7570     2     1
