@<TRIPOS>MOLECULE
QIDHOB
   121   147     3     0     0
SMALL
NO_CHARGES
****
Generated from the CSD

@<TRIPOS>ATOM
     1 C1       4.2471  11.5353  13.3326   C.3       1 RES1   0.0000
     2 H1       4.1536  12.4916  13.1995   H         1 RES1   0.0000
     3 H2       3.9987  11.1056  12.4979   H         1 RES1   0.0000
     4 C2       3.6080  11.6744  15.7821   C.3       1 RES1   0.0000
     5 H3       2.8295  11.6158  16.3577   H         1 RES1   0.0000
     6 H4       3.8158  12.6150  15.6720   H         1 RES1   0.0000
     7 C3       3.0693   9.5640  14.4357   C.3       1 RES1   0.0000
     8 H5       2.6223   9.2978  13.6169   H         1 RES1   0.0000
     9 H6       2.4792   9.3386  15.1711   H         1 RES1   0.0000
    10 C4       3.2321  11.1040  14.4099   C.3       1 RES1   0.0000
    11 C5       1.8536  11.6935  14.0303   C.3       1 RES1   0.0000
    12 H7       1.5858  11.3551  13.1736   H         1 RES1   0.0000
    13 H8       1.9145  12.6503  13.9925   H         1 RES1   0.0000
    14 H9       1.2050  11.4400  14.6921   H         1 RES1   0.0000
    15 C6       6.6601  10.8509  11.9541   C.ar      1 RES1   0.0000
    16 C7       7.6996   9.9800  11.6989   C.ar      1 RES1   0.0000
    17 H10      8.0851   9.5092  12.4025   H         1 RES1   0.0000
    18 C8       8.1780   9.7959  10.4109   C.ar      1 RES1   0.0000
    19 H11      8.8759   9.2009  10.2579   H         1 RES1   0.0000
    20 C9       7.6256  10.4855   9.3595   C.ar      1 RES1   0.0000
    21 H12      7.9423  10.3550   8.4949   H         1 RES1   0.0000
    22 C10      6.6079  11.3627   9.5940   C.ar      1 RES1   0.0000
    23 H13      6.2338  11.8345   8.8864   H         1 RES1   0.0000
    24 C11      6.1231  11.5576  10.8839   C.ar      1 RES1   0.0000
    25 H14      5.4365  12.1669  11.0330   H         1 RES1   0.0000
    26 C12      6.8353  12.7836  14.0044   C.ar      1 RES1   0.0000
    27 C13      8.2294  12.7953  13.9687   C.ar      1 RES1   0.0000
    28 H15      8.6914  12.0212  13.7401   H         1 RES1   0.0000
    29 C14      8.9304  13.9470  14.2728   C.ar      1 RES1   0.0000
    30 H16      9.8604  13.9436  14.2489   H         1 RES1   0.0000
    31 C15      8.2529  15.1061  14.6126   C.ar      1 RES1   0.0000
    32 H17      8.7261  15.8784  14.8273   H         1 RES1   0.0000
    33 C16      6.8867  15.1104  14.6285   C.ar      1 RES1   0.0000
    34 H18      6.4322  15.8934  14.8432   H         1 RES1   0.0000
    35 C17      6.1669  13.9552  14.3264   C.ar      1 RES1   0.0000
    36 H19      5.2369  13.9690  14.3423   H         1 RES1   0.0000
    37 C18      5.6600  12.2384  17.6874   C.ar      1 RES1   0.0000
    38 C19      6.9275  12.7219  17.6636   C.ar      1 RES1   0.0000
    39 H20      7.5377  12.3641  17.0593   H         1 RES1   0.0000
    40 C20      7.3339  13.7375  18.5202   C.ar      1 RES1   0.0000
    41 H21      8.2156  14.0327  18.4844   H         1 RES1   0.0000
    42 C21      6.4975  14.2989  19.3888   C.ar      1 RES1   0.0000
    43 H22      6.7789  14.9795  19.9572   H         1 RES1   0.0000
    44 C22      5.2159  13.8419  19.4166   C.ar      1 RES1   0.0000
    45 H23      4.6137  14.2151  20.0188   H         1 RES1   0.0000
    46 C23      4.7855  12.8326  18.5679   C.ar      1 RES1   0.0000
    47 H24      3.8981  12.5561  18.5937   H         1 RES1   0.0000
    48 C24      4.2828   9.8155  17.9442   C.ar      1 RES1   0.0000
    49 C25      5.1632   9.2757  18.8869   C.ar      1 RES1   0.0000
    50 H25      6.0693   9.4744  18.8303   H         1 RES1   0.0000
    51 C26      4.7126   8.4563  19.8956   C.ar      1 RES1   0.0000
    52 H26      5.3151   8.0965  20.5058   H         1 RES1   0.0000
    53 C27      3.3615   8.1676  20.0009   C.ar      1 RES1   0.0000
    54 H27      3.0528   7.6220  20.6886   H         1 RES1   0.0000
    55 C28      2.4779   8.6929  19.0847   C.ar      1 RES1   0.0000
    56 H28      1.5712   8.4998  19.1582   H         1 RES1   0.0000
    57 C29      2.9242   9.5055  18.0551   C.ar      1 RES1   0.0000
    58 H29      2.3181   9.8446  17.4370   H         1 RES1   0.0000
    59 C30      3.9590   7.1048  15.5410   C.ar      1 RES1   0.0000
    60 C31      4.5534   6.5853  16.6837   C.ar      1 RES1   0.0000
    61 H30      5.3427   6.9587  17.0037   H         1 RES1   0.0000
    62 C32      3.9726   5.5052  17.3515   C.ar      1 RES1   0.0000
    63 H31      4.3709   5.1724  18.1227   H         1 RES1   0.0000
    64 C33      2.8245   4.9328  16.8805   C.ar      1 RES1   0.0000
    65 H32      2.4484   4.2109  17.3296   H         1 RES1   0.0000
    66 C34      2.2229   5.4272  15.7376   C.ar      1 RES1   0.0000
    67 H33      1.4424   5.0358  15.4176   H         1 RES1   0.0000
    68 C35      2.7840   6.5071  15.0658   C.ar      1 RES1   0.0000
    69 H34      2.3769   6.8351  14.2966   H         1 RES1   0.0000
    70 C36      4.8947   7.7908  12.9693   C.ar      1 RES1   0.0000
    71 C37      4.2993   8.2178  11.7883   C.ar      1 RES1   0.0000
    72 H35      3.6815   8.9126  11.8102   H         1 RES1   0.0000
    73 C38      4.6172   7.6172  10.5818   C.ar      1 RES1   0.0000
    74 H36      4.2178   7.9171   9.7967   H         1 RES1   0.0000
    75 C39      5.5119   6.5875  10.5361   C.ar      1 RES1   0.0000
    76 H37      5.7252   6.1922   9.7212   H         1 RES1   0.0000
    77 C40      6.1009   6.1301  11.7048   C.ar      1 RES1   0.0000
    78 H38      6.6999   5.4184  11.6790   H         1 RES1   0.0000
    79 C41      5.7967   6.7368  12.9133   C.ar      1 RES1   0.0000
    80 H39      6.2003   6.4345  13.6964   H         1 RES1   0.0000
    81 B1       8.2332   8.5024  14.9426   B         1 RES1   0.0000
    82 B2       9.8348   9.5167  14.9943   B         1 RES1   0.0000
    83 B3      10.9622   8.5110  16.0397   B         1 RES1   0.0000
    84 B4      10.0381   6.9454  16.6559   B         1 RES1   0.0000
    85 B5       8.3390   6.9561  15.9940   B         1 RES1   0.0000
    86 B6       7.6499   8.4324  16.5644   B         1 RES1   0.0000
    87 B7       8.4705   9.8641  16.0099   B         1 RES1   0.0000
    88 B8      10.0893   9.9234  16.7155   B         1 RES1   0.0000
    89 B9      10.2409   8.3851  17.6695   B         1 RES1   0.0000
    90 B10      8.6590   7.5183  17.6556   B         1 RES1   0.0000
    91 B11      8.7237   9.2950  17.6834   B         1 RES1   0.0000
    92 Fe1      6.3476   9.7197  15.2954   Fe        1 RES1   0.0000
    93 I1      11.5418   7.9352  12.0872   I         1 RES1   0.0000
    94 I2       9.8531   4.6353  13.4000   I         1 RES1   0.0000
    95 P1       6.0206  11.1789  13.6449   P.3       1 RES1   0.0000
    96 P2       5.0194  10.8750  16.6485   P.3       1 RES1   0.0000
    97 P3       4.5954   8.5484  14.6033   P.3       1 RES1   0.0000
    98 Sn1     10.0308   7.2307  14.3222   Sn        1 RES1   0.0000
    99 H46      7.3151   8.7391  14.1913   H         1 RES1   0.0000
   100 H47     10.0577  10.1595  14.1118   H         1 RES1   0.0000
   101 H48     12.1107   8.5265  15.9801   H         1 RES1   0.0000
   102 H49     10.5960   5.9700  16.9341   H         1 RES1   0.0000
   103 H50      7.7563   6.1979  15.8012   H         1 RES1   0.0000
   104 H51      6.4039   8.6231  16.5764   H         1 RES1   0.0000
   105 H52      7.6521  10.7130  15.6223   H         1 RES1   0.0000
   106 H53     10.6047  10.8531  16.9739   H         1 RES1   0.0000
   107 H54     10.8840   8.3325  18.5043   H         1 RES1   0.0000
   108 H55      8.2499   6.9900  18.4447   H         1 RES1   0.0000
   109 H56      8.3239   9.9589  18.4844   H         1 RES1   0.0000
   110 C42      3.8702  10.1881   2.7110   C.1       2 RES2   0.0000
   111 C43      5.2081   9.9722   2.3811   C.3       2 RES2   0.0000
   112 H40      5.7231   9.8729   3.1861   H         2 RES2   0.0000
   113 H41      5.5386  10.7206   1.8802   H         2 RES2   0.0000
   114 H42      5.2823   9.1737   1.8524   H         2 RES2   0.0000
   115 N1       2.7533  10.2610   3.1106   N.1       2 RES2   0.0000
   116 C44      2.0730   3.3818  11.4425   C.1       3 RES3   0.0000
   117 C45      2.5322   4.5521  11.8221   C.3       3 RES3   0.0000
   118 H43      2.0855   5.2460  11.3331   H         3 RES3   0.0000
   119 H44      3.4756   4.5952  11.6492   H         3 RES3   0.0000
   120 H45      2.3736   4.6691  12.7622   H         3 RES3   0.0000
   121 N2       1.7344   2.3181  11.1264   N.1       3 RES3   0.0000
@<TRIPOS>BOND
     1     1     2    1
     2     3     1    1
     3     4     5    1
     4     6     4    1
     5     7     8    1
     6     9     7    1
     7    10     1    1
     8    11    10    1
     9    12    11    1
    10    13    11    1
    11    14    11    1
    12    15    16   ar
    13    16    17    1
    14    18    16   ar
    15    19    18    1
    16    20    18   ar
    17    21    20    1
    18    22    20   ar
    19    23    22    1
    20    24    15   ar
    21    25    24    1
    22    26    27   ar
    23    27    28    1
    24    29    27   ar
    25    30    29    1
    26    31    29   ar
    27    32    31    1
    28    33    31   ar
    29    34    33    1
    30    35    26   ar
    31    36    35    1
    32    37    38   ar
    33    38    39    1
    34    40    38   ar
    35    41    40    1
    36    42    40   ar
    37    43    42    1
    38    44    42   ar
    39    45    44    1
    40    46    37   ar
    41    47    46    1
    42    48    49   ar
    43    49    50    1
    44    51    49   ar
    45    52    51    1
    46    53    51   ar
    47    54    53    1
    48    55    53   ar
    49    56    55    1
    50    57    48   ar
    51    58    57    1
    52    59    60   ar
    53    60    61    1
    54    62    60   ar
    55    63    62    1
    56    64    62   ar
    57    65    64    1
    58    66    64   ar
    59    67    66    1
    60    68    59   ar
    61    69    68    1
    62    70    71   ar
    63    71    72    1
    64    73    71   ar
    65    74    73    1
    66    75    73   ar
    67    76    75    1
    68    77    75   ar
    69    78    77    1
    70    79    70   ar
    71    80    79    1
    72    81    82    1
    73    82    83    1
    74    83    84    1
    75    84    85    1
    76    85    81    1
    77    86    81    1
    78    87    81    1
    79    88    82    1
    80    89    83    1
    81    90    84    1
    82    91    86    1
    83    92    95    1
    84    93    98    1
    85    94    98    1
    86    95     1    1
    87    96     4    1
    88    97     7    1
    89    98    81    1
    90    99    81    1
    91   100    82    1
    92   101    83    1
    93   102    84    1
    94   103    85    1
    95   104    86    1
    96   105    87    1
    97   106    88    1
    98   107    89    1
    99   108    90    1
   100   109    91    1
   101     4    10    1
   102     7    10    1
   103    15    95    1
   104    22    24   ar
   105    26    95    1
   106    33    35   ar
   107    37    96    1
   108    44    46   ar
   109    48    96    1
   110    55    57   ar
   111    59    97    1
   112    66    68   ar
   113    70    97    1
   114    77    79   ar
   115    82    87    1
   116    82    98    1
   117    83    88    1
   118    83    98    1
   119    84    89    1
   120    84    98    1
   121    85    86    1
   122    85    90    1
   123    85    98    1
   124    86    87    1
   125    86    90    1
   126    87    88    1
   127    87    91    1
   128    88    89    1
   129    88    91    1
   130    89    90    1
   131    89    91    1
   132    90    91    1
   133    92    96    1
   134    92    97    1
   135    92    99    1
   136    92   104    1
   137    92   105    1
   138   110   111    1
   139   111   112    1
   140   113   111    1
   141   114   111    1
   142   115   110    3
   143   116   117    1
   144   117   118    1
   145   119   117    1
   146   120   117    1
   147   121   116    3
@<TRIPOS>SUBSTRUCTURE
     1 RES1        1 GROUP             0 ****  ****    0  
     2 RES2      110 GROUP             0 ****  ****    0  
     3 RES3      116 GROUP             0 ****  ****    0  
@<TRIPOS>CRYSIN
   11.5022   12.1020   19.9242   87.1620   86.7920   81.3500     2     1
