@<TRIPOS>MOLECULE
QIDLUL
   161   170     3     0     0
SMALL
USER_CHARGES
****
Generated from the CSD

@<TRIPOS>ATOM
     1 Fe1      7.8896   3.6917  16.0358   Fe        1 RES1   2.0000
     2 N1       7.9240   2.9301  14.0134   N.ar      1 RES1   0.0000
     3 N2       6.0096   4.1731  15.2778   N.ar      1 RES1   0.0000
     4 N3       6.8635   4.8264  17.6108   N.2       1 RES1   0.0000
     5 N4       7.1002   5.3384  18.8116   N.2       1 RES1   0.0000
     6 N5       5.9949   6.0072  19.1468   N.pl3     1 RES1   0.0000
     7 N6       5.0694   5.9578  18.2204   N.2       1 RES1   0.0000
     8 N7       9.2664   5.2919  15.6262   N.ar      1 RES1   0.0000
     9 N8       9.6838   3.0711  16.9088   N.ar      1 RES1   0.0000
    10 N9       7.4872   1.7690  16.9766   N.2       1 RES1   0.0000
    11 N10      6.4598   0.9530  17.1701   N.2       1 RES1   0.0000
    12 N11      6.9325  -0.0081  17.9249   N.pl3     1 RES1   0.0000
    13 N12      8.2020   0.1016  18.2468   N.2       1 RES1   0.0000
    14 C1       8.9155   2.3268  13.3671   C.ar      1 RES1   0.0000
    15 H1       9.7315   2.2131  13.7999   H         1 RES1   0.0000
    16 C2       8.7710   1.8689  12.0951   C.ar      1 RES1   0.0000
    17 H2       9.4969   1.4711  11.6728   H         1 RES1   0.0000
    18 C3       7.5787   1.9789  11.4168   C.ar      1 RES1   0.0000
    19 H3       7.4864   1.6372  10.5564   H         1 RES1   0.0000
    20 C4       6.5131   2.6164  12.0528   C.ar      1 RES1   0.0000
    21 C5       5.2338   2.8163  11.4590   C.ar      1 RES1   0.0000
    22 H4       5.0639   2.4907  10.6040   H         1 RES1   0.0000
    23 C6       4.2795   3.4655  12.1241   C.ar      1 RES1   0.0000
    24 H5       3.4537   3.5840  11.7124   H         1 RES1   0.0000
    25 C7       4.4669   3.9846  13.4331   C.ar      1 RES1   0.0000
    26 C8       3.5217   4.6952  14.2222   C.ar      1 RES1   0.0000
    27 H6       2.6771   4.8739  13.8765   H         1 RES1   0.0000
    28 C9       3.8452   5.1228  15.4916   C.ar      1 RES1   0.0000
    29 H7       3.2250   5.5889  16.0036   H         1 RES1   0.0000
    30 C10      5.1156   4.8470  15.9957   C.ar      1 RES1   0.0000
    31 C11      5.7082   3.7618  14.0216   C.ar      1 RES1   0.0000
    32 C12      6.7504   3.0775  13.3407   C.ar      1 RES1   0.0000
    33 C13      5.6325   5.2168  17.2730   C.2       1 RES1   0.0000
    34 C14      5.8999   6.7279  20.3977   C.3       1 RES1   0.0000
    35 H8       5.6639   7.6528  20.2182   H         1 RES1   0.0000
    36 H9       6.7615   6.7180  20.8411   H         1 RES1   0.0000
    37 C15      4.8565   6.1061  21.3029   C.3       1 RES1   0.0000
    38 H10      4.6684   6.7307  22.0208   H         1 RES1   0.0000
    39 H11      4.0391   5.9984  20.7909   H         1 RES1   0.0000
    40 C16      5.1935   4.8331  21.8888   C.3       1 RES1   0.0000
    41 H12      6.0176   4.9281  22.3929   H         1 RES1   0.0000
    42 H13      5.3549   4.1932  21.1789   H         1 RES1   0.0000
    43 C17      4.1336   4.2854  22.7993   C.3       1 RES1   0.0000
    44 H14      4.0070   4.9254  23.5171   H         1 RES1   0.0000
    45 H15      3.3048   4.2535  22.2979   H         1 RES1   0.0000
    46 C18      4.3283   2.9696  23.4116   C.3       1 RES1   0.0000
    47 H16      5.1921   2.9742  23.8549   H         1 RES1   0.0000
    48 H17      4.3788   2.3155  22.6964   H         1 RES1   0.0000
    49 C19      3.3174   2.4890  24.3960   C.3       1 RES1   0.0000
    50 H18      3.2548   3.1549  25.0980   H         1 RES1   0.0000
    51 H19      2.4584   2.4698  23.9447   H         1 RES1   0.0000
    52 C20      3.5110   1.1840  25.0373   C.3       1 RES1   0.0000
    53 H20      4.3807   1.1926  25.4674   H         1 RES1   0.0000
    54 H21      3.5459   0.5136  24.3379   H         1 RES1   0.0000
    55 C21      2.5118   0.7312  26.0480   C.3       1 RES1   0.0000
    56 H22      2.4598   1.4167  26.7316   H         1 RES1   0.0000
    57 H23      1.6474   0.7031  25.6099   H         1 RES1   0.0000
    58 C22      2.7028  -0.5703  26.7368   C.3       1 RES1   0.0000
    59 H24      3.5709  -0.5343  27.1697   H         1 RES1   0.0000
    60 H25      2.7661  -1.2467  26.0428   H         1 RES1   0.0000
    61 C23      1.7283  -1.0895  27.7635   C.3       1 RES1   0.0000
    62 H26      1.6407  -0.4028  28.4417   H         1 RES1   0.0000
    63 H27      0.8650  -1.1575  27.3227   H         1 RES1   0.0000
    64 C24      1.9513  -2.3567  28.4628   C.3       1 RES1   0.0000
    65 H28      2.0637  -3.0466  27.7899   H         1 RES1   0.0000
    66 H29      2.7949  -2.2840  28.9379   H         1 RES1   0.0000
    67 C25      0.9680  -2.8184  29.3944   C.3       1 RES1   0.0000
    68 H30      0.8586  -2.1301  30.0700   H         1 RES1   0.0000
    69 H31      0.1243  -2.8879  28.9220   H         1 RES1   0.0000
    70 C26      1.1807  -4.0259  30.0568   C.3       1 RES1   0.0000
    71 H32      1.9863  -3.9102  30.5847   H         1 RES1   0.0000
    72 H33      1.3917  -4.6780  29.3707   H         1 RES1   0.0000
    73 C27      0.2008  -4.6597  30.9383   C.3       1 RES1   0.0000
    74 H34      0.0532  -4.0576  31.6825   H         1 RES1   0.0000
    75 H35     -0.6354  -4.7114  30.4474   H         1 RES1   0.0000
    76 C28      0.4488  -5.9392  31.4767   C.3       1 RES1   0.0000
    77 H36      1.1999  -5.8610  32.0837   H         1 RES1   0.0000
    78 H37      0.7299  -6.5150  30.7483   H         1 RES1   0.0000
    79 C29     -0.5935  -6.5993  32.1655   C.3       1 RES1   0.0000
    80 H38     -0.2881  -7.4617  32.4558   H         1 RES1   0.0000
    81 H39     -1.3453  -6.7074  31.5796   H         1 RES1   0.0000
    82 H40     -0.8534  -6.0777  32.9282   H         1 RES1   0.0000
    83 C30      9.0333   6.4401  15.0034   C.ar      1 RES1   0.0000
    84 H41      8.1800   6.6058  14.6682   H         1 RES1   0.0000
    85 C31     10.0449   7.4281  14.8265   C.ar      1 RES1   0.0000
    86 H42      9.8525   8.2285  14.3937   H         1 RES1   0.0000
    87 C32     11.3007   7.1834  15.3042   C.ar      1 RES1   0.0000
    88 H43     11.9768   7.8086  15.1723   H         1 RES1   0.0000
    89 C33     11.5776   5.9921  15.9930   C.ar      1 RES1   0.0000
    90 C34     12.8297   5.6613  16.5683   C.ar      1 RES1   0.0000
    91 H44     13.5246   6.2731  16.4865   H         1 RES1   0.0000
    92 C35     13.0656   4.5562  17.2097   C.ar      1 RES1   0.0000
    93 H45     13.9081   4.3815  17.5633   H         1 RES1   0.0000
    94 C36     11.9931   3.6092  17.3548   C.ar      1 RES1   0.0000
    95 C37     12.1131   2.3956  18.0146   C.ar      1 RES1   0.0000
    96 H46     12.9303   2.1463  18.3814   H         1 RES1   0.0000
    97 C38     11.0373   1.5705  18.1254   C.ar      1 RES1   0.0000
    98 H47     11.1227   0.7633  18.5793   H         1 RES1   0.0000
    99 C39      9.8125   1.9199  17.5659   C.ar      1 RES1   0.0000
   100 C40     10.7429   3.8939  16.7953   C.ar      1 RES1   0.0000
   101 C41     10.5195   5.1023  16.1039   C.ar      1 RES1   0.0000
   102 C42      8.5325   1.2297  17.6187   C.2       1 RES1   0.0000
   103 C43      6.0723  -1.0995  18.4052   C.3       1 RES1   0.0000
   104 H48      6.4935  -1.9499  18.2046   H         1 RES1   0.0000
   105 H49      5.2238  -1.0682  17.9354   H         1 RES1   0.0000
   106 C44      5.8216  -1.0169  19.8778   C.3       1 RES1   0.0000
   107 H50      5.4057  -0.1655  20.0863   H         1 RES1   0.0000
   108 H51      6.6644  -1.0649  20.3528   H         1 RES1   0.0000
   109 C45      4.9099  -2.1560  20.3344   C.3       1 RES1   0.0000
   110 H52      4.0389  -2.0355  19.9227   H         1 RES1   0.0000
   111 H53      5.2753  -2.9921  20.0045   H         1 RES1   0.0000
   112 C46      4.7216  -2.2746  21.8043   C.3       1 RES1   0.0000
   113 H54      4.2501  -1.4882  22.1237   H         1 RES1   0.0000
   114 H55      5.5933  -2.2876  22.2319   H         1 RES1   0.0000
   115 C47      3.9407  -3.5280  22.2372   C.3       1 RES1   0.0000
   116 H56      3.0375  -3.4383  21.8967   H         1 RES1   0.0000
   117 H57      4.3403  -4.2870  21.7859   H         1 RES1   0.0000
   118 C48      3.8406  -3.8597  23.5963   C.3       1 RES1   0.0000
   119 H58      3.4234  -3.1125  24.0529   H         1 RES1   0.0000
   120 H59      4.7412  -3.9412  23.9473   H         1 RES1   0.0000
   121 C49      3.0880  -5.1024  23.9737   C.3       1 RES1   0.0000
   122 H60      2.1751  -4.9716  23.6728   H         1 RES1   0.0000
   123 H61      3.4560  -5.8187  23.4327   H         1 RES1   0.0000
   124 C50      3.0058  -5.6041  25.3117   C.3       1 RES1   0.0000
   125 H62      2.6587  -4.8797  25.8554   H         1 RES1   0.0000
   126 H63      3.9189  -5.7543  25.6047   H         1 RES1   0.0000
   127 C51      2.2383  -6.8168  25.6891   C.3       1 RES1   0.0000
   128 H64      1.3215  -6.6417  25.4226   H         1 RES1   0.0000
   129 H65      2.5591  -7.5234  25.1059   H         1 RES1   0.0000
   130 C52      2.1615  -7.3932  26.9902   C.3       1 RES1   0.0000
   131 H66      1.8056  -6.7049  27.5734   H         1 RES1   0.0000
   132 H67      3.0761  -7.5493  27.2752   H         1 RES1   0.0000
   133 C53      1.4269  -8.6072  27.2937   C.3       1 RES1   0.0000
   134 H68      0.5080  -8.4344  27.0324   H         1 RES1   0.0000
   135 H69      1.7607  -9.2811  26.6814   H         1 RES1   0.0000
   136 C54      1.3602  -9.2272  28.5446   C.3       1 RES1   0.0000
   137 H70      2.2698  -9.4739  28.7742   H         1 RES1   0.0000
   138 H71      1.0946  -8.5392  29.1754   H         1 RES1   0.0000
   139 C55      0.5973 -10.3042  28.8191   C.3       1 RES1   0.0000
   140 H72      0.8287 -10.9845  28.1672   H         1 RES1   0.0000
   141 H73     -0.3222 -10.0487  28.6396   H         1 RES1   0.0000
   142 C56      0.6066 -10.9247  30.0727   C.3       1 RES1   0.0000
   143 H74      1.5133 -11.2279  30.2363   H         1 RES1   0.0000
   144 H75      0.4137 -10.2405  30.7325   H         1 RES1   0.0000
   145 C57     -0.2106 -11.9523  30.3208   C.3       1 RES1   0.0000
   146 H76     -1.1078 -11.5949  30.3419   H         1 RES1   0.0000
   147 H77     -0.1622 -12.5330  29.5422   H         1 RES1   0.0000
   148 C58     -0.0962 -12.7429  31.3685   C.3       1 RES1   0.0000
   149 H78     -0.7469 -13.4434  31.3104   H         1 RES1   0.0000
   150 H79     -0.2513 -12.2273  32.1655   H         1 RES1   0.0000
   151 H80      0.7840 -13.1160  31.3949   H         1 RES1   0.0000
   152 Cl1      9.4522  -1.1244  14.5988   Cl        2 RES2   0.0000
   153 O1       9.3801  -2.1072  13.7075   O.3       2 RES2  -1.0000
   154 O2       8.2749  -0.5256  14.7632   O.2       2 RES2   0.0000
   155 O3      10.4269  -0.3631  14.3198   O.2       2 RES2   0.0000
   156 O4       9.7867  -1.9400  15.6288   O.2       2 RES2   0.0000
   157 Cl2      3.4445   2.3795  18.9274   Cl        3 RES3   0.0000
   158 O5       3.3863   2.8957  17.6108   O.3       3 RES3  -1.0000
   159 O6       4.7610   2.4704  19.3526   O.2       3 RES3   0.0000
   160 O7       3.0776   1.0712  18.7192   O.2       3 RES3   0.0000
   161 O8       2.5596   3.0946  19.6719   O.2       3 RES3   0.0000
@<TRIPOS>BOND
     1     1     2    1
     2     2    14   ar
     3     3     1    1
     4     4     1    1
     5     5     4    2
     6     6     5    1
     7     7     6    1
     8     8     1    1
     9     9     1    1
    10    10     1    1
    11    11    10    2
    12    12    11    1
    13    13    12    1
    14    14    15    1
    15    16    14   ar
    16    17    16    1
    17    18    16   ar
    18    19    18    1
    19    20    18   ar
    20    21    20   ar
    21    22    21    1
    22    23    21   ar
    23    24    23    1
    24    25    23   ar
    25    26    25   ar
    26    27    26    1
    27    28    26   ar
    28    29    28    1
    29    30     3   ar
    30    31     3   ar
    31    32     2   ar
    32    33     4    1
    33    34     6    1
    34    35    34    1
    35    36    34    1
    36    37    34    1
    37    38    37    1
    38    39    37    1
    39    40    37    1
    40    41    40    1
    41    42    40    1
    42    43    40    1
    43    44    43    1
    44    45    43    1
    45    46    43    1
    46    47    46    1
    47    48    46    1
    48    49    46    1
    49    50    49    1
    50    51    49    1
    51    52    49    1
    52    53    52    1
    53    54    52    1
    54    55    52    1
    55    56    55    1
    56    57    55    1
    57    58    55    1
    58    59    58    1
    59    60    58    1
    60    61    58    1
    61    62    61    1
    62    63    61    1
    63    64    61    1
    64    65    64    1
    65    66    64    1
    66    67    64    1
    67    68    67    1
    68    69    67    1
    69    70    67    1
    70    71    70    1
    71    72    70    1
    72    73    70    1
    73    74    73    1
    74    75    73    1
    75    76    73    1
    76    77    76    1
    77    78    76    1
    78    79    76    1
    79    80    79    1
    80    81    79    1
    81    82    79    1
    82    83     8   ar
    83    84    83    1
    84    85    83   ar
    85    86    85    1
    86    87    85   ar
    87    88    87    1
    88    89    87   ar
    89    90    89   ar
    90    91    90    1
    91    92    90   ar
    92    93    92    1
    93    94    92   ar
    94    95    94   ar
    95    96    95    1
    96    97    95   ar
    97    98    97    1
    98    99     9   ar
    99   100     9   ar
   100   101     8   ar
   101   102    10    1
   102   103    12    1
   103   104   103    1
   104   105   103    1
   105   106   103    1
   106   107   106    1
   107   108   106    1
   108   109   106    1
   109   110   109    1
   110   111   109    1
   111   112   109    1
   112   113   112    1
   113   114   112    1
   114   115   112    1
   115   116   115    1
   116   117   115    1
   117   118   115    1
   118   119   118    1
   119   120   118    1
   120   121   118    1
   121   122   121    1
   122   123   121    1
   123   124   121    1
   124   125   124    1
   125   126   124    1
   126   127   124    1
   127   128   127    1
   128   129   127    1
   129   130   127    1
   130   131   130    1
   131   132   130    1
   132   133   130    1
   133   134   133    1
   134   135   133    1
   135   136   133    1
   136   137   136    1
   137   138   136    1
   138   139   136    1
   139   140   139    1
   140   141   139    1
   141   142   139    1
   142   143   142    1
   143   144   142    1
   144   145   142    1
   145   146   145    1
   146   147   145    1
   147   148   145    1
   148   149   148    1
   149   150   148    1
   150   151   148    1
   151     7    33    2
   152    13   102    2
   153    20    32   ar
   154    25    31   ar
   155    28    30   ar
   156    30    33    1
   157    31    32   ar
   158    89   101   ar
   159    94   100   ar
   160    97    99   ar
   161    99   102    1
   162   100   101   ar
   163   152   153    1
   164   154   152    2
   165   155   152    2
   166   156   152    2
   167   157   158    1
   168   159   157    2
   169   160   157    2
   170   161   157    2
@<TRIPOS>SUBSTRUCTURE
     1 RES1        1 GROUP             0 ****  ****    0  
     2 RES2      152 GROUP             0 ****  ****    0  
     3 RES3      157 GROUP             0 ****  ****    0  
@<TRIPOS>CRYSIN
   12.6873   10.3056   27.0758  102.1990   89.6810  110.4120     2     1
