@<TRIPOS>MOLECULE
QIMVEN
   134   151     2     0     0
SMALL
NO_CHARGES
****
Generated from the CSD

@<TRIPOS>ATOM
     1 Fe1      8.3645  -0.4404   5.6141   Fe        1 RES1   0.0000
     2 Fe2      9.3495   0.2777   8.4262   Fe        1 RES1   0.0000
     3 Fe3      7.3418   1.8081  10.3864   Fe        1 RES1   0.0000
     4 Fe4      6.6166  -2.2453   7.5059   Fe        1 RES1   0.0000
     5 Fe5      6.3084   0.8102   7.5776   Fe        1 RES1   0.0000
     6 Cl1      8.8711  -0.1681   3.4029   Cl        1 RES1   0.0000
     7 Cl2     10.7632  -1.4806   8.7609   Cl        1 RES1   0.0000
     8 Cl3      8.8677   3.2258  11.3528   Cl        1 RES1   0.0000
     9 Cl4      8.1151  -3.9656   7.6647   Cl        1 RES1   0.0000
    10 O1       9.7115  -2.0902   5.6926   O.3       1 RES1   0.0000
    11 O2       9.7508   0.6497   6.5019   O.3       1 RES1   0.0000
    12 O3       6.9923  -1.8808   5.4655   O.3       1 RES1   0.0000
    13 O4       6.9431   0.9675   5.7251   O.3       1 RES1   0.0000
    14 O5       7.8210  -0.6378   7.5845   O.3       1 RES1   0.0000
    15 O6      10.8301   1.6943   8.8958   O.3       1 RES1   0.0000
    16 O7       8.6624   0.3373  10.2737   O.3       1 RES1   0.0000
    17 O8       7.9089   1.9036   8.3955   O.3       1 RES1   0.0000
    18 O9       6.5058   1.0977  12.1621   O.3       1 RES1   0.0000
    19 O10      5.1518  -0.7647   7.4923   O.3       1 RES1   0.0000
    20 O11      5.0032  -3.2442   6.9254   O.3       1 RES1   0.0000
    21 O12      6.0678  -2.2051   9.4370   O.3       1 RES1   0.0000
    22 C1      11.1146  -2.0294   5.3767   C.3       1 RES1   0.0000
    23 C2      10.8925   1.2842   5.9351   C.3       1 RES1   0.0000
    24 C3       7.0679  -2.9720   4.5367   C.3       1 RES1   0.0000
    25 C4       6.6156   1.9318   4.7279   C.3       1 RES1   0.0000
    26 C5      11.9453   1.5554   9.7819   C.3       1 RES1   0.0000
    27 C6       8.1642   3.1835   7.7791   C.3       1 RES1   0.0000
    28 C7       9.3170  -0.1399  11.4501   C.3       1 RES1   0.0000
    29 C8       6.8449   1.3623  13.5349   C.3       1 RES1   0.0000
    30 C9       4.8744  -4.6565   6.7683   C.3       1 RES1   0.0000
    31 C10      6.9950  -2.5132  10.4769   C.3       1 RES1   0.0000
    32 H1      11.4292  -2.8071   5.3101   H         1 RES1   0.0000
    33 H2      11.6287  -1.4459   6.0204   H         1 RES1   0.0000
    34 H3      11.1815  -1.5966   4.4940   H         1 RES1   0.0000
    35 H4       9.6750  -2.5739   6.3175   H         1 RES1   0.0000
    36 H5      11.6860   1.0033   6.3739   H         1 RES1   0.0000
    37 H6      11.0479   1.0749   5.0062   H         1 RES1   0.0000
    38 H7      10.8380   2.2268   6.0887   H         1 RES1   0.0000
    39 H8       6.2485  -3.3994   4.4103   H         1 RES1   0.0000
    40 H9       7.2598  -2.6119   3.6812   H         1 RES1   0.0000
    41 H10      7.6997  -3.6087   4.8150   H         1 RES1   0.0000
    42 H11      7.2819   2.2030   4.2447   H         1 RES1   0.0000
    43 H12      5.8792   1.6107   4.2942   H         1 RES1   0.0000
    44 H13      6.4157   2.8679   5.0250   H         1 RES1   0.0000
    45 H14     10.7945   2.2973   8.8309   H         1 RES1   0.0000
    46 H15     12.1663   0.5879   9.9083   H         1 RES1   0.0000
    47 H16     11.7131   2.1617  10.6391   H         1 RES1   0.0000
    48 H17     12.7799   1.7485   9.2885   H         1 RES1   0.0000
    49 H18      7.3899   3.6510   7.7108   H         1 RES1   0.0000
    50 H19      8.7071   3.7269   8.3460   H         1 RES1   0.0000
    51 H20      8.6445   3.0620   7.0142   H         1 RES1   0.0000
    52 H21      8.6650  -0.5304  12.0580   H         1 RES1   0.0000
    53 H22      9.9197  -0.8482  11.2042   H         1 RES1   0.0000
    54 H23      9.7614   0.6193  11.9521   H         1 RES1   0.0000
    55 H24      5.7660   1.2203  12.0665   H         1 RES1   0.0000
    56 H25      7.4604   0.7701  13.8832   H         1 RES1   0.0000
    57 H26      6.1152   1.3450  14.0984   H         1 RES1   0.0000
    58 H27      7.1251   2.2214  13.6817   H         1 RES1   0.0000
    59 H28      5.6245  -4.9895   6.8776   H         1 RES1   0.0000
    60 H29      4.4313  -4.9656   7.4598   H         1 RES1   0.0000
    61 H30      4.5352  -4.8886   5.9982   H         1 RES1   0.0000
    62 H31      6.9871  -1.8808  11.1223   H         1 RES1   0.0000
    63 H32      7.9468  -2.5186  10.0773   H         1 RES1   0.0000
    64 H33      6.6917  -3.4004  10.8303   H         1 RES1   0.0000
    65 O10B     5.8406   0.7647   9.5822   O.3       1 RES1   0.0000
    66 Fe4B     4.3757   2.2453   9.5685   Fe        1 RES1   0.0000
    67 Cl4B     2.8773   3.9656   9.4097   Cl        1 RES1   0.0000
    68 O3B      4.0001   1.8808  11.6089   O.3       1 RES1   0.0000
    69 Fe1B     2.6279   0.4404  11.4604   Fe        1 RES1   0.0000
    70 Cl1B     2.1212   0.1681  13.6715   Cl        1 RES1   0.0000
    71 O1B      1.2808   2.0902  11.3818   O.3       1 RES1   0.0000
    72 C1B     -0.1222   2.0294  11.6977   C.3       1 RES1   0.0000
    73 H1B     -0.4368   2.8071  11.7643   H         1 RES1   0.0000
    74 H2B     -0.6364   1.4459  11.0540   H         1 RES1   0.0000
    75 H3B     -0.1891   1.5966  12.5804   H         1 RES1   0.0000
    76 H4B      1.3173   2.5739  10.7569   H         1 RES1   0.0000
    77 O2B      1.2416  -0.6497  10.5725   O.3       1 RES1   0.0000
    78 Fe2B     1.6429  -0.2777   8.6482   Fe        1 RES1   0.0000
    79 Cl2B     0.2292   1.4806   8.3135   Cl        1 RES1   0.0000
    80 O5B      3.1714   0.6378   9.4900   O.3       1 RES1   0.0000
    81 O4B      4.0493  -0.9675  11.3494   O.3       1 RES1   0.0000
    82 Fe5B     4.6840  -0.8102   9.4968   Fe        1 RES1   0.0000
    83 O11B     5.9892   3.2442  10.1490   O.3       1 RES1   0.0000
    84 C9B      6.1179   4.6565  10.3061   C.3       1 RES1   0.0000
    85 H28B     5.3679   4.9895  10.1969   H         1 RES1   0.0000
    86 H29B     6.5611   4.9656   9.6146   H         1 RES1   0.0000
    87 H30B     6.4572   4.8886  11.0762   H         1 RES1   0.0000
    88 O12B     4.9246   2.2051   7.6374   O.3       1 RES1   0.0000
    89 O8B      3.0834  -1.9036   8.6789   O.3       1 RES1   0.0000
    90 O6B      0.1623  -1.6943   8.1787   O.3       1 RES1   0.0000
    91 C5B     -0.9529  -1.5554   7.2925   C.3       1 RES1   0.0000
    92 H15B    -1.1739  -0.5879   7.1661   H         1 RES1   0.0000
    93 H16B    -0.7207  -2.1617   6.4354   H         1 RES1   0.0000
    94 H17B    -1.7875  -1.7485   7.7859   H         1 RES1   0.0000
    95 H14B     0.1979  -2.2973   8.2435   H         1 RES1   0.0000
    96 O7B      2.3300  -0.3373   6.8007   O.3       1 RES1   0.0000
    97 Fe3B     3.6506  -1.8081   6.6881   Fe        1 RES1   0.0000
    98 Cl3B     2.1247  -3.2258   5.7216   Cl        1 RES1   0.0000
    99 C6B      2.8282  -3.1835   9.2953   C.3       1 RES1   0.0000
   100 H18B     3.6025  -3.6510   9.3636   H         1 RES1   0.0000
   101 H19B     2.2853  -3.7269   8.7285   H         1 RES1   0.0000
   102 H20B     2.3479  -3.0620  10.0603   H         1 RES1   0.0000
   103 O9B      4.4866  -1.0977   4.9123   O.3       1 RES1   0.0000
   104 C8B      4.1475  -1.3623   3.5395   C.3       1 RES1   0.0000
   105 H25B     3.5320  -0.7701   3.1912   H         1 RES1   0.0000
   106 H26B     4.8772  -1.3450   2.9761   H         1 RES1   0.0000
   107 H27B     3.8673  -2.2214   3.3927   H         1 RES1   0.0000
   108 H24B     5.2263  -1.2203   5.0079   H         1 RES1   0.0000
   109 C7B      1.6754   0.1399   5.6243   C.3       1 RES1   0.0000
   110 H21B     2.3274   0.5304   5.0165   H         1 RES1   0.0000
   111 H22B     1.0727   0.8482   5.8702   H         1 RES1   0.0000
   112 H23B     1.2310  -0.6193   5.1223   H         1 RES1   0.0000
   113 C10B     3.9974   2.5132   6.5976   C.3       1 RES1   0.0000
   114 H31B     4.0053   1.8808   5.9521   H         1 RES1   0.0000
   115 H32B     3.0456   2.5186   6.9971   H         1 RES1   0.0000
   116 H33B     4.3007   3.4004   6.2441   H         1 RES1   0.0000
   117 C4B      4.3767  -1.9318  12.3465   C.3       1 RES1   0.0000
   118 H11B     3.7105  -2.2030  12.8297   H         1 RES1   0.0000
   119 H12B     5.1132  -1.6107  12.7802   H         1 RES1   0.0000
   120 H13B     4.5767  -2.8679  12.0494   H         1 RES1   0.0000
   121 C2B      0.0998  -1.2842  11.1394   C.3       1 RES1   0.0000
   122 H5B     -0.6936  -1.0033  10.7005   H         1 RES1   0.0000
   123 H6B     -0.0555  -1.0749  12.0682   H         1 RES1   0.0000
   124 H7B      0.1543  -2.2268  10.9857   H         1 RES1   0.0000
   125 C3B      3.9245   2.9720  12.5378   C.3       1 RES1   0.0000
   126 H8B      4.7438   3.3994  12.6641   H         1 RES1   0.0000
   127 H9B      3.7326   2.6119  13.3932   H         1 RES1   0.0000
   128 H10B     3.2927   3.6087  12.2594   H         1 RES1   0.0000
   129 O13      9.3743  -1.2886   0.4286   O.3       2 RES2   0.0000
   130 C11      9.5147  -0.1464  -0.4234   C.3       2 RES2   0.0000
   131 H34      8.7141   0.7907  -0.6113   H         2 RES2   0.0000
   132 H35     10.1926   0.3720  -0.2356   H         2 RES2   0.0000
   133 H36      9.3921  -0.4447  -1.3694   H         2 RES2   0.0000
   134 H37      9.2235  -0.8319   1.3096   H         2 RES2   0.0000
@<TRIPOS>BOND
     1     1     6    1
     2     2     7    1
     3     3     8    1
     4     4     9    1
     5     5    13    1
     6    10     1    1
     7    11     1    1
     8    12     1    1
     9    13     1    1
    10    14     1    1
    11    15     2    1
    12    16     2    1
    13    17     2    1
    14    18     3    1
    15    19     4    1
    16    20     4    1
    17    21     4    1
    18    22    10    1
    19    23    11    1
    20    24    12    1
    21    25    13    1
    22    26    15    1
    23    27    17    1
    24    28    16    1
    25    29    18    1
    26    30    20    1
    27    31    21    1
    28    32    22    1
    29    33    22    1
    30    34    22    1
    31    35    10    1
    32    36    23    1
    33    37    23    1
    34    38    23    1
    35    39    24    1
    36    40    24    1
    37    41    24    1
    38    42    25    1
    39    43    25    1
    40    44    25    1
    41    45    15    1
    42    46    26    1
    43    47    26    1
    44    48    26    1
    45    49    27    1
    46    50    27    1
    47    51    27    1
    48    52    28    1
    49    53    28    1
    50    54    28    1
    51    55    18    1
    52    56    29    1
    53    57    29    1
    54    58    29    1
    55    59    30    1
    56    60    30    1
    57    61    30    1
    58    62    31    1
    59    63    31    1
    60    64    31    1
    61    65     3    1
    62    66    65    1
    63    67    66    1
    64    68    66    1
    65    69    68    1
    66    70    69    1
    67    71    69    1
    68    72    71    1
    69    73    72    1
    70    74    72    1
    71    75    72    1
    72    76    71    1
    73    77    69    1
    74    78    77    1
    75    79    78    1
    76    80    66    1
    77    81    69    1
    78    82    19    1
    79    83     3    1
    80    84    83    1
    81    85    84    1
    82    86    84    1
    83    87    84    1
    84    88     5    1
    85    89    78    1
    86    90    78    1
    87    91    90    1
    88    92    91    1
    89    93    91    1
    90    94    91    1
    91    95    90    1
    92    96    78    1
    93    97    19    1
    94    98    97    1
    95    99    89    1
    96   100    99    1
    97   101    99    1
    98   102    99    1
    99   103    97    1
   100   104   103    1
   101   105   104    1
   102   106   104    1
   103   107   104    1
   104   108   103    1
   105   109    96    1
   106   110   109    1
   107   111   109    1
   108   112   109    1
   109   113    88    1
   110   114   113    1
   111   115   113    1
   112   116   113    1
   113   117    81    1
   114   118   117    1
   115   119   117    1
   116   120   117    1
   117   121    77    1
   118   122   121    1
   119   123   121    1
   120   124   121    1
   121   125    68    1
   122   126   125    1
   123   127   125    1
   124   128   125    1
   125     2    11    1
   126     2    14    1
   127     3    16    1
   128     3    17    1
   129     4    12    1
   130     4    14    1
   131     5    14    1
   132     5    17    1
   133     5    65    1
   134     5    19    1
   135    20    97    1
   136    21    82    1
   137    65    82    1
   138    66    83    1
   139    66    88    1
   140    69    80    1
   141    78    80    1
   142    80    82    1
   143    81    82    1
   144    82    89    1
   145    89    97    1
   146    96    97    1
   147   129   130    1
   148   130   131    1
   149   132   130    1
   150   133   130    1
   151   134   129    1
@<TRIPOS>SUBSTRUCTURE
     1 RES1        1 GROUP             0 ****  ****    0  
     2 RES2      129 GROUP             0 ****  ****    0  
@<TRIPOS>CRYSIN
   15.3430   10.8467   17.6200   90.0000  104.2950   90.0000   231     1
