@<TRIPOS>MOLECULE
QIMWAM01
   103   107     5     0     0
SMALL
USER_CHARGES
****
Generated from the CSD

@<TRIPOS>ATOM
     1 N1       4.3303   8.2301  -1.9248   N.1       1 RES1   0.0000
     2 C1       5.1214   7.6673  -1.3312   C.1       1 RES1   0.0000
     3 C2       6.1222   6.9452  -0.5685   C.3       1 RES1   0.0000
     4 H1       5.9842   7.1009   0.3678   H         1 RES1   0.0000
     5 H2       6.9974   7.2520  -0.8187   H         1 RES1   0.0000
     6 H3       6.0477   6.0048  -0.7515   H         1 RES1   0.0000
     7 C3       5.7394   1.9998   3.8325   C.ar      2 RES2   0.0000
     8 C4       7.0573   1.6433   4.0934   C.ar      2 RES2   0.0000
     9 H4       7.5089   2.0293   4.8081   H         2 RES2   0.0000
    10 C5       7.7022   0.7109   3.2863   C.ar      2 RES2   0.0000
    11 H5       8.5829   0.4717   3.4695   H         2 RES2   0.0000
    12 C6       7.0467   0.1368   2.2141   C.ar      2 RES2   0.0000
    13 H6       7.4842  -0.4802   1.6729   H         2 RES2   0.0000
    14 C7       5.7431   0.4841   1.9540   C.ar      2 RES2   0.0000
    15 H7       5.2944   0.1001   1.2361   H         2 RES2   0.0000
    16 C8       5.0989   1.4022   2.7579   C.ar      2 RES2   0.0000
    17 H8       4.2151   1.6255   2.5747   H         2 RES2   0.0000
    18 C9       5.0323   3.0270   4.6732   C.3       2 RES2   0.0000
    19 H9       4.7509   3.7566   4.1167   H         2 RES2   0.0000
    20 H10      5.6303   3.3528   5.3510   H         2 RES2   0.0000
    21 H11      4.2649   2.6266   5.0893   H         2 RES2   0.0000
    22 P1       4.1181   3.4332  -1.3557   P.3       3 RES3  -1.0000
    23 F1       4.3357   2.1489  -0.4361   F         3 RES3   0.0000
    24 F2       5.7099   3.5445  -1.5634   F         3 RES3   0.0000
    25 F3       4.0114   2.4959  -2.6435   F         3 RES3   0.0000
    26 F4       3.9130   4.7280  -2.2628   F         3 RES3   0.0000
    27 F5       2.5342   3.3263  -1.1335   F         3 RES3   0.0000
    28 F6       4.2351   4.3695  -0.0541   F         3 RES3   0.0000
    29 P2       3.6971   7.6789   3.5993   P.3       4 RES4  -1.0000
    30 F7       3.1925   9.2032   3.5614   F         4 RES4   0.0000
    31 F8       4.5863   8.0338   4.8707   F         4 RES4   0.0000
    32 F9       4.9002   8.0557   2.6267   F         4 RES4   0.0000
    33 F10      4.1399   6.1633   3.6433   F         4 RES4   0.0000
    34 F11      2.7583   7.3746   2.3505   F         4 RES4   0.0000
    35 F12      2.4823   7.3219   4.5805   F         4 RES4   0.0000
    36 Fe1     -1.4620   4.1916   1.8544   Fe        5 RES5   2.0000
    37 N2      -0.6234   5.6785   0.3404   N.ar      5 RES5   0.0000
    38 N3      -3.7421   4.4947   1.7591   N.ar      5 RES5   0.0000
    39 N4      -1.4297   2.2209   0.7761   N.ar      5 RES5   0.0000
    40 N5      -0.1006   4.3756   4.8034   N.3       5 RES5   0.0000
    41 N6      -1.8015   5.8628   3.1190   N.2       5 RES5   0.0000
    42 N7      -1.9526   2.7639   3.3869   N.2       5 RES5   0.0000
    43 N8       0.6640   4.0756   2.0980   N.2       5 RES5   0.0000
    44 C10      1.2734   4.0748   4.4537   C.3       5 RES5   0.0000
    45 H12      1.6779   3.5479   5.1600   H         5 RES5   0.0000
    46 H13      1.7731   4.9019   4.3713   H         5 RES5   0.0000
    47 C11      1.3493   3.3009   3.1356   C.3       5 RES5   0.0000
    48 H14      2.2768   3.1611   2.8859   H         5 RES5   0.0000
    49 H15      0.9257   2.4332   3.2361   H         5 RES5   0.0000
    50 C12     -0.4290   5.7486   5.1344   C.3       5 RES5   0.0000
    51 H16      0.3226   6.1575   5.5933   H         5 RES5   0.0000
    52 H17     -1.1889   5.7605   5.7365   H         5 RES5   0.0000
    53 C13     -0.7625   6.5649   3.8792   C.3       5 RES5   0.0000
    54 H18     -1.0772   7.4471   4.1326   H         5 RES5   0.0000
    55 H19      0.0312   6.6700   3.3333   H         5 RES5   0.0000
    56 C14     -0.8384   3.3323   5.4888   C.3       5 RES5   0.0000
    57 H20     -0.9948   3.6005   6.4085   H         5 RES5   0.0000
    58 H21     -0.3085   2.5197   5.4995   H         5 RES5   0.0000
    59 C15     -2.1796   3.0535   4.8078   C.3       5 RES5   0.0000
    60 H22     -2.6127   2.2974   5.2325   H         5 RES5   0.0000
    61 H23     -2.7603   3.8262   4.8965   H         5 RES5   0.0000
    62 C16     -2.0257   1.5547   3.0076   C.2       5 RES5   0.0000
    63 H24     -2.2330   0.8874   3.6216   H         5 RES5   0.0000
    64 C17     -1.7851   1.2067   1.6053   C.ar      5 RES5   0.0000
    65 C18     -1.9727  -0.0984   1.1853   C.ar      5 RES5   0.0000
    66 H25     -2.2037  -0.7652   1.7913   H         5 RES5   0.0000
    67 C19     -1.8084  -0.3911  -0.1629   C.ar      5 RES5   0.0000
    68 H26     -1.9496  -1.2522  -0.4828   H         5 RES5   0.0000
    69 C20     -1.4311   0.6237  -1.0152   C.ar      5 RES5   0.0000
    70 H27     -1.3083   0.4462  -1.9204   H         5 RES5   0.0000
    71 C21     -1.2317   1.9228  -0.5233   C.ar      5 RES5   0.0000
    72 C22     -0.8101   3.0150  -1.4548   C.3       5 RES5   0.0000
    73 H28     -1.4316   3.7447  -1.3952   H         5 RES5   0.0000
    74 H29     -0.7946   2.6792  -2.3537   H         5 RES5   0.0000
    75 H30      0.0662   3.3223  -1.2131   H         5 RES5   0.0000
    76 C23     -3.0175   6.1716   3.3356   C.2       5 RES5   0.0000
    77 H31     -3.2216   6.8702   3.9151   H         5 RES5   0.0000
    78 C24     -4.0982   5.4325   2.6755   C.ar      5 RES5   0.0000
    79 C25     -5.4145   5.7296   2.9949   C.ar      5 RES5   0.0000
    80 H32     -5.6147   6.3832   3.6251   H         5 RES5   0.0000
    81 C26     -6.4276   5.0300   2.3538   C.ar      5 RES5   0.0000
    82 H33     -7.3205   5.1955   2.5535   H         5 RES5   0.0000
    83 C27     -6.0822   4.0873   1.4168   C.ar      5 RES5   0.0000
    84 H34     -6.7461   3.6107   0.9744   H         5 RES5   0.0000
    85 C28     -4.7363   3.8415   1.1261   C.ar      5 RES5   0.0000
    86 C29     -4.4079   2.8409   0.0628   C.3       5 RES5   0.0000
    87 H35     -3.7025   3.1831  -0.4916   H         5 RES5   0.0000
    88 H36     -5.1862   2.6775  -0.4739   H         5 RES5   0.0000
    89 H37     -4.1238   2.0208   0.4721   H         5 RES5   0.0000
    90 C30      1.3807   4.7932   1.3250   C.2       5 RES5   0.0000
    91 H38      2.3080   4.7475   1.3722   H         5 RES5   0.0000
    92 C31      0.7337   5.6904   0.3622   C.ar      5 RES5   0.0000
    93 C32      1.5058   6.5089  -0.4414   C.ar      5 RES5   0.0000
    94 H39      2.4346   6.4782  -0.3979   H         5 RES5   0.0000
    95 C33      0.8637   7.3758  -1.3135   C.ar      5 RES5   0.0000
    96 H40      1.3521   7.9374  -1.8709   H         5 RES5   0.0000
    97 C34     -0.5197   7.3875  -1.3346   C.ar      5 RES5   0.0000
    98 H41     -0.9705   7.9646  -1.9080   H         5 RES5   0.0000
    99 C35     -1.2420   6.5318  -0.4951   C.ar      5 RES5   0.0000
   100 C36     -2.7417   6.5476  -0.5034   C.3       5 RES5   0.0000
   101 H42     -3.0709   5.6570  -0.6472   H         5 RES5   0.0000
   102 H43     -3.0523   7.1213  -1.2078   H         5 RES5   0.0000
   103 H44     -3.0623   6.8736   0.3395   H         5 RES5   0.0000
@<TRIPOS>BOND
     1     1     2    3
     2     2     3    1
     3     3     4    1
     4     5     3    1
     5     6     3    1
     6     7     8   ar
     7     8     9    1
     8    10     8   ar
     9    11    10    1
    10    12    10   ar
    11    13    12    1
    12    14    12   ar
    13    15    14    1
    14    16     7   ar
    15    17    16    1
    16    18     7    1
    17    19    18    1
    18    20    18    1
    19    21    18    1
    20    14    16   ar
    21    22    23    1
    22    24    22    1
    23    25    22    1
    24    26    22    1
    25    27    22    1
    26    28    22    1
    27    29    30    1
    28    31    29    1
    29    32    29    1
    30    33    29    1
    31    34    29    1
    32    35    29    1
    33    36    37    1
    34    37    92   ar
    35    38    36    1
    36    39    36    1
    37    40    44    1
    38    41    36    1
    39    42    36    1
    40    43    36    1
    41    44    45    1
    42    46    44    1
    43    47    43    1
    44    48    47    1
    45    49    47    1
    46    50    40    1
    47    51    50    1
    48    52    50    1
    49    53    41    1
    50    54    53    1
    51    55    53    1
    52    56    40    1
    53    57    56    1
    54    58    56    1
    55    59    42    1
    56    60    59    1
    57    61    59    1
    58    62    42    2
    59    63    62    1
    60    64    39   ar
    61    65    64   ar
    62    66    65    1
    63    67    65   ar
    64    68    67    1
    65    69    67   ar
    66    70    69    1
    67    71    39   ar
    68    72    71    1
    69    73    72    1
    70    74    72    1
    71    75    72    1
    72    76    41    2
    73    77    76    1
    74    78    38   ar
    75    79    78   ar
    76    80    79    1
    77    81    79   ar
    78    82    81    1
    79    83    81   ar
    80    84    83    1
    81    85    38   ar
    82    86    85    1
    83    87    86    1
    84    88    86    1
    85    89    86    1
    86    90    43    2
    87    91    90    1
    88    92    90    1
    89    93    92   ar
    90    94    93    1
    91    95    93   ar
    92    96    95    1
    93    97    95   ar
    94    98    97    1
    95    99    37   ar
    96   100    99    1
    97   101   100    1
    98   102   100    1
    99   103   100    1
   100    44    47    1
   101    50    53    1
   102    56    59    1
   103    62    64    1
   104    69    71   ar
   105    76    78    1
   106    83    85   ar
   107    97    99   ar
@<TRIPOS>SUBSTRUCTURE
     1 RES1        1 GROUP             0 ****  ****    0  
     2 RES2        7 GROUP             0 ****  ****    0  
     3 RES3       22 GROUP             0 ****  ****    0  
     4 RES4       29 GROUP             0 ****  ****    0  
     5 RES5       36 GROUP             0 ****  ****    0  
@<TRIPOS>CRYSIN
   13.3157   16.9676   18.1951   90.0000  103.6200   90.0000   231     1
