@<TRIPOS>MOLECULE
QIPWUH
   117   123     4     0     0
SMALL
USER_CHARGES
****
Generated from the CSD

@<TRIPOS>ATOM
     1 Fe1      4.2120   5.0056   3.7655   Fe        1 RES1   1.0000
     2 P1       2.6176   3.4526   4.1317   P.3       1 RES1   0.0000
     3 P2       5.4939   3.5892   4.9637   P.3       1 RES1   0.0000
     4 P3       2.8442   6.4992   2.8215   P.3       1 RES1   0.0000
     5 P4       5.7468   6.6410   3.5709   P.3       1 RES1   0.0000
     6 N1       5.2044   3.6543   1.2743   N.1       1 RES1   0.0000
     7 C1       1.3551   3.5720   5.4492   C.ar      1 RES1   0.0000
     8 C2       0.3369   2.6332   5.5521   C.ar      1 RES1   0.0000
     9 H1       0.2654   1.9668   4.9085   H         1 RES1   0.0000
    10 C3      -0.5771   2.6726   6.5969   C.ar      1 RES1   0.0000
    11 H2      -1.2567   2.0387   6.6484   H         1 RES1   0.0000
    12 C4      -0.4705   3.6628   7.5602   C.ar      1 RES1   0.0000
    13 H3      -1.0705   3.6834   8.2681   H         1 RES1   0.0000
    14 C5       0.5019   4.5999   7.4744   C.ar      1 RES1   0.0000
    15 H4       0.5506   5.2698   8.1158   H         1 RES1   0.0000
    16 C6       1.4320   4.5708   6.4317   C.ar      1 RES1   0.0000
    17 H5       2.1021   5.2150   6.3888   H         1 RES1   0.0000
    18 C7       1.6233   2.8696   2.6967   C.ar      1 RES1   0.0000
    19 C8       2.1954   1.9925   1.7806   C.ar      1 RES1   0.0000
    20 H6       3.0723   1.7046   1.8986   H         1 RES1   0.0000
    21 C9       1.4537   1.5402   0.6822   C.ar      1 RES1   0.0000
    22 H7       1.8356   0.9577   0.0665   H         1 RES1   0.0000
    23 C10      0.1356   1.9668   0.5213   C.ar      1 RES1   0.0000
    24 H8      -0.3730   1.6498  -0.1888   H         1 RES1   0.0000
    25 C11     -0.4082   2.8559   1.4073   C.ar      1 RES1   0.0000
    26 H9      -1.2783   3.1609   1.2893   H         1 RES1   0.0000
    27 C12      0.3339   3.2979   2.4736   C.ar      1 RES1   0.0000
    28 H10     -0.0452   3.9061   3.0657   H         1 RES1   0.0000
    29 C13      7.3155   3.4915   4.7605   C.ar      1 RES1   0.0000
    30 C14      8.1570   4.1494   5.6379   C.ar      1 RES1   0.0000
    31 H11      7.8012   4.6342   6.3480   H         1 RES1   0.0000
    32 C15      9.5354   4.0894   5.4620   C.ar      1 RES1   0.0000
    33 H12     10.0920   4.5588   6.0391   H         1 RES1   0.0000
    34 C16     10.0910   3.3322   4.4301   C.ar      1 RES1   0.0000
    35 H13     11.0139   3.2911   4.3207   H         1 RES1   0.0000
    36 C17      9.2627   2.6572   3.5870   C.ar      1 RES1   0.0000
    37 H14      9.6264   2.1466   2.9005   H         1 RES1   0.0000
    38 C18      7.8630   2.7223   3.7372   C.ar      1 RES1   0.0000
    39 H15      7.3078   2.2529   3.1558   H         1 RES1   0.0000
    40 C19      5.3670   3.4641   6.8029   C.ar      1 RES1   0.0000
    41 C20      4.7036   4.4046   7.5473   C.ar      1 RES1   0.0000
    42 H16      4.2961   5.1293   7.1311   H         1 RES1   0.0000
    43 C21      4.6406   4.2710   8.9310   C.ar      1 RES1   0.0000
    44 H17      4.1884   4.9083   9.4352   H         1 RES1   0.0000
    45 C22      5.2384   3.2105   9.5575   C.ar      1 RES1   0.0000
    46 H18      5.1950   3.1283  10.4843   H         1 RES1   0.0000
    47 C23      5.8882   2.2888   8.8281   C.ar      1 RES1   0.0000
    48 H19      6.2862   1.5659   9.2593   H         1 RES1   0.0000
    49 C24      5.9835   2.3865   7.4400   C.ar      1 RES1   0.0000
    50 H20      6.4477   1.7475   6.9487   H         1 RES1   0.0000
    51 C25      1.0674   6.6849   3.2502   C.ar      1 RES1   0.0000
    52 C26      0.0802   6.5701   2.2977   C.ar      1 RES1   0.0000
    53 H21      0.3085   6.3954   1.4116   H         1 RES1   0.0000
    54 C27     -1.2687   6.7157   2.6538   C.ar      1 RES1   0.0000
    55 H22     -1.9389   6.6147   2.0166   H         1 RES1   0.0000
    56 C28     -1.5929   7.0104   3.9667   C.ar      1 RES1   0.0000
    57 H23     -2.4834   7.1064   4.2156   H         1 RES1   0.0000
    58 C29     -0.6043   7.1612   4.8999   C.ar      1 RES1   0.0000
    59 H24     -0.8312   7.3788   5.7752   H         1 RES1   0.0000
    60 C30      0.7069   6.9950   4.5653   C.ar      1 RES1   0.0000
    61 H25      1.3663   7.0892   5.2153   H         1 RES1   0.0000
    62 C31      2.8417   6.5958   0.9933   C.ar      1 RES1   0.0000
    63 C32      2.6367   5.4531   0.2510   C.ar      1 RES1   0.0000
    64 H26      2.4763   4.6513   0.6972   H         1 RES1   0.0000
    65 C33      2.6609   5.4548  -1.1435   C.ar      1 RES1   0.0000
    66 H27      2.4579   4.6805  -1.6154   H         1 RES1   0.0000
    67 C34      2.9829   6.5975  -1.8107   C.ar      1 RES1   0.0000
    68 H28      3.0598   6.5992  -2.7374   H         1 RES1   0.0000
    69 C35      3.1960   7.7539  -1.0877   C.ar      1 RES1   0.0000
    70 H29      3.4116   8.5369  -1.5425   H         1 RES1   0.0000
    71 C36      3.0953   7.7882   0.3068   C.ar      1 RES1   0.0000
    72 H30      3.1964   8.5883   0.7702   H         1 RES1   0.0000
    73 C37      6.9381   6.4331   2.1904   C.ar      1 RES1   0.0000
    74 C38      6.5590   6.8151   0.8882   C.ar      1 RES1   0.0000
    75 H31      5.7546   7.2657   0.7637   H         1 RES1   0.0000
    76 C39      7.3472   6.5393  -0.1974   C.ar      1 RES1   0.0000
    77 H32      7.1027   6.8477  -1.0405   H         1 RES1   0.0000
    78 C40      8.4828   5.8146  -0.0408   C.ar      1 RES1   0.0000
    79 H33      8.9985   5.5987  -0.7852   H         1 RES1   0.0000
    80 C41      8.8798   5.3983   1.2078   C.ar      1 RES1   0.0000
    81 H34      9.6601   4.9032   1.3108   H         1 RES1   0.0000
    82 C42      8.1130   5.7204   2.3062   C.ar      1 RES1   0.0000
    83 H35      8.3950   5.4497   3.1494   H         1 RES1   0.0000
    84 C43      6.7486   7.1937   5.0051   C.ar      1 RES1   0.0000
    85 C44      6.0653   7.3068   6.2451   C.ar      1 RES1   0.0000
    86 H36      5.1882   7.0087   6.3245   H         1 RES1   0.0000
    87 C45      6.7065   7.8550   7.3242   C.ar      1 RES1   0.0000
    88 H37      6.2560   7.9270   8.1330   H         1 RES1   0.0000
    89 C46      7.9944   8.2953   7.2319   C.ar      1 RES1   0.0000
    90 H38      8.4113   8.6585   7.9806   H         1 RES1   0.0000
    91 C47      8.6664   8.2114   6.0670   C.ar      1 RES1   0.0000
    92 H39      9.5486   8.5043   6.0177   H         1 RES1   0.0000
    93 C48      8.0311   7.6751   4.9128   C.ar      1 RES1   0.0000
    94 H40      8.4816   7.6512   4.0997   H         1 RES1   0.0000
    95 C49      3.4303   1.8777   4.7219   C.3       1 RES1   0.0000
    96 H41      3.2713   1.7663   5.6723   H         1 RES1   0.0000
    97 H42      3.0419   1.1187   4.2606   H         1 RES1   0.0000
    98 C50      4.9355   1.9222   4.4580   C.3       1 RES1   0.0000
    99 H43      5.1200   1.7732   3.5184   H         1 RES1   0.0000
   100 H44      5.3906   1.2404   4.9772   H         1 RES1   0.0000
   101 C51      3.4300   8.1480   3.3768   C.3       1 RES1   0.0000
   102 H45      2.9748   8.8418   2.8748   H         1 RES1   0.0000
   103 H46      3.2227   8.2696   4.3164   H         1 RES1   0.0000
   104 C52      4.9173   8.2662   3.1687   C.3       1 RES1   0.0000
   105 H47      5.2726   8.9652   3.7393   H         1 RES1   0.0000
   106 H48      5.0989   8.5060   2.2462   H         1 RES1   0.0000
   107 C53      4.7931   4.1665   2.2204   C.1       1 RES1   0.0000
   108 C54      5.7582   3.0752   0.1287   C.3       1 RES1   0.0000
   109 H49      6.3064   3.7536  -0.2982   H         1 RES1   0.0000
   110 H50      6.3612   2.3762   0.4248   H         1 RES1   0.0000
   111 C55      4.9897   2.5544  -0.8088   C.1       1 RES1   0.0000
   112 C56      4.3164   2.0370  -1.7334   C.1       1 RES1   0.0000
   113 H51      3.8170   1.6550  -2.4178   H         1 RES1   0.0000
   114 H52      3.7451   5.7050   5.1488   H         1 RES1   0.0000
   115 Br1     -2.6805   9.9710  10.5681   Br        2 RES2  -1.0000
   116 O1       6.3683   0.1610   1.7699   O.3       3 RES3   0.0000
   117 O2      -2.8860   9.6556  13.5907   O.3       4 RES4   0.0000
@<TRIPOS>BOND
     1     1     2    1
     2     2     7    1
     3     3     1    1
     4     4     1    1
     5     5     1    1
     6     6   107    3
     7     7     8   ar
     8     8     9    1
     9    10     8   ar
    10    11    10    1
    11    12    10   ar
    12    13    12    1
    13    14    12   ar
    14    15    14    1
    15    16     7   ar
    16    17    16    1
    17    18     2    1
    18    19    18   ar
    19    20    19    1
    20    21    19   ar
    21    22    21    1
    22    23    21   ar
    23    24    23    1
    24    25    23   ar
    25    26    25    1
    26    27    18   ar
    27    28    27    1
    28    29     3    1
    29    30    29   ar
    30    31    30    1
    31    32    30   ar
    32    33    32    1
    33    34    32   ar
    34    35    34    1
    35    36    34   ar
    36    37    36    1
    37    38    29   ar
    38    39    38    1
    39    40     3    1
    40    41    40   ar
    41    42    41    1
    42    43    41   ar
    43    44    43    1
    44    45    43   ar
    45    46    45    1
    46    47    45   ar
    47    48    47    1
    48    49    40   ar
    49    50    49    1
    50    51     4    1
    51    52    51   ar
    52    53    52    1
    53    54    52   ar
    54    55    54    1
    55    56    54   ar
    56    57    56    1
    57    58    56   ar
    58    59    58    1
    59    60    51   ar
    60    61    60    1
    61    62     4    1
    62    63    62   ar
    63    64    63    1
    64    65    63   ar
    65    66    65    1
    66    67    65   ar
    67    68    67    1
    68    69    67   ar
    69    70    69    1
    70    71    62   ar
    71    72    71    1
    72    73     5    1
    73    74    73   ar
    74    75    74    1
    75    76    74   ar
    76    77    76    1
    77    78    76   ar
    78    79    78    1
    79    80    78   ar
    80    81    80    1
    81    82    73   ar
    82    83    82    1
    83    84     5    1
    84    85    84   ar
    85    86    85    1
    86    87    85   ar
    87    88    87    1
    88    89    87   ar
    89    90    89    1
    90    91    89   ar
    91    92    91    1
    92    93    84   ar
    93    94    93    1
    94    95     2    1
    95    96    95    1
    96    97    95    1
    97    98     3    1
    98    99    98    1
    99   100    98    1
   100   101     4    1
   101   102   101    1
   102   103   101    1
   103   104     5    1
   104   105   104    1
   105   106   104    1
   106   107     1    1
   107   108     6    1
   108   109   108    1
   109   110   108    1
   110   111   108    1
   111   112   111    3
   112   113   112    1
   113   114     1    1
   114    14    16   ar
   115    25    27   ar
   116    36    38   ar
   117    47    49   ar
   118    58    60   ar
   119    69    71   ar
   120    80    82   ar
   121    91    93   ar
   122    95    98    1
   123   101   104    1
@<TRIPOS>SUBSTRUCTURE
     1 RES1        1 GROUP             0 ****  ****    0  
     2 RES2      115 GROUP             0 ****  ****    0  
     3 RES3      116 GROUP             0 ****  ****    0  
     4 RES4      117 GROUP             0 ****  ****    0  
@<TRIPOS>CRYSIN
   13.4216   17.1320   21.4540   90.0000   90.4430   90.0000   231     1
