@<TRIPOS>MOLECULE
QITCEE
   103   109     3     0     0
SMALL
USER_CHARGES
****
Generated from the CSD

@<TRIPOS>ATOM
     1 Fe1      6.3052  16.9589   7.4500   Fe        1 RES1   2.0000
     2 N1       7.3816  17.0050   9.1057   N.ar      1 RES1   0.0000
     3 C1       6.8679  17.7768  10.0966   C.ar      1 RES1   0.0000
     4 C2       7.4894  17.8607  11.3367   C.ar      1 RES1   0.0000
     5 H1       7.1086  18.3900  12.0270   H         1 RES1   0.0000
     6 C3       8.6697  17.1672  11.5640   C.ar      1 RES1   0.0000
     7 H2       9.0976  17.2153  12.4099   H         1 RES1   0.0000
     8 C4       9.2197  16.4041  10.5497   C.ar      1 RES1   0.0000
     9 C5       8.5269  16.3514   9.3390   C.ar      1 RES1   0.0000
    10 H3       8.8905  15.8206   8.6390   H         1 RES1   0.0000
    11 C6      10.4872  15.6148  10.7054   C.3       1 RES1   0.0000
    12 H4      11.0155  15.9869  11.4419   H         1 RES1   0.0000
    13 H5      11.0054  15.6645   9.8749   H         1 RES1   0.0000
    14 H6      10.2678  14.6792  10.8976   H         1 RES1   0.0000
    15 N2       5.2548  18.2996   8.4344   N.ar      1 RES1   0.0000
    16 C7       5.6530  18.5087   9.7220   C.ar      1 RES1   0.0000
    17 C8       4.9510  19.3532  10.5595   C.ar      1 RES1   0.0000
    18 H7       5.2275  19.4674  11.4616   H         1 RES1   0.0000
    19 C9       3.8479  20.0289  10.0854   C.ar      1 RES1   0.0000
    20 H8       3.3632  20.6113  10.6591   H         1 RES1   0.0000
    21 C10      3.4407  19.8538   8.7568   C.ar      1 RES1   0.0000
    22 C11      4.1776  18.9753   7.9852   C.ar      1 RES1   0.0000
    23 H9       3.9104  18.8404   7.0832   H         1 RES1   0.0000
    24 C12      2.2617  20.5857   8.1873   C.3       1 RES1   0.0000
    25 H10      1.9544  20.1302   7.3764   H         1 RES1   0.0000
    26 H11      2.5231  21.5045   7.9670   H         1 RES1   0.0000
    27 H12      1.5379  20.6011   8.8466   H         1 RES1   0.0000
    28 N3       7.3661  18.3424   6.5396   N.ar      1 RES1   0.0000
    29 C13      7.0505  18.5338   5.2286   C.ar      1 RES1   0.0000
    30 C14      7.8086  19.3840   4.4289   C.ar      1 RES1   0.0000
    31 H13      7.5703  19.5186   3.5184   H         1 RES1   0.0000
    32 C15      8.9106  20.0319   4.9606   C.ar      1 RES1   0.0000
    33 H14      9.4452  20.5960   4.4135   H         1 RES1   0.0000
    34 C16      9.2289  19.8505   6.3102   C.ar      1 RES1   0.0000
    35 C17      8.4224  19.0044   7.0467   C.ar      1 RES1   0.0000
    36 H15      8.6257  18.8813   7.9670   H         1 RES1   0.0000
    37 C18     10.3940  20.5366   6.9639   C.3       1 RES1   0.0000
    38 H16     10.8121  19.9280   7.6079   H         1 RES1   0.0000
    39 H17     10.0800  21.3407   7.4297   H         1 RES1   0.0000
    40 H18     11.0484  20.7905   6.2821   H         1 RES1   0.0000
    41 N4       5.2831  17.0533   5.7625   N.ar      1 RES1   0.0000
    42 C19      5.8799  17.7929   4.7909   C.ar      1 RES1   0.0000
    43 C20      5.3801  17.8282   3.4932   C.ar      1 RES1   0.0000
    44 H19      5.8217  18.3337   2.8226   H         1 RES1   0.0000
    45 C21      4.2256  17.1145   3.1888   C.ar      1 RES1   0.0000
    46 H20      3.8826  17.1206   2.3021   H         1 RES1   0.0000
    47 C22      3.5795  16.3959   4.1806   C.ar      1 RES1   0.0000
    48 C23      4.1428  16.3931   5.4572   C.ar      1 RES1   0.0000
    49 H21      3.7048  15.9051   6.1446   H         1 RES1   0.0000
    50 C24      2.3053  15.6407   3.9267   C.3       1 RES1   0.0000
    51 H22      1.7882  15.5852   4.7572   H         1 RES1   0.0000
    52 H23      2.5183  14.7381   3.6124   H         1 RES1   0.0000
    53 H24      1.7790  16.1072   3.2449   H         1 RES1   0.0000
    54 N5       7.3765  15.5040   6.6508   N.ar      1 RES1   0.0000
    55 C25      6.9323  14.2455   6.9008   C.ar      1 RES1   0.0000
    56 C26      7.5882  13.1389   6.3902   C.ar      1 RES1   0.0000
    57 H25      7.2428  12.2685   6.5459   H         1 RES1   0.0000
    58 C27      8.7493  13.3042   5.6536   C.ar      1 RES1   0.0000
    59 H26      9.2082  12.5475   5.3071   H         1 RES1   0.0000
    60 C28      9.2370  14.5879   5.4278   C.ar      1 RES1   0.0000
    61 C29      8.4983  15.6532   5.9356   C.ar      1 RES1   0.0000
    62 H27      8.8084  16.5346   5.7645   H         1 RES1   0.0000
    63 C30     10.5094  14.8643   4.6730   C.3       1 RES1   0.0000
    64 H28     11.1330  14.1188   4.8007   H         1 RES1   0.0000
    65 H29     10.9154  15.6901   5.0083   H         1 RES1   0.0000
    66 H30     10.3090  14.9633   3.7191   H         1 RES1   0.0000
    67 N6       5.2715  15.4188   8.1442   N.ar      1 RES1   0.0000
    68 C31      5.7408  14.2030   7.7538   C.ar      1 RES1   0.0000
    69 C32      5.1315  13.0286   8.1746   C.ar      1 RES1   0.0000
    70 H31      5.4623  12.1866   7.8884   H         1 RES1   0.0000
    71 C33      4.0376  13.1015   9.0178   C.ar      1 RES1   0.0000
    72 H32      3.6193  12.3043   9.3194   H         1 RES1   0.0000
    73 C34      3.5482  14.3340   9.4232   C.ar      1 RES1   0.0000
    74 C35      4.1950  15.4600   8.9518   C.ar      1 RES1   0.0000
    75 H33      3.8630  16.3120   9.2114   H         1 RES1   0.0000
    76 C36      2.3697  14.4612  10.3505   C.3       1 RES1   0.0000
    77 H34      1.6762  13.8219  10.0868   H         1 RES1   0.0000
    78 H35      2.0113  15.3728  10.2986   H         1 RES1   0.0000
    79 H36      2.6561  14.2749  11.2680   H         1 RES1   0.0000
    80 C37      1.8085  13.9601   0.8123   C.2       2 RES2   0.0000
    81 C38      2.4311  12.7287   1.0634   C.2       2 RES2   0.0000
    82 C39      1.9638  11.7349   1.9121   C.2       2 RES2  -1.0000
    83 C40      2.5375  15.0895   0.3900   C.1       2 RES2   0.0000
    84 N7       3.1423  16.0335   0.0842   N.1       2 RES2   0.0000
    85 C41      0.4208  14.1572   1.0592   C.1       2 RES2   0.0000
    86 N8      -0.7108  14.3632   1.2219   N.1       2 RES2   0.0000
    87 O1       3.6246  12.4479   0.4909   O.3       2 RES2   0.0000
    88 C42      3.8046  12.7235  -0.9385   C.3       2 RES2   0.0000
    89 H37      4.3759  13.5225  -1.0676   H         2 RES2   0.0000
    90 H38      2.9295  12.8878  -1.3720   H         2 RES2   0.0000
    91 C43      4.4609  11.5110  -1.5306   C.3       2 RES2   0.0000
    92 H39      3.8600  10.7433  -1.4478   H         2 RES2   0.0000
    93 H40      5.2968  11.3268  -1.0536   H         2 RES2   0.0000
    94 H41      4.6550  11.6748  -2.4775   H         2 RES2   0.0000
    95 C44      2.5571  10.4497   1.8939   C.1       2 RES2   0.0000
    96 N9       3.0231   9.3923   1.9374   N.1       2 RES2   0.0000
    97 C45      0.9446  11.9404   2.8815   C.1       2 RES2   0.0000
    98 N10      0.1544  12.0469   3.7064   N.1       2 RES2   0.0000
    99 B1       7.0673   8.6292   6.5304   B         3 RES3  -1.0000
   100 F1       6.4779   7.8509   7.5268   F         3 RES3   0.0000
   101 F2       6.6344   9.9504   6.6928   F         3 RES3   0.0000
   102 F3       6.6559   8.1701   5.2841   F         3 RES3   0.0000
   103 F4       8.4350   8.5736   6.6258   F         3 RES3   0.0000
@<TRIPOS>BOND
     1     1     2    1
     2     2     3   ar
     3     3     4   ar
     4     4     5    1
     5     6     4   ar
     6     7     6    1
     7     8     6   ar
     8     9     2   ar
     9    10     9    1
    10    11     8    1
    11    12    11    1
    12    13    11    1
    13    14    11    1
    14    15     1    1
    15    16     3    1
    16    17    16   ar
    17    18    17    1
    18    19    17   ar
    19    20    19    1
    20    21    19   ar
    21    22    15   ar
    22    23    22    1
    23    24    21    1
    24    25    24    1
    25    26    24    1
    26    27    24    1
    27    28     1    1
    28    29    28   ar
    29    30    29   ar
    30    31    30    1
    31    32    30   ar
    32    33    32    1
    33    34    32   ar
    34    35    28   ar
    35    36    35    1
    36    37    34    1
    37    38    37    1
    38    39    37    1
    39    40    37    1
    40    41     1    1
    41    42    29    1
    42    43    42   ar
    43    44    43    1
    44    45    43   ar
    45    46    45    1
    46    47    45   ar
    47    48    41   ar
    48    49    48    1
    49    50    47    1
    50    51    50    1
    51    52    50    1
    52    53    50    1
    53    54     1    1
    54    55    54   ar
    55    56    55   ar
    56    57    56    1
    57    58    56   ar
    58    59    58    1
    59    60    58   ar
    60    61    54   ar
    61    62    61    1
    62    63    60    1
    63    64    63    1
    64    65    63    1
    65    66    63    1
    66    67     1    1
    67    68    55    1
    68    69    68   ar
    69    70    69    1
    70    71    69   ar
    71    72    71    1
    72    73    71   ar
    73    74    67   ar
    74    75    74    1
    75    76    73    1
    76    77    76    1
    77    78    76    1
    78    79    76    1
    79     8     9   ar
    80    15    16   ar
    81    21    22   ar
    82    34    35   ar
    83    41    42   ar
    84    47    48   ar
    85    60    61   ar
    86    67    68   ar
    87    73    74   ar
    88    80    81    2
    89    81    82    1
    90    82    95    1
    91    83    80    1
    92    84    83    3
    93    85    80    1
    94    86    85    3
    95    87    81    1
    96    88    87    1
    97    89    88    1
    98    90    88    1
    99    91    88    1
   100    92    91    1
   101    93    91    1
   102    94    91    1
   103    95    96    3
   104    97    82    1
   105    98    97    3
   106    99   100    1
   107   101    99    1
   108   102    99    1
   109   103    99    1
@<TRIPOS>SUBSTRUCTURE
     1 RES1        1 GROUP             0 ****  ****    0  
     2 RES2       80 GROUP             0 ****  ****    0  
     3 RES3       99 GROUP             0 ****  ****    0  
@<TRIPOS>CRYSIN
   11.5865   25.5914   14.4997   90.0000  104.6410   90.0000   231     1
