@<TRIPOS>MOLECULE
QITZEB
   103   108     3     0     0
SMALL
USER_CHARGES
****
Generated from the CSD

@<TRIPOS>ATOM
     1 As1     -1.9454  -3.6310  13.8868   As        1 RES1  -1.0000
     2 F1      -1.0647  -4.2535  15.2128   F         1 RES1   0.0000
     3 F2      -1.0154  -2.2523  13.9782   F         1 RES1   0.0000
     4 F3      -3.0277  -3.0841  14.9615   F         1 RES1   0.0000
     5 F4      -2.8018  -3.0295  12.5928   F         1 RES1   0.0000
     6 F5      -2.7165  -5.1154  13.8624   F         1 RES1   0.0000
     7 F6      -0.8331  -4.3057  12.8485   F         1 RES1   0.0000
     8 As2      0.2380  -3.8012  20.6882   As        2 RES2  -1.0000
     9 F7       0.1951  -3.7774  22.3253   F         2 RES2   0.0000
    10 F8       0.9820  -2.4114  20.5051   F         2 RES2   0.0000
    11 F9      -1.1316  -2.8801  20.8810   F         2 RES2   0.0000
    12 F10      0.2826  -3.9110  19.1460   F         2 RES2   0.0000
    13 F11     -0.5535  -5.2573  20.6493   F         2 RES2   0.0000
    14 F12      1.5516  -4.6325  20.9815   F         2 RES2   0.0000
    15 Fe1      0.8483   1.3253  17.0188   Fe        3 RES3   2.0000
    16 N1       0.6853   1.3553  14.8063   N.2       3 RES3   0.0000
    17 N2      -0.8368   2.6479  16.5894   N.2       3 RES3   0.0000
    18 N3       2.4477   2.8521  16.9827   N.2       3 RES3   0.0000
    19 N4       1.2792   1.7253  19.1110   N.2       3 RES3   0.0000
    20 N5       2.4121  -0.1389  16.7030   N.2       3 RES3   0.0000
    21 N6      -0.1849  -0.5810  17.0264   N.2       3 RES3   0.0000
    22 N7      -1.4391   1.1275  18.8597   N.3       3 RES3   0.0000
    23 N8      -0.4893   2.0269  13.0670   N.pl3     3 RES3   0.0000
    24 N9       3.8422   4.0807  18.1823   N.pl3     3 RES3   0.0000
    25 N10      2.8888  -2.1797  16.0322   N.pl3     3 RES3   0.0000
    26 C1       1.2239   0.8012  13.6570   C.2       3 RES3   0.0000
    27 H1       1.9612   0.2353  13.6185   H         3 RES3   0.0000
    28 C2       0.4979   1.2242  12.6016   C.2       3 RES3   0.0000
    29 H2       0.6476   1.0030  11.7108   H         3 RES3   0.0000
    30 C3      -0.3515   2.0767  14.4043   C.2       3 RES3   0.0000
    31 C4      -1.1566   2.7574  15.3919   C.2       3 RES3   0.0000
    32 H3      -1.8939   3.2647  15.1397   H         3 RES3   0.0000
    33 C5      -1.6395   3.2559  17.6164   C.3       3 RES3   0.0000
    34 H4      -2.2731   3.8755  17.2229   H         3 RES3   0.0000
    35 H5      -1.0752   3.7451  18.2356   H         3 RES3   0.0000
    36 C6      -2.3767   2.1469  18.3462   C.3       3 RES3   0.0000
    37 H6      -2.8772   2.5254  19.0865   H         3 RES3   0.0000
    38 H7      -3.0085   1.7274  17.7413   H         3 RES3   0.0000
    39 C7       3.2702   3.5527  16.1480   C.2       3 RES3   0.0000
    40 H8       3.2410   3.5243  15.2184   H         3 RES3   0.0000
    41 C8       4.1082   4.2728  16.8582   C.2       3 RES3   0.0000
    42 H9       4.7744   4.8228  16.5144   H         3 RES3   0.0000
    43 C9       2.7983   3.1953  18.2217   C.2       3 RES3   0.0000
    44 C10      2.1700   2.5962  19.3601   C.2       3 RES3   0.0000
    45 H10      2.4007   2.8306  20.2304   H         3 RES3   0.0000
    46 C11      0.5906   1.0665  20.2232   C.3       3 RES3   0.0000
    47 H11      0.9856   1.3358  21.0665   H         3 RES3   0.0000
    48 H12      0.6697   0.1031  20.1401   H         3 RES3   0.0000
    49 C12     -0.8813   1.4806  20.1730   C.3       3 RES3   0.0000
    50 H13     -1.3756   1.0269  20.8730   H         3 RES3   0.0000
    51 H14     -0.9595   2.4372  20.3164   H         3 RES3   0.0000
    52 C13      4.4763   4.6903  19.3120   C.3       3 RES3   0.0000
    53 H15      5.3498   5.0142  19.0428   H         3 RES3   0.0000
    54 H16      4.6097   4.0166  19.9966   H         3 RES3   0.0000
    55 C14      3.7062   5.8216  19.8977   C.3       3 RES3   0.0000
    56 H17      2.8684   5.4670  20.2333   H         3 RES3   0.0000
    57 H18      4.2032   6.1527  20.6625   H         3 RES3   0.0000
    58 C15      3.4183   6.8850  19.0957   C.3       3 RES3   0.0000
    59 H19      2.8303   6.5678  18.3931   H         3 RES3   0.0000
    60 H20      4.2446   7.1617  18.6717   H         3 RES3   0.0000
    61 C16      2.7393   8.2017  19.7360   C.3       3 RES3   0.0000
    62 H21      2.6418   8.8729  19.0566   H         3 RES3   0.0000
    63 H22      3.2963   8.5382  20.4412   H         3 RES3   0.0000
    64 H23      1.8756   7.9765  20.0895   H         3 RES3   0.0000
    65 C17      3.7216  -0.2097  16.3927   C.2       3 RES3   0.0000
    66 H24      4.3240   0.4953  16.4648   H         3 RES3   0.0000
    67 C18      4.0301  -1.4472  15.9623   C.2       3 RES3   0.0000
    68 H25      4.8635  -1.7437  15.6737   H         3 RES3   0.0000
    69 C19      1.9280  -1.3361  16.4911   C.2       3 RES3   0.0000
    70 C20      0.5060  -1.6048  16.7227   C.2       3 RES3   0.0000
    71 H26      0.1385  -2.4560  16.6528   H         3 RES3   0.0000
    72 C21     -1.5914  -0.7575  17.3542   C.3       3 RES3   0.0000
    73 H27     -1.8245  -1.6976  17.3006   H         3 RES3   0.0000
    74 H28     -2.1391  -0.2730  16.7174   H         3 RES3   0.0000
    75 C22     -1.8657  -0.2421  18.7636   C.3       3 RES3   0.0000
    76 H29     -2.8142  -0.3048  18.9574   H         3 RES3   0.0000
    77 H30     -1.3865  -0.7820  19.4104   H         3 RES3   0.0000
    78 C23      2.6662  -3.5757  15.4925   C.3       3 RES3   0.0000
    79 H31      1.7769  -3.8820  15.7291   H         3 RES3   0.0000
    80 H32      3.3114  -4.1859  15.8827   H         3 RES3   0.0000
    81 C24      2.8314  -3.5632  13.8646   C.3       3 RES3   0.0000
    82 H33      2.1407  -3.0125  13.4650   H         3 RES3   0.0000
    83 H34      3.6956  -3.1957  13.6217   H         3 RES3   0.0000
    84 C25      2.7286  -4.8655  13.4079   C.3       3 RES3   0.0000
    85 H35      3.3465  -5.4360  13.8858   H         3 RES3   0.0000
    86 H36      1.8259  -5.1971  13.5625   H         3 RES3   0.0000
    87 C26      2.9969  -4.8853  12.1034   C.3       3 RES3   0.0000
    88 H37      2.9339  -5.7854  11.7763   H         3 RES3   0.0000
    89 H38      3.8885  -4.5552  11.9585   H         3 RES3   0.0000
    90 H39      2.3711  -4.3290  11.6360   H         3 RES3   0.0000
    91 C27     -1.5913   2.6347  12.2672   C.3       3 RES3   0.0000
    92 H40     -1.2193   3.1024  11.5034   H         3 RES3   0.0000
    93 H41     -2.0713   3.2791  12.8114   H         3 RES3   0.0000
    94 C28     -2.5559   1.5475  11.7865   C.3       3 RES3   0.0000
    95 H42     -2.0419   0.7776  11.4962   H         3 RES3   0.0000
    96 H43     -3.0477   1.8805  11.0196   H         3 RES3   0.0000
    97 C29     -3.5527   1.1024  12.8616   C.3       3 RES3   0.0000
    98 H44     -3.0593   0.7717  13.6287   H         3 RES3   0.0000
    99 H45     -4.0647   1.8741  13.1523   H         3 RES3   0.0000
   100 C30     -4.5254   0.0137  12.3940   C.3       3 RES3   0.0000
   101 H46     -4.1163  -0.5009  11.6937   H         3 RES3   0.0000
   102 H47     -5.3285   0.4222  12.0628   H         3 RES3   0.0000
   103 H48     -4.7397  -0.5629  13.1308   H         3 RES3   0.0000
@<TRIPOS>BOND
     1     1     2    1
     2     3     1    1
     3     4     1    1
     4     5     1    1
     5     6     1    1
     6     7     1    1
     7     8     9    1
     8    10     8    1
     9    11     8    1
    10    12     8    1
    11    13     8    1
    12    14     8    1
    13    15    16    1
    14    16    26    1
    15    17    15    1
    16    18    15    1
    17    19    15    1
    18    20    15    1
    19    21    15    1
    20    22    36    1
    21    23    28    1
    22    24    41    1
    23    25    67    1
    24    26    27    1
    25    28    26    2
    26    29    28    1
    27    30    16    2
    28    31    17    2
    29    32    31    1
    30    33    17    1
    31    34    33    1
    32    35    33    1
    33    36    33    1
    34    37    36    1
    35    38    36    1
    36    39    18    1
    37    40    39    1
    38    41    39    2
    39    42    41    1
    40    43    18    2
    41    44    19    2
    42    45    44    1
    43    46    19    1
    44    47    46    1
    45    48    46    1
    46    49    22    1
    47    50    49    1
    48    51    49    1
    49    52    24    1
    50    53    52    1
    51    54    52    1
    52    55    52    1
    53    56    55    1
    54    57    55    1
    55    58    55    1
    56    59    58    1
    57    60    58    1
    58    61    58    1
    59    62    61    1
    60    63    61    1
    61    64    61    1
    62    65    20    1
    63    66    65    1
    64    67    65    2
    65    68    67    1
    66    69    20    2
    67    70    21    2
    68    71    70    1
    69    72    21    1
    70    73    72    1
    71    74    72    1
    72    75    22    1
    73    76    75    1
    74    77    75    1
    75    78    25    1
    76    79    78    1
    77    80    78    1
    78    81    78    1
    79    82    81    1
    80    83    81    1
    81    84    81    1
    82    85    84    1
    83    86    84    1
    84    87    84    1
    85    88    87    1
    86    89    87    1
    87    90    87    1
    88    91    23    1
    89    92    91    1
    90    93    91    1
    91    94    91    1
    92    95    94    1
    93    96    94    1
    94    97    94    1
    95    98    97    1
    96    99    97    1
    97   100    97    1
    98   101   100    1
    99   102   100    1
   100   103   100    1
   101    23    30    1
   102    24    43    1
   103    25    69    1
   104    30    31    1
   105    43    44    1
   106    46    49    1
   107    69    70    1
   108    72    75    1
@<TRIPOS>SUBSTRUCTURE
     1 RES1        1 GROUP             0 ****  ****    0  
     2 RES2        8 GROUP             0 ****  ****    0  
     3 RES3       15 GROUP             0 ****  ****    0  
@<TRIPOS>CRYSIN
    9.6140   10.2571   21.9999   91.5220   96.1930   98.4560     2     1
