@<TRIPOS>MOLECULE
QIVCED
   101   112     2     0     0
SMALL
NO_CHARGES
****
Generated from the CSD

@<TRIPOS>ATOM
     1 Fe1      6.8878  -1.9143   8.5228   Fe        1 RES1   0.0000
     2 N1       6.1956  -0.0664   8.1861   N.2       1 RES1   0.0000
     3 N2       8.5136  -1.1610   9.4006   N.2       1 RES1   0.0000
     4 N3       5.9643  -2.0042  10.1677   N.1       1 RES1   0.0000
     5 N4       2.3635  -1.2680  12.6649   N.1       1 RES1   0.0000
     6 C1       4.9999   0.2856   7.6006   C.2       1 RES1   0.0000
     7 C2       4.8770   1.7220   7.5708   C.2       1 RES1   0.0000
     8 C3       5.9838   2.2303   8.1248   C.2       1 RES1   0.0000
     9 C4       6.8181   1.1172   8.5100   C.2       1 RES1   0.0000
    10 C5       8.0421   1.2474   9.1518   C.2       1 RES1   0.0000
    11 C6       8.8141   0.1735   9.5728   C.2       1 RES1   0.0000
    12 C7      10.1003   0.3083  10.1941   C.2       1 RES1   0.0000
    13 C8      10.5817  -0.9372  10.3970   C.2       1 RES1   0.0000
    14 C9       9.5956  -1.8520   9.8992   C.2       1 RES1   0.0000
    15 C10      4.0394  -0.5889   7.1225   C.2       1 RES1   0.0000
    16 C11      8.5494   2.6382   9.4006   C.ar      1 RES1   0.0000
    17 C12      8.5323   3.1900  10.6612   C.ar      1 RES1   0.0000
    18 C13      8.9741   4.5000  10.8666   C.ar      1 RES1   0.0000
    19 C14      9.4464   5.2312   9.8498   C.ar      1 RES1   0.0000
    20 C15      9.4756   4.7064   8.5799   C.ar      1 RES1   0.0000
    21 C16      9.0313   3.4048   8.3489   C.ar      1 RES1   0.0000
    22 C17      2.7704  -0.0135   6.5711   C.ar      1 RES1   0.0000
    23 C18      2.7320   0.5501   5.3012   C.ar      1 RES1   0.0000
    24 C19      1.5405   1.0853   4.8060   C.ar      1 RES1   0.0000
    25 C20      0.3978   1.0659   5.5765   C.ar      1 RES1   0.0000
    26 C21      0.4289   0.4977   6.8259   C.ar      1 RES1   0.0000
    27 C22      1.6082  -0.0368   7.3296   C.ar      1 RES1   0.0000
    28 C23      4.6178  -2.4295  12.3010   C.2       1 RES1   0.0000
    29 C24      5.3521  -2.1773  11.1257   C.1       1 RES1   0.0000
    30 C25      3.3658  -1.7739  12.4859   C.1       1 RES1   0.0000
    31 H1       4.1437   2.2175   7.2231   H         1 RES1   0.0000
    32 H2       6.1848   3.1506   8.2415   H         1 RES1   0.0000
    33 H3      10.5325   1.1236  10.4217   H         1 RES1   0.0000
    34 H4      11.4139  -1.1629  10.7941   H         1 RES1   0.0000
    35 H5       8.2172   2.6782  11.3967   H         1 RES1   0.0000
    36 H6       8.9396   4.8766  11.7384   H         1 RES1   0.0000
    37 H7       9.7616   6.1138  10.0058   H         1 RES1   0.0000
    38 H8       9.8003   5.2324   7.8572   H         1 RES1   0.0000
    39 H9       9.0588   3.0427   7.4711   H         1 RES1   0.0000
    40 H10      3.5189   0.5701   4.7677   H         1 RES1   0.0000
    41 H11      1.5184   1.4634   3.9350   H         1 RES1   0.0000
    42 H12     -0.4070   1.4440   5.2432   H         1 RES1   0.0000
    43 H13     -0.3640   0.4706   7.3501   H         1 RES1   0.0000
    44 H14      1.6181  -0.4211   8.1989   H         1 RES1   0.0000
    45 C10A     9.7362  -3.2397   9.9231   C.2       1 RES1   0.0000
    46 C1A      8.7758  -4.1143   9.4450   C.2       1 RES1   0.0000
    47 N1A      7.5801  -3.7622   8.8594   N.2       1 RES1   0.0000
    48 C4A      6.9576  -4.9458   8.5356   C.2       1 RES1   0.0000
    49 C3A      7.7918  -6.0590   8.9208   C.2       1 RES1   0.0000
    50 C2A      8.8987  -5.5506   9.4748   C.2       1 RES1   0.0000
    51 H1A      9.6320  -6.0462   9.8225   H         1 RES1   0.0000
    52 H2A      7.5909  -6.9793   8.8040   H         1 RES1   0.0000
    53 C5A      5.7336  -5.0761   7.8938   C.2       1 RES1   0.0000
    54 C6A      4.9616  -4.0021   7.4728   C.2       1 RES1   0.0000
    55 N2A      5.2621  -2.6676   7.6449   N.2       1 RES1   0.0000
    56 C9A      4.1801  -1.9767   7.1464   C.2       1 RES1   0.0000
    57 C8A      3.1939  -2.8915   6.6486   C.2       1 RES1   0.0000
    58 C7A      3.6754  -4.1370   6.8515   C.2       1 RES1   0.0000
    59 H3A      3.2432  -4.9523   6.6239   H         1 RES1   0.0000
    60 H4A      2.3617  -2.6658   6.2515   H         1 RES1   0.0000
    61 C11A     5.2263  -6.4669   7.6449   C.ar      1 RES1   0.0000
    62 C12A     5.2433  -7.0187   6.3844   C.ar      1 RES1   0.0000
    63 C13A     4.8015  -8.3287   6.1790   C.ar      1 RES1   0.0000
    64 C14A     4.3293  -9.0598   7.1958   C.ar      1 RES1   0.0000
    65 C15A     4.3001  -8.5351   8.4657   C.ar      1 RES1   0.0000
    66 C16A     4.7444  -7.2335   8.6967   C.ar      1 RES1   0.0000
    67 H9A      4.7169  -6.8714   9.5745   H         1 RES1   0.0000
    68 H8A      3.9754  -9.0611   9.1884   H         1 RES1   0.0000
    69 H7A      4.0141  -9.9425   7.0398   H         1 RES1   0.0000
    70 H6A      4.8361  -8.7052   5.3071   H         1 RES1   0.0000
    71 H5A      5.5584  -6.5069   5.6489   H         1 RES1   0.0000
    72 C17A    11.0053  -3.8152  10.4745   C.ar      1 RES1   0.0000
    73 C18A    11.0436  -4.3787  11.7444   C.ar      1 RES1   0.0000
    74 C19A    12.2352  -4.9140  12.2396   C.ar      1 RES1   0.0000
    75 C20A    13.3778  -4.8945  11.4691   C.ar      1 RES1   0.0000
    76 C21A    13.3468  -4.3264  10.2197   C.ar      1 RES1   0.0000
    77 C22A    12.1674  -3.7918   9.7160   C.ar      1 RES1   0.0000
    78 H14A    12.1576  -3.4075   8.8467   H         1 RES1   0.0000
    79 H13A    14.1396  -4.2992   9.6955   H         1 RES1   0.0000
    80 H12A    14.1826  -5.2726  11.8024   H         1 RES1   0.0000
    81 H11A    12.2573  -5.2921  13.1106   H         1 RES1   0.0000
    82 H10A    10.2568  -4.3988  12.2779   H         1 RES1   0.0000
    83 C23A     5.1087  -3.3135  13.2674   C.2       1 RES1   0.0000
    84 C24A     4.3744  -3.5657  14.4427   C.1       1 RES1   0.0000
    85 N3A      3.7622  -3.7388  15.4007   N.1       1 RES1   0.0000
    86 C25A     6.3607  -3.9690  13.0825   C.1       1 RES1   0.0000
    87 N4A      7.3630  -4.4750  12.9035   N.1       1 RES1   0.0000
    88 N3A      7.8114  -1.8245   6.8779   N.3       1 RES1   0.0000
    89 Fe1      2.8387  -3.8287  17.0456   Fe        1 RES1   0.0000
    90 Cl1      6.4702   8.2002   5.5620   Cl        2 RES2   0.0000
    91 C26      6.1866   6.6063   4.9901   C.ar      2 RES2   0.0000
    92 C27      5.4354   6.4382   3.8216   C.ar      2 RES2   0.0000
    93 C28      5.1836   5.1257   3.3878   C.ar      2 RES2   0.0000
    94 C29      5.6165   4.0674   4.0782   C.ar      2 RES2   0.0000
    95 C30      6.4108   4.2563   5.1836   C.ar      2 RES2   0.0000
    96 C31      6.6829   5.5152   5.6745   C.ar      2 RES2   0.0000
    97 H15      5.1072   7.1862   3.3375   H         2 RES2   0.0000
    98 H16      4.6945   4.9870   2.5850   H         2 RES2   0.0000
    99 H17      5.3760   3.1896   3.8071   H         2 RES2   0.0000
   100 H18      6.7817   3.4988   5.6216   H         2 RES2   0.0000
   101 H19      7.1996   5.6294   6.4637   H         2 RES2   0.0000
@<TRIPOS>BOND
     1     1     2    1
     2     2     6    1
     3     3     1    1
     4     4     1    1
     5     5    30    3
     6     6     7    1
     7     7     8    2
     8     8     9    1
     9     9     2    1
    10    10     9    2
    11    11     3    2
    12    12    11    1
    13    13    12    2
    14    14     3    1
    15    15     6    2
    16    16    10    1
    17    17    16   ar
    18    18    17   ar
    19    19    18   ar
    20    20    19   ar
    21    21    16   ar
    22    22    15    1
    23    23    22   ar
    24    24    23   ar
    25    25    24   ar
    26    26    25   ar
    27    27    22   ar
    28    28    29    1
    29    29     4    3
    30    30    28    1
    31    31     7    1
    32    32     8    1
    33    33    12    1
    34    34    13    1
    35    35    17    1
    36    36    18    1
    37    37    19    1
    38    38    20    1
    39    39    21    1
    40    40    23    1
    41    41    24    1
    42    42    25    1
    43    43    26    1
    44    44    27    1
    45    45    14    2
    46    46    45    1
    47    47     1    1
    48    48    47    1
    49    49    48    2
    50    50    46    2
    51    51    50    1
    52    52    49    1
    53    53    48    1
    54    54    53    2
    55    55     1    1
    56    56    15    1
    57    57    56    1
    58    58    54    1
    59    59    58    1
    60    60    57    1
    61    61    53    1
    62    62    61   ar
    63    63    62   ar
    64    64    63   ar
    65    65    64   ar
    66    66    61   ar
    67    67    66    1
    68    68    65    1
    69    69    64    1
    70    70    63    1
    71    71    62    1
    72    72    45    1
    73    73    72   ar
    74    74    73   ar
    75    75    74   ar
    76    76    75   ar
    77    77    72   ar
    78    78    77    1
    79    79    76    1
    80    80    75    1
    81    81    74    1
    82    82    73    1
    83    83    28    2
    84    84    83    1
    85    85    84    3
    86    86    83    1
    87    87    86    3
    88    88     1   un
    89    89    85   un
    90    10    11    1
    91    13    14    1
    92    20    21   ar
    93    26    27   ar
    94    46    47    1
    95    49    50    1
    96    54    55    1
    97    55    56    2
    98    57    58    2
    99    65    66   ar
   100    76    77   ar
   101    90    91    1
   102    91    92   ar
   103    92    93   ar
   104    93    94   ar
   105    94    95   ar
   106    95    96   ar
   107    96    91   ar
   108    97    92    1
   109    98    93    1
   110    99    94    1
   111   100    95    1
   112   101    96    1
@<TRIPOS>SUBSTRUCTURE
     1 RES1        1 GROUP             0 ****  ****    0  
     2 RES2       90 GROUP             0 ****  ****    0  
@<TRIPOS>CRYSIN
   10.9370   13.3200    9.6280   97.1700  114.8700   99.7400     2     1
