@<TRIPOS>MOLECULE
QIXCIM
   113   121     4     0     0
SMALL
USER_CHARGES
****
Generated from the CSD

@<TRIPOS>ATOM
     1 Fe1     12.9080   0.0000  14.3553   Fe        1 RES1   2.0000
     2 N1      13.6373   1.5427  15.3654   N.2       1 RES1   0.0000
     3 N2      11.4378   2.9914  11.8473   N.pl3     1 RES1   0.0000
     4 H1      11.0267   3.3614  11.1614   H         1 RES1   0.0000
     5 N3      12.1832   1.4588  13.2592   N.2       1 RES1   0.0000
     6 C1      16.7591   1.4678  20.1950   C.ar      1 RES1   0.0000
     7 C2      15.9459   1.4834  18.9412   C.ar      1 RES1   0.0000
     8 C3      14.6157   1.8266  18.9543   C.ar      1 RES1   0.0000
     9 H2      14.2065   2.0435  19.7805   H         1 RES1   0.0000
    10 C4      18.1441   1.7137  20.1456   C.ar      1 RES1   0.0000
    11 H3      18.5746   1.8914  19.3183   H         1 RES1   0.0000
    12 C5      16.5106   1.1335  17.6969   C.ar      1 RES1   0.0000
    13 H4      17.4271   0.8876  17.6481   H         1 RES1   0.0000
    14 C6      13.4088   2.7209  14.8596   C.2       1 RES1   0.0000
    15 H5      13.7386   3.5224  15.2477   H         1 RES1   0.0000
    16 C7      14.4266   1.5013  16.5724   C.ar      1 RES1   0.0000
    17 C8      13.8580   1.8646  17.8067   C.ar      1 RES1   0.0000
    18 H6      12.9487   2.1362  17.8477   H         1 RES1   0.0000
    19 C9      18.2648   1.4577  22.5538   C.ar      1 RES1   0.0000
    20 H7      18.7727   1.4543  23.3574   H         1 RES1   0.0000
    21 C10     15.7368   1.1458  16.5503   C.ar      1 RES1   0.0000
    22 H8      16.1337   0.8988  15.7257   H         1 RES1   0.0000
    23 C11     12.6124   2.7097  13.6599   C.2       1 RES1   0.0000
    24 C12     12.1490   3.6420  12.7859   C.2       1 RES1   0.0000
    25 H9      12.2987   4.5788  12.8316   H         1 RES1   0.0000
    26 C13     11.4649   1.6611  12.1372   C.2       1 RES1   0.0000
    27 H10     11.0421   0.9804  11.6288   H         1 RES1   0.0000
    28 C14     18.8850   1.6891  21.3510   C.ar      1 RES1   0.0000
    29 H11     19.8222   1.8367  21.3300   H         1 RES1   0.0000
    30 C15     16.1634   1.2364  21.4172   C.ar      1 RES1   0.0000
    31 H12     15.2263   1.0799  21.4508   H         1 RES1   0.0000
    32 C16     16.8972   1.2263  22.6011   C.ar      1 RES1   0.0000
    33 H13     16.4648   1.0631  23.4310   H         1 RES1   0.0000
    34 N1A     11.2074  -0.1397  15.3654   N.2       1 RES1   0.0000
    35 N2A     11.0525  -2.7690  11.8473   N.pl3     1 RES1   0.0000
    36 H1A     10.9376  -3.3100  11.1614   H         1 RES1   0.0000
    37 N3A     12.0070  -1.3571  13.2592   N.2       1 RES1   0.0000
    38 C1A      9.7113   2.6013  20.1950   C.ar      1 RES1   0.0000
    39 C2A     10.1044   1.8892  18.9412   C.ar      1 RES1   0.0000
    40 C3A     10.4723   0.5656  18.9543   C.ar      1 RES1   0.0000
    41 H2A     10.4890   0.1028  19.7805   H         1 RES1   0.0000
    42 C4A      8.8058   3.6778  20.1456   C.ar      1 RES1   0.0000
    43 H3A      8.4367   3.9617  19.3183   H         1 RES1   0.0000
    44 C5A     10.1250   2.5532  17.6969   C.ar      1 RES1   0.0000
    45 H4A      9.8798   3.4699  17.6481   H         1 RES1   0.0000
    46 C6A     10.3012  -0.9267  14.8596   C.2       1 RES1   0.0000
    47 H5A      9.4422  -1.0419  15.2477   H         1 RES1   0.0000
    48 C7A     10.8485   0.5645  16.5724   C.ar      1 RES1   0.0000
    49 C8A     10.8182  -0.1096  17.8067   C.ar      1 RES1   0.0000
    50 H6A     11.0376  -1.0329  17.8477   H         1 RES1   0.0000
    51 C9A      8.9672   3.9103  22.5538   C.ar      1 RES1   0.0000
    52 H7A      8.7161   4.3519  23.3574   H         1 RES1   0.0000
    53 C10A    10.5013   1.8769  16.5503   C.ar      1 RES1   0.0000
    54 H8A     10.5168   2.3442  15.7257   H         1 RES1   0.0000
    55 C11A    10.7091  -1.6108  13.6599   C.2       1 RES1   0.0000
    56 C12A    10.1334  -2.4783  12.7859   C.2       1 RES1   0.0000
    57 H9A      9.2473  -2.8170  12.8316   H         1 RES1   0.0000
    58 C13A    12.1910  -2.0803  12.1372   C.2       1 RES1   0.0000
    59 H10A    12.9919  -2.1061  11.6288   H         1 RES1   0.0000
    60 C14A     8.4567   4.3317  21.3510   C.ar      1 RES1   0.0000
    61 H11A     7.8603   5.0695  21.3300   H         1 RES1   0.0000
    62 C15A    10.2096   2.2011  21.4172   C.ar      1 RES1   0.0000
    63 H12A    10.8137   1.4678  21.4508   H         1 RES1   0.0000
    64 C16A     9.8514   2.8416  22.6011   C.ar      1 RES1   0.0000
    65 H13A    10.2089   2.5487  23.4310   H         1 RES1   0.0000
    66 N1B     13.8793  -1.4029  15.3654   N.2       1 RES1   0.0000
    67 N2B     16.2337  -0.2225  11.8473   N.pl3     1 RES1   0.0000
    68 H1B     16.7597  -0.0514  11.1614   H         1 RES1   0.0000
    69 N3B     14.5338  -0.1017  13.2592   N.2       1 RES1   0.0000
    70 C1B     12.2536  -4.0690  20.1950   C.ar      1 RES1   0.0000
    71 C2B     12.6737  -3.3726  18.9412   C.ar      1 RES1   0.0000
    72 C3B     13.6360  -2.3922  18.9543   C.ar      1 RES1   0.0000
    73 H2B     14.0284  -2.1463  19.7805   H         1 RES1   0.0000
    74 C4B     11.7740  -5.3915  20.1456   C.ar      1 RES1   0.0000
    75 H3B     11.7127  -5.8531  19.3183   H         1 RES1   0.0000
    76 C5B     12.0883  -3.6867  17.6969   C.ar      1 RES1   0.0000
    77 H4B     11.4171  -4.3574  17.6481   H         1 RES1   0.0000
    78 C6B     15.0139  -1.7942  14.8596   C.2       1 RES1   0.0000
    79 H5B     15.5432  -2.4805  15.2477   H         1 RES1   0.0000
    80 C7B     13.4488  -2.0658  16.5724   C.ar      1 RES1   0.0000
    81 C8B     14.0478  -1.7550  17.8067   C.ar      1 RES1   0.0000
    82 H6B     14.7377  -1.1033  17.8477   H         1 RES1   0.0000
    83 C9B     11.4920  -5.3680  22.5538   C.ar      1 RES1   0.0000
    84 H7B     11.2351  -5.8062  23.3574   H         1 RES1   0.0000
    85 C10B    12.4859  -3.0227  16.5503   C.ar      1 RES1   0.0000
    86 H8B     12.0735  -3.2429  15.7257   H         1 RES1   0.0000
    87 C11B    15.4025  -1.0989  13.6599   C.2       1 RES1   0.0000
    88 C12B    16.4416  -1.1637  12.7859   C.2       1 RES1   0.0000
    89 H9B     17.1780  -1.7618  12.8316   H         1 RES1   0.0000
    90 C13B    15.0682   0.4192  12.1372   C.2       1 RES1   0.0000
    91 H10B    14.6899   1.1257  11.6288   H         1 RES1   0.0000
    92 C14B    11.3823  -6.0208  21.3510   C.ar      1 RES1   0.0000
    93 H11B    11.0415  -6.9062  21.3300   H         1 RES1   0.0000
    94 C15B    12.3510  -3.4374  21.4172   C.ar      1 RES1   0.0000
    95 H12B    12.6840  -2.5476  21.4508   H         1 RES1   0.0000
    96 C16B    11.9754  -4.0679  22.6011   C.ar      1 RES1   0.0000
    97 H13B    12.0503  -3.6118  23.4310   H         1 RES1   0.0000
    98 Cl1     12.9080   0.0000  23.4893   Cl        2 RES2   0.0000
    99 O1      12.9080   0.0000  22.0496   O.3       2 RES2  -1.0000
   100 O2      13.6405   1.0944  23.9662   O.2       2 RES2   0.0000
   101 O2A     11.5940   0.0872  23.9662   O.2       2 RES2   0.0000
   102 O2B     13.4895  -1.1816  23.9662   O.2       2 RES2   0.0000
   103 Cl2     19.3626   3.7258  26.3450   Cl        3 RES3   0.0000
   104 O3      19.3626   3.7258  25.0592   O.2       3 RES3   0.0000
   105 O4      18.0815   3.5101  26.9186   O.3       3 RES3  -1.0000
   106 O4A     20.1894   2.7254  26.9186   O.2       3 RES3   0.0000
   107 O4B     19.8151   4.9432  26.9186   O.2       3 RES3   0.0000
   108 O5      15.7194   3.4967  25.3171   O.3       4 RES4   0.0000
   109 H14     16.5113   3.6521  25.5477   H         4 RES4   0.0000
   110 C17     14.9216   3.2195  26.4773   C.3       4 RES4   0.0000
   111 H15     14.3324   2.4649  26.2988   H         4 RES4   0.0000
   112 H16     14.3853   4.0143  26.6979   H         4 RES4   0.0000
   113 H17     15.5115   3.0115  27.2337   H         4 RES4   0.0000
@<TRIPOS>BOND
     1     1     2    1
     2     2    14    2
     3     3     4    1
     4     5     1    1
     5     6     7    1
     6     7     8   ar
     7     8     9    1
     8    10     6   ar
     9    11    10    1
    10    12     7   ar
    11    13    12    1
    12    14    15    1
    13    16     2    1
    14    17     8   ar
    15    18    17    1
    16    19    20    1
    17    21    12   ar
    18    22    21    1
    19    23     5    1
    20    24     3    1
    21    25    24    1
    22    26     3    1
    23    27    26    1
    24    28    10   ar
    25    29    28    1
    26    30     6   ar
    27    31    30    1
    28    32    19   ar
    29    33    32    1
    30    34     1    1
    31    35    36    1
    32    37     1    1
    33    38    39    1
    34    39    40   ar
    35    40    41    1
    36    42    38   ar
    37    43    42    1
    38    44    39   ar
    39    45    44    1
    40    46    34    2
    41    47    46    1
    42    48    34    1
    43    49    40   ar
    44    50    49    1
    45    51    52    1
    46    53    44   ar
    47    54    53    1
    48    55    37    1
    49    56    35    1
    50    57    56    1
    51    58    35    1
    52    59    58    1
    53    60    42   ar
    54    61    60    1
    55    62    38   ar
    56    63    62    1
    57    64    51   ar
    58    65    64    1
    59    66     1    1
    60    67    68    1
    61    69     1    1
    62    70    71    1
    63    71    72   ar
    64    72    73    1
    65    74    70   ar
    66    75    74    1
    67    76    71   ar
    68    77    76    1
    69    78    66    2
    70    79    78    1
    71    80    66    1
    72    81    72   ar
    73    82    81    1
    74    83    84    1
    75    85    76   ar
    76    86    85    1
    77    87    69    1
    78    88    67    1
    79    89    88    1
    80    90    67    1
    81    91    90    1
    82    92    74   ar
    83    93    92    1
    84    94    70   ar
    85    95    94    1
    86    96    83   ar
    87    97    96    1
    88     5    26    2
    89    14    23    1
    90    16    17   ar
    91    16    21   ar
    92    19    28   ar
    93    23    24    2
    94    30    32   ar
    95    37    58    2
    96    46    55    1
    97    48    49   ar
    98    48    53   ar
    99    51    60   ar
   100    55    56    2
   101    62    64   ar
   102    69    90    2
   103    78    87    1
   104    80    81   ar
   105    80    85   ar
   106    83    92   ar
   107    87    88    2
   108    94    96   ar
   109    98    99    1
   110   100    98    2
   111   101    98    2
   112   102    98    2
   113   103   104    2
   114   105   103    1
   115   106   103    2
   116   107   103    2
   117   108   109    1
   118   110   108    1
   119   111   110    1
   120   112   110    1
   121   113   110    1
@<TRIPOS>SUBSTRUCTURE
     1 RES1        1 GROUP             0 ****  ****    0  
     2 RES2       98 GROUP             0 ****  ****    0  
     3 RES3      103 GROUP             0 ****  ****    0  
     4 RES4      108 GROUP             0 ****  ****    0  
@<TRIPOS>CRYSIN
   12.9080   12.9080   52.5240   90.0000   90.0000  120.0000   233     1
