@<TRIPOS>MOLECULE
QOKKEH
   128   142     2     0     0
SMALL
NO_CHARGES
****
Generated from the CSD

@<TRIPOS>ATOM
     1 Fe1      1.3901   4.3872   5.9730   Fe        1 RES1   0.0000
     2 P1       3.1272   4.6912   7.4638   P.3       1 RES1   0.0000
     3 Cl1      6.1935   1.5039   4.8668   Cl        1 RES1   0.0000
     4 Cl2      1.7010   0.7501   1.9388   Cl        1 RES1   0.0000
     5 Cl3      0.8359   1.0605  10.4037   Cl        1 RES1   0.0000
     6 Cl4     -2.5693   0.6039   6.2138   Cl        1 RES1   0.0000
     7 N1       2.8192   4.4872   4.5777   N.2       1 RES1   0.0000
     8 N2       1.5502   2.3957   5.9479   N.2       1 RES1   0.0000
     9 C1       3.4535   3.4404   3.9326   C.2       1 RES1   0.0000
    10 C2       3.2523   2.0902   4.2002   C.2       1 RES1   0.0000
    11 C3       2.3753   1.6142   5.1666   C.2       1 RES1   0.0000
    12 C4       2.1847   0.2189   5.4832   C.2       1 RES1   0.0000
    13 H1       2.6387  -0.5003   5.1057   H         1 RES1   0.0000
    14 C5       1.2324   0.1546   6.4221   C.2       1 RES1   0.0000
    15 H2       0.8976  -0.6211   6.8128   H         1 RES1   0.0000
    16 C6       0.8221   1.4995   6.7172   C.2       1 RES1   0.0000
    17 C7      -0.1731   1.8501   7.6239   C.2       1 RES1   0.0000
    18 C8       3.3488   5.6259   4.0282   C.2       1 RES1   0.0000
    19 C9       4.3210   5.2887   3.0295   C.2       1 RES1   0.0000
    20 H3       4.8222   5.8889   2.5254   H         1 RES1   0.0000
    21 C10      4.3772   3.9434   2.9530   C.2       1 RES1   0.0000
    22 H4       4.9091   3.4401   2.3796   H         1 RES1   0.0000
    23 C11      3.9946   1.0979   3.3496   C.ar      1 RES1   0.0000
    24 C12      5.3472   0.7827   3.5312   C.ar      1 RES1   0.0000
    25 C13      6.0228  -0.0825   2.7296   C.ar      1 RES1   0.0000
    26 H5       6.9177  -0.2733   2.8993   H         1 RES1   0.0000
    27 C14      5.3806  -0.6758   1.6665   C.ar      1 RES1   0.0000
    28 H6       5.8485  -1.2461   1.1002   H         1 RES1   0.0000
    29 C15      4.0357  -0.4253   1.4407   C.ar      1 RES1   0.0000
    30 H7       3.5817  -0.8386   0.7418   H         1 RES1   0.0000
    31 C16      3.3871   0.4570   2.2805   C.ar      1 RES1   0.0000
    32 C17     -0.8701   0.7188   8.3347   C.ar      1 RES1   0.0000
    33 C18     -0.4856   0.2662   9.5854   C.ar      1 RES1   0.0000
    34 C19     -1.0997  -0.7943  10.2293   C.ar      1 RES1   0.0000
    35 H8      -0.7995  -1.0861  11.0595   H         1 RES1   0.0000
    36 C20     -2.1660  -1.4042   9.6105   C.ar      1 RES1   0.0000
    37 H9      -2.5910  -2.1189  10.0298   H         1 RES1   0.0000
    38 C21     -2.6095  -0.9810   8.3968   C.ar      1 RES1   0.0000
    39 H10     -3.3376  -1.3955   7.9942   H         1 RES1   0.0000
    40 C22     -1.9679   0.0738   7.7648   C.ar      1 RES1   0.0000
    41 C23      2.9065   5.0606   9.2222   C.ar      1 RES1   0.0000
    42 C24      1.9328   4.3932   9.9796   C.ar      1 RES1   0.0000
    43 H11      1.3436   3.8106   9.5567   H         1 RES1   0.0000
    44 C25      1.8355   4.5874  11.3415   C.ar      1 RES1   0.0000
    45 H12      1.1864   4.1337  11.8288   H         1 RES1   0.0000
    46 C26      2.7015   5.4525  11.9841   C.ar      1 RES1   0.0000
    47 H13      2.6421   5.5730  12.9040   H         1 RES1   0.0000
    48 C27      3.6374   6.1261  11.2686   C.ar      1 RES1   0.0000
    49 H14      4.2181   6.7058  11.7070   H         1 RES1   0.0000
    50 C28      3.7447   5.9628   9.8912   C.ar      1 RES1   0.0000
    51 H15      4.3737   6.4523   9.4134   H         1 RES1   0.0000
    52 C29      4.5072   3.5091   7.5892   C.ar      1 RES1   0.0000
    53 C30      5.8366   3.9447   7.4280   C.ar      1 RES1   0.0000
    54 H16      6.0258   4.8124   7.1520   H         1 RES1   0.0000
    55 C31      6.8721   3.0251   7.6968   C.ar      1 RES1   0.0000
    56 H17      7.7563   3.2956   7.5964   H         1 RES1   0.0000
    57 C32      6.6076   1.7485   8.0993   C.ar      1 RES1   0.0000
    58 H18      7.3088   1.1644   8.2821   H         1 RES1   0.0000
    59 C33      5.3280   1.3296   8.2319   C.ar      1 RES1   0.0000
    60 H19      5.1521   0.4547   8.4935   H         1 RES1   0.0000
    61 C34      4.2760   2.2015   7.9799   C.ar      1 RES1   0.0000
    62 H20      3.4007   1.9022   8.0742   H         1 RES1   0.0000
    63 P1A     -0.3470   4.0832   4.4821   P.3       1 RES1   0.0000
    64 Cl1A    -3.4133   7.2706   7.0792   Cl        1 RES1   0.0000
    65 Cl2A     1.0792   8.0243  10.0071   Cl        1 RES1   0.0000
    66 Cl3A     1.9443   7.7140   1.5422   Cl        1 RES1   0.0000
    67 Cl4A     5.3495   8.1706   5.7321   Cl        1 RES1   0.0000
    68 N1A     -0.0390   4.2873   7.3682   N.2       1 RES1   0.0000
    69 N2A      1.2300   6.3788   5.9980   N.2       1 RES1   0.0000
    70 C1A     -0.6733   5.3340   8.0133   C.2       1 RES1   0.0000
    71 C2A     -0.4721   6.6842   7.7457   C.2       1 RES1   0.0000
    72 C3A      0.4050   7.1603   6.7793   C.2       1 RES1   0.0000
    73 C4A      0.5955   8.5555   6.4627   C.2       1 RES1   0.0000
    74 H1A      0.1415   9.2747   6.8402   H         1 RES1   0.0000
    75 C5A      1.5478   8.6198   5.5238   C.2       1 RES1   0.0000
    76 H2A      1.8826   9.3955   5.1332   H         1 RES1   0.0000
    77 C6A      1.9581   7.2750   5.2287   C.2       1 RES1   0.0000
    78 C7A      2.9533   6.9243   4.3220   C.2       1 RES1   0.0000
    79 C8A     -0.5686   3.1486   7.9178   C.2       1 RES1   0.0000
    80 C9A     -1.5407   3.4857   8.9164   C.2       1 RES1   0.0000
    81 H3A     -2.0420   2.8855   9.4206   H         1 RES1   0.0000
    82 C10A    -1.5970   4.8310   8.9929   C.2       1 RES1   0.0000
    83 H4A     -2.1288   5.3344   9.5663   H         1 RES1   0.0000
    84 C11A    -1.2144   7.6765   8.5963   C.ar      1 RES1   0.0000
    85 C12A    -2.5670   7.9917   8.4147   C.ar      1 RES1   0.0000
    86 C13A    -3.2426   8.8570   9.2163   C.ar      1 RES1   0.0000
    87 H5A     -4.1375   9.0477   9.0466   H         1 RES1   0.0000
    88 C14A    -2.6004   9.4502  10.2795   C.ar      1 RES1   0.0000
    89 H6A     -3.0683  10.0205  10.8457   H         1 RES1   0.0000
    90 C15A    -1.2555   9.1997  10.5052   C.ar      1 RES1   0.0000
    91 H7A     -0.8014   9.6131  11.2041   H         1 RES1   0.0000
    92 C16A    -0.6068   8.3175   9.6654   C.ar      1 RES1   0.0000
    93 C17A     3.6503   8.0556   3.6113   C.ar      1 RES1   0.0000
    94 C18A     3.2658   8.5082   2.3605   C.ar      1 RES1   0.0000
    95 C19A     3.8799   9.5687   1.7166   C.ar      1 RES1   0.0000
    96 H8A      3.5797   9.8605   0.8864   H         1 RES1   0.0000
    97 C20A     4.9462  10.1787   2.3354   C.ar      1 RES1   0.0000
    98 H9A      5.3713  10.8933   1.9161   H         1 RES1   0.0000
    99 C21A     5.3897   9.7555   3.5491   C.ar      1 RES1   0.0000
   100 H10A     6.1178  10.1700   3.9517   H         1 RES1   0.0000
   101 C22A     4.7481   8.7006   4.1811   C.ar      1 RES1   0.0000
   102 C23A    -0.1262   3.7139   2.7237   C.ar      1 RES1   0.0000
   103 C24A     0.8474   4.3812   1.9663   C.ar      1 RES1   0.0000
   104 H11A     1.4366   4.9639   2.3892   H         1 RES1   0.0000
   105 C25A     0.9447   4.1871   0.6045   C.ar      1 RES1   0.0000
   106 H12A     1.5939   4.6407   0.1171   H         1 RES1   0.0000
   107 C26A     0.0787   3.3219  -0.0382   C.ar      1 RES1   0.0000
   108 H13A     0.1382   3.2015  -0.9581   H         1 RES1   0.0000
   109 C27A    -0.8571   2.6483   0.6773   C.ar      1 RES1   0.0000
   110 H14A    -1.4379   2.0687   0.2389   H         1 RES1   0.0000
   111 C28A    -0.9645   2.8117   2.0547   C.ar      1 RES1   0.0000
   112 H15A    -1.5935   2.3221   2.5325   H         1 RES1   0.0000
   113 C29A    -1.7270   5.2653   4.3567   C.ar      1 RES1   0.0000
   114 C30A    -3.0563   4.8297   4.5179   C.ar      1 RES1   0.0000
   115 H16A    -3.2456   3.9620   4.7939   H         1 RES1   0.0000
   116 C31A    -4.0918   5.7493   4.2492   C.ar      1 RES1   0.0000
   117 H17A    -4.9761   5.4788   4.3495   H         1 RES1   0.0000
   118 C32A    -3.8273   7.0259   3.8466   C.ar      1 RES1   0.0000
   119 H18A    -4.5286   7.6101   3.6638   H         1 RES1   0.0000
   120 C33A    -2.5478   7.4448   3.7140   C.ar      1 RES1   0.0000
   121 H19A    -2.3719   8.3197   3.4524   H         1 RES1   0.0000
   122 C34A    -1.4958   6.5729   3.9660   C.ar      1 RES1   0.0000
   123 H20A    -0.6204   6.8722   3.8717   H         1 RES1   0.0000
   124 Cl5      7.6641   2.6613   1.6700   Cl        2 RES2   0.0000
   125 Cl6      8.1995   4.2478  -0.6355   Cl        2 RES2   0.0000
   126 C35      8.0490   4.2180   1.0094   C.3       2 RES2   0.0000
   127 H21      7.3546   4.8450   1.2675   H         2 RES2   0.0000
   128 H22      8.8818   4.5247   1.4013   H         2 RES2   0.0000
@<TRIPOS>BOND
     1     1     2    1
     2     2    41    1
     3     3    24    1
     4     4    31    1
     5     5    33    1
     6     6    40    1
     7     7     1    1
     8     8     1    1
     9     9     7    1
    10    10     9    2
    11    11     8    2
    12    12    11    1
    13    13    12    1
    14    14    12    2
    15    15    14    1
    16    16     8    1
    17    17    16    2
    18    18     7    1
    19    19    18    1
    20    20    19    1
    21    21     9    1
    22    22    21    1
    23    23    10    1
    24    24    23   ar
    25    25    24   ar
    26    26    25    1
    27    27    25   ar
    28    28    27    1
    29    29    27   ar
    30    30    29    1
    31    31    23   ar
    32    32    17    1
    33    33    32   ar
    34    34    33   ar
    35    35    34    1
    36    36    34   ar
    37    37    36    1
    38    38    36   ar
    39    39    38    1
    40    40    32   ar
    41    41    42   ar
    42    42    43    1
    43    44    42   ar
    44    45    44    1
    45    46    44   ar
    46    47    46    1
    47    48    46   ar
    48    49    48    1
    49    50    41   ar
    50    51    50    1
    51    52     2    1
    52    53    52   ar
    53    54    53    1
    54    55    53   ar
    55    56    55    1
    56    57    55   ar
    57    58    57    1
    58    59    57   ar
    59    60    59    1
    60    61    52   ar
    61    62    61    1
    62    63     1    1
    63    64    85    1
    64    65    92    1
    65    66    94    1
    66    67   101    1
    67    68     1    1
    68    69     1    1
    69    70    68    1
    70    71    70    1
    71    72    69    1
    72    73    72    1
    73    74    73    1
    74    75    73    2
    75    76    75    1
    76    77    69    2
    77    78    18    2
    78    79    17    1
    79    80    79    2
    80    81    80    1
    81    82    70    2
    82    83    82    1
    83    84    71    1
    84    85    84   ar
    85    86    85   ar
    86    87    86    1
    87    88    86   ar
    88    89    88    1
    89    90    88   ar
    90    91    90    1
    91    92    84   ar
    92    93    78    1
    93    94    93   ar
    94    95    94   ar
    95    96    95    1
    96    97    95   ar
    97    98    97    1
    98    99    97   ar
    99   100    99    1
   100   101    93   ar
   101   102    63    1
   102   103   102   ar
   103   104   103    1
   104   105   103   ar
   105   106   105    1
   106   107   105   ar
   107   108   107    1
   108   109   107   ar
   109   110   109    1
   110   111   102   ar
   111   112   111    1
   112   113    63    1
   113   114   113   ar
   114   115   114    1
   115   116   114   ar
   116   117   116    1
   117   118   116   ar
   118   119   118    1
   119   120   118   ar
   120   121   120    1
   121   122   113   ar
   122   123   122    1
   123    10    11    1
   124    14    16    1
   125    19    21    2
   126    29    31   ar
   127    38    40   ar
   128    48    50   ar
   129    59    61   ar
   130    68    79    1
   131    71    72    2
   132    75    77    1
   133    77    78    1
   134    80    82    1
   135    90    92   ar
   136    99   101   ar
   137   109   111   ar
   138   120   122   ar
   139   124   126    1
   140   125   126    1
   141   126   127    1
   142   128   126    1
@<TRIPOS>SUBSTRUCTURE
     1 RES1        1 GROUP             0 ****  ****    0  
     2 RES2      124 GROUP             0 ****  ****    0  
@<TRIPOS>CRYSIN
   12.2790   12.5170   12.7270   91.5700  107.0000  117.4900     2     1
