@<TRIPOS>MOLECULE
QOMZOL
   106   108    11     0     0
SMALL
USER_CHARGES
****
Generated from the CSD

@<TRIPOS>ATOM
     1 Fe1      6.4212   9.8124  20.6246   Fe        1 RES1   2.0000
     2 C1       3.7042   7.0812  22.2201   C.2       1 RES1   0.0000
     3 H1       3.2855   6.5632  22.8981   H         1 RES1   0.0000
     4 C2       3.5430   6.9158  20.8645   C.2       1 RES1   0.0000
     5 H2       2.9943   6.2819  20.4175   H         1 RES1   0.0000
     6 C3       4.3631   7.8882  20.2922   C.2       1 RES1   0.0000
     7 C4       4.7917   8.1930  18.9337   C.ar      1 RES1   0.0000
     8 C5       4.3249   7.6661  17.7439   C.ar      1 RES1   0.0000
     9 H3       3.6003   7.0523  17.7398   H         1 RES1   0.0000
    10 C6       4.9361   8.0478  16.5505   C.ar      1 RES1   0.0000
    11 H4       4.6269   7.6972  15.7238   H         1 RES1   0.0000
    12 C7       5.9926   8.9419  16.5737   C.ar      1 RES1   0.0000
    13 H5       6.4203   9.2019  15.7661   H         1 RES1   0.0000
    14 C8       6.4211   9.4557  17.7944   C.ar      1 RES1   0.0000
    15 C9       7.5027  10.3875  18.0620   C.2       1 RES1   0.0000
    16 C10      8.4827  11.0217  17.2727   C.2       1 RES1   0.0000
    17 H6       8.5944  10.9783  16.3303   H         1 RES1   0.0000
    18 C11      9.2407  11.7213  18.1868   C.2       1 RES1   0.0000
    19 H7       9.9936  12.2633  17.9852   H         1 RES1   0.0000
    20 C12      8.8564   6.6153  21.7138   C.2       1 RES1   0.0000
    21 H8       9.2312   5.7440  21.6533   H         1 RES1   0.0000
    22 C13      9.0581   7.5021  22.7288   C.2       1 RES1   0.0000
    23 H9       9.5943   7.3821  23.5037   H         1 RES1   0.0000
    24 C14      8.3072   8.6284  22.3816   C.2       1 RES1   0.0000
    25 C15      7.9849   9.9114  23.0006   C.ar      1 RES1   0.0000
    26 C16      8.4660  10.4107  24.2054   C.ar      1 RES1   0.0000
    27 H10      9.1043   9.9298  24.7190   H         1 RES1   0.0000
    28 C17      7.9790  11.6472  24.6321   C.ar      1 RES1   0.0000
    29 H11      8.2753  12.0113  25.4577   H         1 RES1   0.0000
    30 C18      7.0622  12.3468  23.8597   C.ar      1 RES1   0.0000
    31 H12      6.7442  13.1973  24.1387   H         1 RES1   0.0000
    32 C19      6.6217  11.7837  22.6761   C.ar      1 RES1   0.0000
    33 C20      5.6536  12.3120  21.7186   C.2       1 RES1   0.0000
    34 C21      4.9397  13.5123  21.5847   C.2       1 RES1   0.0000
    35 H13      4.9777  14.2750  22.1490   H         1 RES1   0.0000
    36 C22      4.1745  13.3410  20.4604   C.2       1 RES1   0.0000
    37 H14      3.5641  13.9711  20.0976   H         1 RES1   0.0000
    38 N1       4.5517   8.0972  22.4183   N.pl3     1 RES1   0.0000
    39 H15      4.7630   8.4905  23.1719   H         1 RES1   0.0000
    40 N2       4.9719   8.6124  21.2514   N.2       1 RES1   0.0000
    41 N3       5.8064   9.0798  18.9542   N.ar      1 RES1   0.0000
    42 N4       7.6769  10.6806  19.3671   N.2       1 RES1   0.0000
    43 N5       8.7298  11.5036  19.4195   N.pl3     1 RES1   0.0000
    44 H16      9.0485  11.8722  20.1724   H         1 RES1   0.0000
    45 N6       8.0327   7.1843  20.8128   N.pl3     1 RES1   0.0000
    46 H17      7.6399   6.7344  20.1509   H         1 RES1   0.0000
    47 N7       7.6960   8.4223  21.2035   N.2       1 RES1   0.0000
    48 N8       7.0777  10.5703  22.2682   N.ar      1 RES1   0.0000
    49 N9       5.3515  11.4687  20.7060   N.2       1 RES1   0.0000
    50 N10      4.4479  12.1059  19.9556   N.pl3     1 RES1   0.0000
    51 H18      4.1065  11.7996  19.1979   H         1 RES1   0.0000
    52 C23      0.1039  14.8054  20.0487   C.ar      2 RES2   0.0000
    53 H19     -0.4665  15.0563  20.7658   H         2 RES2   0.0000
    54 C24      0.6912  15.7778  19.2897   C.ar      2 RES2   0.0000
    55 H20      0.5367  16.6925  19.4921   H         2 RES2   0.0000
    56 C25      1.5304  15.4295  18.2030   C.ar      2 RES2   0.0000
    57 H21      1.9486  16.1124  17.6917   H         2 RES2   0.0000
    58 C26      1.7369  14.1276  17.8893   C.ar      2 RES2   0.0000
    59 H22      2.2773  13.9128  17.1376   H         2 RES2   0.0000
    60 C27      1.2367   9.3280  18.9683   C.ar      2 RES2   0.0000
    61 H23      1.8408   9.0927  18.2739   H         2 RES2   0.0000
    62 C28      0.6888   8.3584  19.7378   C.ar      2 RES2   0.0000
    63 H24      0.9231   7.4512  19.5844   H         2 RES2   0.0000
    64 C29     -0.2268   8.6792  20.7685   C.ar      2 RES2   0.0000
    65 H25     -0.6234   7.9838  21.2811   H         2 RES2   0.0000
    66 C30     -0.5432   9.9738  21.0274   C.ar      2 RES2   0.0000
    67 H26     -1.1591  10.1733  21.7224   H         2 RES2   0.0000
    68 C31     -0.2137  12.4020  20.5712   C.ar      2 RES2   0.0000
    69 C32      1.4289  11.7213  18.3793   C.ar      2 RES2   0.0000
    70 C33      0.3331  13.4165  19.7836   C.ar      2 RES2   0.0000
    71 C34      1.1663  13.0681  18.6583   C.ar      2 RES2   0.0000
    72 C35      0.0334  11.0420  20.2762   C.ar      2 RES2   0.0000
    73 C36      0.9120  10.7082  19.1929   C.ar      2 RES2   0.0000
    74 C37     -1.0672  12.7750  21.7722   C.2       2 RES2   0.0000
    75 C38      2.3457  11.3816  17.2381   C.2       2 RES2   0.0000
    76 O1      -2.3135  12.7024  21.6619   O.co2     2 RES2  -1.0000
    77 O2      -0.4524  13.1393  22.7943   O.co2     2 RES2   0.0000
    78 O3       1.8754  11.3337  16.0860   O.co2     2 RES2   0.0000
    79 O4       3.5705  11.1857  17.5412   O.co2     2 RES2  -1.0000
    80 O5       6.4832   5.3236  19.4691   O.3       3 RES3   0.0000
    81 H27      6.9834   4.8040  19.0598   H         3 RES3   0.0000
    82 H28      5.8493   5.4572  19.0121   H         3 RES3   0.0000
    83 O6      -0.7007  12.2220  15.0317   O.3       4 RES4   0.0000
    84 H29     -0.0119  11.9012  15.3908   H         4 RES4   0.0000
    85 H30     -0.4059  12.5398  14.3425   H         4 RES4   0.0000
    86 O7       3.8247   7.7793  13.3063   O.3       5 RES5   0.0000
    87 H31      3.4260   7.1407  13.4848   H         5 RES5   0.0000
    88 H32      3.3902   8.4470  13.3418   H         5 RES5   0.0000
    89 O8       6.4737   4.4325  22.1839   O.3       6 RES6   0.0000
    90 H33      5.6583   4.0348  22.2284   H         6 RES6   0.0000
    91 H34      6.4462   4.5863  21.3207   H         6 RES6   0.0000
    92 O9      -0.1767  13.3366  12.4515   O.3       7 RES7   0.0000
    93 H35     -0.7282  13.3816  11.7932   H         7 RES7   0.0000
    94 H36      0.3342  12.7721  12.0315   H         7 RES7   0.0000
    95 O10      0.5825  15.8388  23.0990   O.3       8 RES8   0.0000
    96 H37      0.3701  16.0812  23.8700   H         8 RES8   0.0000
    97 H38      0.5611  15.0173  23.1338   H         8 RES8   0.0000
    98 O11      2.9975  10.3207  13.8143   O.3       9 RES9   0.0000
    99 H39      3.7603  10.6240  13.6516   H         9 RES9   0.0000
   100 H40      2.8411  10.5224  14.6022   H         9 RES9   0.0000
   101 O12      1.5698  11.3308  11.6022   O.3      10 RES10   0.0000
   102 H41      2.2681  11.3207  11.1238   H        10 RES10   0.0000
   103 H42      1.8980  11.0159  12.3436   H        10 RES10   0.0000
   104 O13      2.3863   2.9173  21.6774   O.3      11 RES11   0.0000
   105 H43      1.9100   2.2932  22.0378   H        11 RES11   0.0000
   106 H44      1.8145   3.5413  21.8234   H        11 RES11   0.0000
@<TRIPOS>BOND
     1     1    40    1
     2     2     3    1
     3     4     2    2
     4     5     4    1
     5     6     4    1
     6     7     6    1
     7     8     7   ar
     8     9     8    1
     9    10     8   ar
    10    11    10    1
    11    12    10   ar
    12    13    12    1
    13    14    12   ar
    14    15    14    1
    15    16    15    1
    16    17    16    1
    17    18    16    2
    18    19    18    1
    19    20    21    1
    20    22    20    2
    21    23    22    1
    22    24    22    1
    23    25    24    1
    24    26    25   ar
    25    27    26    1
    26    28    26   ar
    27    29    28    1
    28    30    28   ar
    29    31    30    1
    30    32    30   ar
    31    33    32    1
    32    34    33    1
    33    35    34    1
    34    36    34    2
    35    37    36    1
    36    38     2    1
    37    39    38    1
    38    40     6    2
    39    41     1    1
    40    42     1    1
    41    43    18    1
    42    44    43    1
    43    45    20    1
    44    46    45    1
    45    47     1    1
    46    48     1    1
    47    49     1    1
    48    50    36    1
    49    51    50    1
    50     7    41   ar
    51    14    41   ar
    52    15    42    2
    53    24    47    2
    54    25    48   ar
    55    32    48   ar
    56    33    49    2
    57    38    40    1
    58    42    43    1
    59    45    47    1
    60    49    50    1
    61    52    53    1
    62    54    52   ar
    63    55    54    1
    64    56    54   ar
    65    57    56    1
    66    58    56   ar
    67    59    58    1
    68    60    61    1
    69    62    60   ar
    70    63    62    1
    71    64    62   ar
    72    65    64    1
    73    66    64   ar
    74    67    66    1
    75    68    70   ar
    76    69    71   ar
    77    70    52   ar
    78    71    58   ar
    79    72    66   ar
    80    73    60   ar
    81    74    68    1
    82    75    69    1
    83    76    74    1
    84    77    74    2
    85    78    75    2
    86    79    75    1
    87    68    72   ar
    88    69    73   ar
    89    70    71   ar
    90    72    73   ar
    91    80    81    1
    92    82    80    1
    93    83    84    1
    94    85    83    1
    95    86    87    1
    96    88    86    1
    97    89    90    1
    98    91    89    1
    99    92    93    1
   100    94    92    1
   101    95    96    1
   102    97    95    1
   103    98    99    1
   104   100    98    1
   105   101   102    1
   106   103   101    1
   107   104   105    1
   108   106   104    1
@<TRIPOS>SUBSTRUCTURE
     1 RES1        1 GROUP             0 ****  ****    0  
     2 RES2       52 GROUP             0 ****  ****    0  
     3 RES3       80 GROUP             0 ****  ****    0  
     4 RES4       83 GROUP             0 ****  ****    0  
     5 RES5       86 GROUP             0 ****  ****    0  
     6 RES6       89 GROUP             0 ****  ****    0  
     7 RES7       92 GROUP             0 ****  ****    0  
     8 RES8       95 GROUP             0 ****  ****    0  
     9 RES9       98 GROUP             0 ****  ****    0  
    10 RES10     101 GROUP             0 ****  ****    0  
    11 RES11     104 GROUP             0 ****  ****    0  
@<TRIPOS>CRYSIN
   11.9374   14.5137   23.8247   90.0000   90.0000   90.0000    19     1
