@<TRIPOS>MOLECULE
QOMZIF
   121   126     9     0     0
SMALL
USER_CHARGES
****
Generated from the CSD

@<TRIPOS>ATOM
     1 C1      23.5151   4.2605   2.0604   C.2       1 RES1   0.0000
     2 H1      23.3411   4.5933   1.1876   H         1 RES1   0.0000
     3 C2      24.7266   4.2682   2.6965   C.2       1 RES1   0.0000
     4 H2      25.5543   4.5914   2.3613   H         1 RES1   0.0000
     5 C3      24.4806   3.6961   3.9475   C.2       1 RES1   0.0000
     6 C4      25.3626   3.3869   5.0720   C.ar      1 RES1   0.0000
     7 C5      26.7381   3.6053   5.0983   C.ar      1 RES1   0.0000
     8 H3      27.1802   4.0132   4.3626   H         1 RES1   0.0000
     9 C6      27.4434   3.2146   6.2203   C.ar      1 RES1   0.0000
    10 H4      28.3835   3.3467   6.2520   H         1 RES1   0.0000
    11 C7      26.7982   2.6317   7.2980   C.ar      1 RES1   0.0000
    12 H5      27.2778   2.3689   8.0753   H         1 RES1   0.0000
    13 C8      25.4151   2.4440   7.2020   C.ar      1 RES1   0.0000
    14 C9      24.5897   1.7811   8.2195   C.2       1 RES1   0.0000
    15 C10     24.9008   1.2366   9.4654   C.2       1 RES1   0.0000
    16 H6      25.7498   1.1914   9.8888   H         1 RES1   0.0000
    17 C11     23.6791   0.7737   9.9419   C.2       1 RES1   0.0000
    18 H7      23.5270   0.3553  10.7814   H         1 RES1   0.0000
    19 C12     23.9327  -1.5273   4.1845   C.2       1 RES1   0.0000
    20 H8      24.5387  -2.2015   3.9012   H         1 RES1   0.0000
    21 C13     22.5701  -1.5812   4.1038   C.2       1 RES1   0.0000
    22 H9      22.0387  -2.2918   3.7646   H         1 RES1   0.0000
    23 C14     22.1254  -0.3599   4.6312   C.2       1 RES1   0.0000
    24 C15     20.7997   0.1861   4.8690   C.ar      1 RES1   0.0000
    25 C16     19.5998  -0.4261   4.5030   C.ar      1 RES1   0.0000
    26 H10     19.5942  -1.2372   4.0084   H         1 RES1   0.0000
    27 C17     18.4263   0.1815   4.8826   C.ar      1 RES1   0.0000
    28 H11     17.5978  -0.2205   4.6494   H         1 RES1   0.0000
    29 C18     18.4269   1.3658   5.5977   C.ar      1 RES1   0.0000
    30 H12     17.6151   1.7731   5.8764   H         1 RES1   0.0000
    31 C19     19.6673   1.9442   5.8941   C.ar      1 RES1   0.0000
    32 C20     19.8577   3.2039   6.6143   C.2       1 RES1   0.0000
    33 C21     18.9771   4.0637   7.2589   C.2       1 RES1   0.0000
    34 H13     18.0322   3.9839   7.3188   H         1 RES1   0.0000
    35 C22     19.7652   5.0511   7.7898   C.2       1 RES1   0.0000
    36 H14     19.4628   5.7945   8.2979   H         1 RES1   0.0000
    37 Fe1     22.6695   2.3093   5.9658   Fe        1 RES1   2.0000
    38 N1      22.6140   3.6991   2.8868   N.pl3     1 RES1   0.0000
    39 H15     21.7730   3.4761   2.7772   H         1 RES1   0.0000
    40 N2      23.1821   3.3444   4.0630   N.2       1 RES1   0.0000
    41 N3      24.7284   2.8238   6.1166   N.ar      1 RES1   0.0000
    42 N4      23.2829   1.6515   7.9418   N.2       1 RES1   0.0000
    43 N5      22.7567   1.0247   9.0059   N.pl3     1 RES1   0.0000
    44 H16     21.9059   0.7844   9.1045   H         1 RES1   0.0000
    45 N6      24.2593  -0.3491   4.7340   N.pl3     1 RES1   0.0000
    46 H17     25.0365  -0.0308   4.8750   H         1 RES1   0.0000
    47 N7      23.1731   0.3858   5.0185   N.2       1 RES1   0.0000
    48 N8      20.8127   1.3569   5.5340   N.ar      1 RES1   0.0000
    49 N9      21.1322   3.6533   6.7290   N.2       1 RES1   0.0000
    50 N10     21.0409   4.7835   7.4645   N.pl3     1 RES1   0.0000
    51 H18     21.7210   5.3218   7.6012   H         1 RES1   0.0000
    52 C23     19.5013  14.9626   0.7839   C.2       2 RES2   0.0000
    53 C24     17.9914  15.0980   0.7949   C.ar      2 RES2   0.0000
    54 C25     17.3849  16.3254   0.5724   C.ar      2 RES2   0.0000
    55 H19     17.9219  17.0964   0.4329   H         2 RES2   0.0000
    56 C26     15.9992  16.4392   0.5520   C.ar      2 RES2   0.0000
    57 H20     15.6020  17.2840   0.3769   H         2 RES2   0.0000
    58 C27     15.1805  15.3287   0.7839   C.ar      2 RES2   0.0000
    59 C28     15.8092  14.1028   1.0412   C.ar      2 RES2   0.0000
    60 H21     15.2794  13.3362   1.2289   H         2 RES2   0.0000
    61 C29     17.1923  13.9875   1.0260   C.ar      2 RES2   0.0000
    62 H22     17.5958  13.1408   1.1749   H         2 RES2   0.0000
    63 O1      20.1595  16.0388   0.7822   O.co2     2 RES2  -1.0000
    64 O2      19.9758  13.8097   0.7729   O.co2     2 RES2   0.0000
    65 C23A     9.3792  15.7994   0.7839   C.2       2 RES2   0.0000
    66 C24A    10.8891  15.6640   0.7949   C.ar      2 RES2   0.0000
    67 C25A    11.4956  14.4366   0.5724   C.ar      2 RES2   0.0000
    68 H19A    10.9586  13.6656   0.4329   H         2 RES2   0.0000
    69 C26A    12.8813  14.3228   0.5520   C.ar      2 RES2   0.0000
    70 H20A    13.2785  13.4780   0.3769   H         2 RES2   0.0000
    71 C27A    13.7000  15.4333   0.7839   C.ar      2 RES2   0.0000
    72 C28A    13.0713  16.6592   1.0412   C.ar      2 RES2   0.0000
    73 H21A    13.6011  17.4258   1.2289   H         2 RES2   0.0000
    74 C29A    11.6882  16.7745   1.0260   C.ar      2 RES2   0.0000
    75 H22A    11.2847  17.6212   1.1749   H         2 RES2   0.0000
    76 O1A      8.7210  14.7232   0.7822   O.co2     2 RES2  -1.0000
    77 O2A      8.9047  16.9523   0.7729   O.co2     2 RES2   0.0000
    78 C30     27.6727  12.5986   3.4677   C.2       3 RES3   0.0000
    79 C31     28.0279  11.1358   3.4414   C.ar      3 RES3   0.0000
    80 C32     28.7130  10.5775   2.3619   C.ar      3 RES3   0.0000
    81 H23     28.9520  11.1243   1.6230   H         3 RES3   0.0000
    82 C33     29.0483   9.2332   2.3576   C.ar      3 RES3   0.0000
    83 H24     29.5158   8.8690   1.6153   H         3 RES3   0.0000
    84 C34     28.7104   8.4165   3.4218   C.ar      3 RES3   0.0000
    85 C35     28.0441   8.9764   4.5021   C.ar      3 RES3   0.0000
    86 H25     27.8179   8.4310   5.2465   H         3 RES3   0.0000
    87 C36     27.7028  10.3237   4.5098   C.ar      3 RES3   0.0000
    88 H26     27.2423  10.6891   5.2566   H         3 RES3   0.0000
    89 O3      27.9448  13.3000   2.4893   O.co2     3 RES3   0.0000
    90 O4      27.1182  13.0508   4.4741   O.co2     3 RES3  -1.0000
    91 C30A    30.0883   2.7824   3.4677   C.2       3 RES3   0.0000
    92 C31A    29.7331   4.2452   3.4414   C.ar      3 RES3   0.0000
    93 C32A    29.0480   4.8035   2.3619   C.ar      3 RES3   0.0000
    94 H23A    28.8090   4.2567   1.6230   H         3 RES3   0.0000
    95 C33A    28.7127   6.1478   2.3576   C.ar      3 RES3   0.0000
    96 H24A    28.2452   6.5120   1.6153   H         3 RES3   0.0000
    97 C34A    29.0506   6.9645   3.4218   C.ar      3 RES3   0.0000
    98 C35A    29.7169   6.4046   4.5021   C.ar      3 RES3   0.0000
    99 H25A    29.9431   6.9500   5.2465   H         3 RES3   0.0000
   100 C36A    30.0582   5.0573   4.5098   C.ar      3 RES3   0.0000
   101 H26A    30.5187   4.6919   5.2566   H         3 RES3   0.0000
   102 O3A     29.8162   2.0810   2.4893   O.co2     3 RES3   0.0000
   103 O4A     30.6428   2.3302   4.4741   O.co2     3 RES3  -1.0000
   104 O5      20.0480   3.0101   2.3356   O.3       4 RES4   0.0000
   105 H27     19.9478   2.3533   1.8854   H         4 RES4   0.0000
   106 H28     19.3297   3.4300   2.2846   H         4 RES4   0.0000
   107 O6      17.7531   4.5651   1.8540   O.3       5 RES5   0.0000
   108 H29     17.3196   4.7527   2.5649   H         5 RES5   0.0000
   109 H30     17.1464   4.7220   1.2739   H         5 RES5   0.0000
   110 O7      30.7944  -0.2492   4.9455   O.3       6 RES6   0.0000
   111 H31     30.6162   0.5553   4.7815   H         6 RES6   0.0000
   112 H32     30.7000  -0.6306   4.1955   H         6 RES6   0.0000
   113 O8      27.7175  12.9923   8.2730   O.3       7 RES7   0.0000
   114 H33     27.6386  13.1508   9.0875   H         7 RES7   0.0000
   115 H34     27.6964  13.7968   7.9409   H         7 RES7   0.0000
   116 O9      28.8805   0.0000   7.0288   O.3       8 RES8   0.0000
   117 H35     29.5101  -0.1538   6.4801   H         8 RES8   0.0000
   118 H35A    28.2509   0.1538   6.4801   H         8 RES8   0.0000
   119 O10     30.1195  -0.7521   2.5241   O.3       9 RES9   0.0000
   120 H36     29.5448  -1.3228   2.5309   H         9 RES9   0.0000
   121 H37     29.7758  -0.0923   2.2337   H         9 RES9   0.0000
@<TRIPOS>BOND
     1     1     2    1
     2     3     1    2
     3     4     3    1
     4     5     3    1
     5     6     5    1
     6     7     6   ar
     7     8     7    1
     8     9     7   ar
     9    10     9    1
    10    11     9   ar
    11    12    11    1
    12    13    11   ar
    13    14    13    1
    14    15    14    1
    15    16    15    1
    16    17    15    2
    17    18    17    1
    18    19    20    1
    19    21    19    2
    20    22    21    1
    21    23    21    1
    22    24    23    1
    23    25    24   ar
    24    26    25    1
    25    27    25   ar
    26    28    27    1
    27    29    27   ar
    28    30    29    1
    29    31    29   ar
    30    32    31    1
    31    33    32    1
    32    34    33    1
    33    35    33    2
    34    36    35    1
    35    37    40    1
    36    38     1    1
    37    39    38    1
    38    40     5    2
    39    41     6   ar
    40    42    14    2
    41    43    17    1
    42    44    43    1
    43    45    19    1
    44    46    45    1
    45    47    23    2
    46    48    24   ar
    47    49    32    2
    48    50    35    1
    49    51    50    1
    50    13    41   ar
    51    31    48   ar
    52    37    41    1
    53    37    42    1
    54    37    47    1
    55    37    48    1
    56    37    49    1
    57    38    40    1
    58    42    43    1
    59    45    47    1
    60    49    50    1
    61    52    53    1
    62    53    54   ar
    63    54    55    1
    64    56    54   ar
    65    57    56    1
    66    58    56   ar
    67    59    58   ar
    68    60    59    1
    69    61    53   ar
    70    62    61    1
    71    63    52    1
    72    64    52    2
    73    65    66    1
    74    66    67   ar
    75    67    68    1
    76    69    67   ar
    77    70    69    1
    78    71    58    1
    79    72    71   ar
    80    73    72    1
    81    74    66   ar
    82    75    74    1
    83    76    65    1
    84    77    65    2
    85    59    61   ar
    86    69    71   ar
    87    72    74   ar
    88    78    79    1
    89    79    80   ar
    90    80    81    1
    91    82    80   ar
    92    83    82    1
    93    84    82   ar
    94    85    84   ar
    95    86    85    1
    96    87    79   ar
    97    88    87    1
    98    89    78    2
    99    90    78    1
   100    91    92    1
   101    92    93   ar
   102    93    94    1
   103    95    93   ar
   104    96    95    1
   105    97    84    1
   106    98    97   ar
   107    99    98    1
   108   100    92   ar
   109   101   100    1
   110   102    91    2
   111   103    91    1
   112    85    87   ar
   113    95    97   ar
   114    98   100   ar
   115   104   105    1
   116   106   104    1
   117   107   108    1
   118   109   107    1
   119   110   111    1
   120   112   110    1
   121   113   114    1
   122   115   113    1
   123   116   117    1
   124   118   116    1
   125   119   120    1
   126   121   119    1
@<TRIPOS>SUBSTRUCTURE
     1 RES1        1 GROUP             0 ****  ****    0  
     2 RES2       52 GROUP             0 ****  ****    0  
     3 RES3       78 GROUP             0 ****  ****    0  
     4 RES4      104 GROUP             0 ****  ****    0  
     5 RES5      107 GROUP             0 ****  ****    0  
     6 RES6      110 GROUP             0 ****  ****    0  
     7 RES7      113 GROUP             0 ****  ****    0  
     8 RES8      116 GROUP             0 ****  ****    0  
     9 RES9      119 GROUP             0 ****  ****    0  
@<TRIPOS>CRYSIN
   28.8805   15.3810    8.4930   90.0000   90.0000   90.0000    18     1
