@<TRIPOS>MOLECULE
QOPVEZ
   111   117     1     0     0
SMALL
NO_CHARGES
****
Generated from the CSD

@<TRIPOS>ATOM
     1 Fe1      8.5577   4.4331  14.2056   Fe        1 RES1   0.0000
     2 P1       7.8848   2.9831  12.5950   P.3       1 RES1   0.0000
     3 P2      10.2569   4.9933  15.5740   P.3       1 RES1   0.0000
     4 P3       7.7854   6.3741  13.3167   P.3       1 RES1   0.0000
     5 P4       6.9324   4.1987  15.6352   P.3       1 RES1   0.0000
     6 N1      10.0670   4.5450  12.8785   N.2       1 RES1   0.0000
     7 C1      11.3151   5.0630  13.0931   C.2       1 RES1   0.0000
     8 C2       6.1334   2.6581  12.0136   C.3       1 RES1   0.0000
     9 H1       5.6384   3.5107  12.1804   H         1 RES1   0.0000
    10 C3       8.7850   1.3451  12.7003   C.3       1 RES1   0.0000
    11 H2       9.7506   1.6005  12.7597   H         1 RES1   0.0000
    12 C4      10.0156   4.1807  11.5603   C.2       1 RES1   0.0000
    13 C5       6.4860   6.3038  12.0124   C.3       1 RES1   0.0000
    14 H3       6.7946   5.7381  11.2740   H         1 RES1   0.0000
    15 H4       6.3090   7.2080  11.6781   H         1 RES1   0.0000
    16 H5       5.6633   5.9287  12.3902   H         1 RES1   0.0000
    17 C6      11.1205   3.5634  16.4090   C.3       1 RES1   0.0000
    18 H6      11.8910   3.9423  16.9225   H         1 RES1   0.0000
    19 C7      12.0552   5.0156  11.9274   C.2       1 RES1   0.0000
    20 H7      12.9505   5.3095  11.8109   H         1 RES1   0.0000
    21 C8      11.2182   4.4440  10.9437   C.2       1 RES1   0.0000
    22 H8      11.4412   4.2748  10.0365   H         1 RES1   0.0000
    23 C9       6.6073   2.5545  16.4006   C.3       1 RES1   0.0000
    24 H9       6.5662   1.8708  15.7004   H         1 RES1   0.0000
    25 H10      5.7546   2.5809  16.8821   H         1 RES1   0.0000
    26 H11      7.3300   2.3373  17.0264   H         1 RES1   0.0000
    27 C10      8.7144   3.6380  11.0759   C.3       1 RES1   0.0000
    28 H12      8.8586   2.9151  10.4156   H         1 RES1   0.0000
    29 H13      8.1704   4.3512  10.6581   H         1 RES1   0.0000
    30 C11      9.0453   7.3651  12.4281   C.3       1 RES1   0.0000
    31 H14      9.7001   7.7109  13.0696   H         1 RES1   0.0000
    32 H15      8.6092   8.1142  11.9707   H         1 RES1   0.0000
    33 H16      9.5000   6.7999  11.7686   H         1 RES1   0.0000
    34 C12     11.5844   5.6145  14.4510   C.3       1 RES1   0.0000
    35 H17     11.5764   6.6039  14.4264   H         1 RES1   0.0000
    36 H18     12.4718   5.3157  14.7728   H         1 RES1   0.0000
    37 C13      5.3847   1.5886  12.8342   C.3       1 RES1   0.0000
    38 H19      5.7896   0.7008  12.6673   H         1 RES1   0.0000
    39 H20      5.4762   1.7900  13.7990   H         1 RES1   0.0000
    40 C14      8.5362   0.5267  13.9724   C.3       1 RES1   0.0000
    41 H21      8.6180   1.1146  14.7651   H         1 RES1   0.0000
    42 H22      7.6166   0.1600  13.9549   H         1 RES1   0.0000
    43 C15      9.7480  -0.7062  11.5867   C.3       1 RES1   0.0000
    44 H23      9.6783  -1.2986  10.7967   H         1 RES1   0.0000
    45 H24     10.6596  -0.3203  11.6031   H         1 RES1   0.0000
    46 C16      8.7170   0.4194  11.4761   C.3       1 RES1   0.0000
    47 H25      7.8094   0.0301  11.4068   H         1 RES1   0.0000
    48 H26      8.8889   0.9450  10.6543   H         1 RES1   0.0000
    49 C17      9.6765   7.5564  16.5642   C.3       1 RES1   0.0000
    50 H27      8.7273   7.3470  16.3740   H         1 RES1   0.0000
    51 H28     10.0800   7.9143  15.7331   H         1 RES1   0.0000
    52 C18     10.2087   2.8544  17.4183   C.3       1 RES1   0.0000
    53 H29      9.9009   3.5104  18.0946   H         1 RES1   0.0000
    54 H30      9.4108   2.5078  16.9456   H         1 RES1   0.0000
    55 C19      5.2119   4.5759  15.1011   C.3       1 RES1   0.0000
    56 H31      5.1546   5.5147  14.8248   H         1 RES1   0.0000
    57 H32      4.5962   4.4170  15.8467   H         1 RES1   0.0000
    58 H33      4.9697   3.9975  14.3475   H         1 RES1   0.0000
    59 C20      4.4714   2.3115  10.1475   C.3       1 RES1   0.0000
    60 H34      4.0646   3.2032  10.2867   H         1 RES1   0.0000
    61 H35      4.3839   2.0830   9.1878   H         1 RES1   0.0000
    62 C21      7.0082   7.7494  14.2805   C.3       1 RES1   0.0000
    63 H36      6.3604   7.3777  14.9152   H         1 RES1   0.0000
    64 H37      6.5503   8.3609  13.6662   H         1 RES1   0.0000
    65 H38      7.7021   8.2377  14.7709   H         1 RES1   0.0000
    66 C22      6.9226   5.1907  17.1910   C.3       1 RES1   0.0000
    67 H39      7.7220   4.9806  17.7173   H         1 RES1   0.0000
    68 H40      6.1214   4.9736  17.7116   H         1 RES1   0.0000
    69 H41      6.9189   6.1450  16.9687   H         1 RES1   0.0000
    70 C23     11.8449   6.5953  17.3769   C.3       1 RES1   0.0000
    71 H42     12.2733   5.7736  17.7250   H         1 RES1   0.0000
    72 H43     12.3575   6.8923  16.5838   H         1 RES1   0.0000
    73 C24      9.5443  -0.6226  14.0803   C.3       1 RES1   0.0000
    74 H44     10.4552  -0.2491  14.1897   H         1 RES1   0.0000
    75 H45      9.3386  -1.1638  14.8844   H         1 RES1   0.0000
    76 C25      9.5131  -1.5156  12.8533   C.3       1 RES1   0.0000
    77 H46      8.6344  -1.9679  12.7982   H         1 RES1   0.0000
    78 H47     10.2121  -2.2116  12.9349   H         1 RES1   0.0000
    79 C26     10.3990   6.2713  16.9533   C.3       1 RES1   0.0000
    80 H48      9.9314   5.8982  17.7539   H         1 RES1   0.0000
    81 C27      3.7143   1.2821  10.9778   C.3       1 RES1   0.0000
    82 H49      2.7504   1.3211  10.7563   H         1 RES1   0.0000
    83 H50      4.0438   0.3744  10.7601   H         1 RES1   0.0000
    84 C28     11.6928   2.5496  15.4187   C.3       1 RES1   0.0000
    85 H51     10.9574   2.1742  14.8709   H         1 RES1   0.0000
    86 H52     12.3252   3.0067  14.8094   H         1 RES1   0.0000
    87 C29      3.9054   1.5502  12.4610   C.3       1 RES1   0.0000
    88 H53      3.4540   0.8412  12.9830   H         1 RES1   0.0000
    89 H54      3.4851   2.4161  12.6943   H         1 RES1   0.0000
    90 C30      5.9526   2.3724  10.5169   C.3       1 RES1   0.0000
    91 H55      6.3949   3.0839   9.9903   H         1 RES1   0.0000
    92 H56      6.3838   1.5101  10.2905   H         1 RES1   0.0000
    93 C31     12.4159   1.4155  16.1431   C.3       1 RES1   0.0000
    94 H57     12.7486   0.7603  15.4791   H         1 RES1   0.0000
    95 H58     13.1968   1.7817  16.6300   H         1 RES1   0.0000
    96 C32     11.4928   0.7115  17.1275   C.3       1 RES1   0.0000
    97 H59     10.7574   0.2709  16.6338   H         1 RES1   0.0000
    98 H60     11.9988   0.0129  17.6115   H         1 RES1   0.0000
    99 C33     11.9034   7.6846  18.4487   C.3       1 RES1   0.0000
   100 H61     11.4867   7.3467  19.2801   H         1 RES1   0.0000
   101 H62     12.8499   7.8983  18.6469   H         1 RES1   0.0000
   102 C34     10.9125   1.7012  18.1252   C.3       1 RES1   0.0000
   103 H63     11.6395   2.0599  18.6931   H         1 RES1   0.0000
   104 H64     10.2675   1.2338  18.7123   H         1 RES1   0.0000
   105 C35      9.7408   8.6334  17.6538   C.3       1 RES1   0.0000
   106 H65      9.2935   9.4565  17.3324   H         1 RES1   0.0000
   107 H66      9.2606   8.3179  18.4602   H         1 RES1   0.0000
   108 C36     11.1882   8.9449  18.0106   C.3       1 RES1   0.0000
   109 H67     11.6484   9.3318  17.2247   H         1 RES1   0.0000
   110 H68     11.2140   9.6125  18.7412   H         1 RES1   0.0000
   111 H69      9.0667   3.1365  14.7093   H         1 RES1   0.0000
@<TRIPOS>BOND
     1     1     2    1
     2     2     8    1
     3     3     1    1
     4     4     1    1
     5     5     1    1
     6     6     1    1
     7     7     6    1
     8     8     9    1
     9    10     2    1
    10    11    10    1
    11    12     6    1
    12    13     4    1
    13    14    13    1
    14    15    13    1
    15    16    13    1
    16    17     3    1
    17    18    17    1
    18    19     7    2
    19    20    19    1
    20    21    12    2
    21    22    21    1
    22    23     5    1
    23    24    23    1
    24    25    23    1
    25    26    23    1
    26    27     2    1
    27    28    27    1
    28    29    27    1
    29    30     4    1
    30    31    30    1
    31    32    30    1
    32    33    30    1
    33    34     3    1
    34    35    34    1
    35    36    34    1
    36    37     8    1
    37    38    37    1
    38    39    37    1
    39    40    10    1
    40    41    40    1
    41    42    40    1
    42    43    44    1
    43    45    43    1
    44    46    10    1
    45    47    46    1
    46    48    46    1
    47    49    50    1
    48    51    49    1
    49    52    17    1
    50    53    52    1
    51    54    52    1
    52    55     5    1
    53    56    55    1
    54    57    55    1
    55    58    55    1
    56    59    60    1
    57    61    59    1
    58    62     4    1
    59    63    62    1
    60    64    62    1
    61    65    62    1
    62    66     5    1
    63    67    66    1
    64    68    66    1
    65    69    66    1
    66    70    71    1
    67    72    70    1
    68    73    40    1
    69    74    73    1
    70    75    73    1
    71    76    43    1
    72    77    76    1
    73    78    76    1
    74    79     3    1
    75    80    79    1
    76    81    59    1
    77    82    81    1
    78    83    81    1
    79    84    17    1
    80    85    84    1
    81    86    84    1
    82    87    37    1
    83    88    87    1
    84    89    87    1
    85    90     8    1
    86    91    90    1
    87    92    90    1
    88    93    84    1
    89    94    93    1
    90    95    93    1
    91    96    93    1
    92    97    96    1
    93    98    96    1
    94    99    70    1
    95   100    99    1
    96   101    99    1
    97   102    52    1
    98   103   102    1
    99   104   102    1
   100   105    49    1
   101   106   105    1
   102   107   105    1
   103   108    99    1
   104   109   108    1
   105   110   108    1
   106   111     1    1
   107     7    34    1
   108    12    27    1
   109    19    21    1
   110    43    46    1
   111    49    79    1
   112    59    90    1
   113    70    79    1
   114    73    76    1
   115    81    87    1
   116    96   102    1
   117   105   108    1
@<TRIPOS>SUBSTRUCTURE
     1 RES1        1 GROUP             0 ****  ****    0  
@<TRIPOS>CRYSIN
    9.8132   10.5161   19.3228   87.5210   84.9290   69.6780     2     1
