@<TRIPOS>MOLECULE
QOSNIW02
   169   183     3     0     0
SMALL
USER_CHARGES
****
Generated from the CSD

@<TRIPOS>ATOM
     1 Fe1      2.2727   7.5610   9.1505   Fe        1 RES1   2.0000
     2 N1       0.5093   6.4622   9.7828   N.2       1 RES1   0.0000
     3 N2      -1.2431   6.5178  11.3565   N.pl3     1 RES1   0.0000
     4 H1      -1.6012   6.9708  12.0213   H         1 RES1   0.0000
     5 N3      -0.6658   9.2674  11.6382   N.pl3     1 RES1   0.0000
     6 H2      -1.4823   8.9815  11.7954   H         1 RES1   0.0000
     7 N4       1.4790   8.7161  10.8266   N.2       1 RES1   0.0000
     8 N5       3.6599   6.5591  10.5032   N.2       1 RES1   0.0000
     9 N6       5.1906   7.3396  12.1309   N.pl3     1 RES1   0.0000
    10 H3       5.8145   7.9311  12.3204   H         1 RES1   0.0000
    11 N7       6.2049   9.0132  10.1125   N.pl3     1 RES1   0.0000
    12 H4       6.7340   8.7328  10.7566   H         1 RES1   0.0000
    13 N8       4.1014   8.7599   9.0726   N.2       1 RES1   0.0000
    14 N9       2.8188   6.5838   7.2758   N.2       1 RES1   0.0000
    15 N10      3.5153   7.3927   5.1676   N.pl3     1 RES1   0.0000
    16 H5       3.3875   7.9941   4.5389   H         1 RES1   0.0000
    17 N11      1.2646   9.0635   5.2762   N.pl3     1 RES1   0.0000
    18 H6       1.6112   8.8265   4.5036   H         1 RES1   0.0000
    19 N12      1.3207   8.7482   7.6123   N.2       1 RES1   0.0000
    20 C1       0.1445   5.0716   9.4613   C.3       1 RES1   0.0000
    21 H7       0.6440   4.4592  10.0586   H         1 RES1   0.0000
    22 H8       0.4142   4.8736   8.5300   H         1 RES1   0.0000
    23 C2      -1.3327   4.8109   9.6119   C.3       1 RES1   0.0000
    24 H9      -1.5176   3.8502   9.4603   H         1 RES1   0.0000
    25 H10     -1.8330   5.3330   8.9352   H         1 RES1   0.0000
    26 C3      -1.7955   5.2078  11.0109   C.3       1 RES1   0.0000
    27 H11     -2.7844   5.2429  11.0380   H         1 RES1   0.0000
    28 H12     -1.4915   4.5331  11.6679   H         1 RES1   0.0000
    29 C4      -0.2006   7.0535  10.6874   C.2       1 RES1   0.0000
    30 C5       0.2336   8.4482  11.0659   C.2       1 RES1   0.0000
    31 C6      -0.2871  10.6369  12.0002   C.3       1 RES1   0.0000
    32 H13     -0.8356  10.9507  12.7622   H         1 RES1   0.0000
    33 H14     -0.4376  11.2462  11.2337   H         1 RES1   0.0000
    34 C7       1.1821  10.6331  12.3810   C.3       1 RES1   0.0000
    35 H15      1.3101  10.1111  13.2128   H         1 RES1   0.0000
    36 H16      1.4870  11.5597  12.5476   H         1 RES1   0.0000
    37 C8       1.9999  10.0182  11.2570   C.3       1 RES1   0.0000
    38 H17      2.0040  10.6372  10.4839   H         1 RES1   0.0000
    39 H18      2.9362   9.9075  11.5606   H         1 RES1   0.0000
    40 C9       3.2352   5.4871  11.4062   C.3       1 RES1   0.0000
    41 H19      2.9762   4.6952  10.8714   H         1 RES1   0.0000
    42 H20      2.4392   5.7853  11.9127   H         1 RES1   0.0000
    43 C10      4.3299   5.0920  12.3851   C.3       1 RES1   0.0000
    44 H21      3.9747   4.4358  13.0361   H         1 RES1   0.0000
    45 H22      5.0781   4.6664  11.8951   H         1 RES1   0.0000
    46 C11      4.8324   6.3189  13.1179   C.3       1 RES1   0.0000
    47 H23      4.1277   6.6645  13.7215   H         1 RES1   0.0000
    48 H24      5.6238   6.0861  13.6647   H         1 RES1   0.0000
    49 C12      4.5725   7.3792  10.9330   C.2       1 RES1   0.0000
    50 C13      4.9838   8.4577   9.9691   C.2       1 RES1   0.0000
    51 C14      6.6653  10.0738   9.2158   C.3       1 RES1   0.0000
    52 H25      7.1960   9.6841   8.4757   H         1 RES1   0.0000
    53 H26      7.2391  10.7093   9.7114   H         1 RES1   0.0000
    54 C15      5.4528  10.7947   8.6602   C.3       1 RES1   0.0000
    55 H27      5.7344  11.4246   7.9507   H         1 RES1   0.0000
    56 H28      5.0139  11.3147   9.3795   H         1 RES1   0.0000
    57 C16      4.4704   9.7812   8.0864   C.3       1 RES1   0.0000
    58 H29      3.6542  10.2535   7.7841   H         1 RES1   0.0000
    59 H30      4.8777   9.3418   7.2981   H         1 RES1   0.0000
    60 C17      3.7978   5.4972   7.1957   C.3       1 RES1   0.0000
    61 H31      3.4379   4.7006   7.6616   H         1 RES1   0.0000
    62 H32      4.6279   5.7726   7.6604   H         1 RES1   0.0000
    63 C18      4.1303   5.1264   5.7511   C.3       1 RES1   0.0000
    64 H33      4.8619   4.4592   5.7355   H         1 RES1   0.0000
    65 H34      3.3359   4.7259   5.3164   H         1 RES1   0.0000
    66 C19      4.5538   6.3732   4.9990   C.3       1 RES1   0.0000
    67 H35      5.4155   6.7059   5.3543   H         1 RES1   0.0000
    68 H36      4.6719   6.1654   4.0378   H         1 RES1   0.0000
    69 C20      2.7525   7.4156   6.2823   C.2       1 RES1   0.0000
    70 C21      1.7091   8.4808   6.4086   C.2       1 RES1   0.0000
    71 C22      0.2193  10.0787   5.3111   C.3       1 RES1   0.0000
    72 H37     -0.6622   9.6607   5.1410   H         1 RES1   0.0000
    73 H38      0.3837  10.7561   4.6083   H         1 RES1   0.0000
    74 C23      0.2230  10.7360   6.6681   C.3       1 RES1   0.0000
    75 H39     -0.5787  11.3111   6.7579   H         1 RES1   0.0000
    76 H40      1.0238  11.3111   6.7528   H         1 RES1   0.0000
    77 C24      0.2257   9.7065   7.7704   C.3       1 RES1   0.0000
    78 H41      0.3154  10.1634   8.6436   H         1 RES1   0.0000
    79 H42     -0.6371   9.2211   7.7664   H         1 RES1   0.0000
    80 B1       8.9991   6.7582   5.4376   B         2 RES2  -1.0000
    81 C25      8.0797   6.2553   4.1657   C.ar      2 RES2   0.0000
    82 C26      7.8652   7.0594   3.0272   C.ar      2 RES2   0.0000
    83 H43      8.2482   7.9275   3.0041   H         2 RES2   0.0000
    84 C27      7.1131   6.6312   1.9341   C.ar      2 RES2   0.0000
    85 H44      6.9845   7.2104   1.1915   H         2 RES2   0.0000
    86 C28      6.5504   5.3586   1.9260   C.ar      2 RES2   0.0000
    87 H45      6.0338   5.0628   1.1852   H         2 RES2   0.0000
    88 C29      6.7556   4.5293   3.0174   C.ar      2 RES2   0.0000
    89 H46      6.3873   3.6538   3.0230   H         2 RES2   0.0000
    90 C30      7.5041   4.9781   4.1108   C.ar      2 RES2   0.0000
    91 H47      7.6277   4.3925   4.8482   H         2 RES2   0.0000
    92 C31      8.8271   8.3947   5.5804   C.ar      2 RES2   0.0000
    93 C32      7.5613   9.0027   5.5055   C.ar      2 RES2   0.0000
    94 H48      6.8004   8.4482   5.3770   H         2 RES2   0.0000
    95 C33      7.3705  10.3809   5.6107   C.ar      2 RES2   0.0000
    96 H49      6.4931  10.7417   5.5651   H         2 RES2   0.0000
    97 C34      8.4623  11.2275   5.7821   C.ar      2 RES2   0.0000
    98 H50      8.3425  12.1669   5.8567   H         2 RES2   0.0000
    99 C35      9.7230  10.6670   5.8406   C.ar      2 RES2   0.0000
   100 H51     10.4825  11.2282   5.9412   H         2 RES2   0.0000
   101 C36      9.8920   9.2854   5.7529   C.ar      2 RES2   0.0000
   102 H52     10.7723   8.9328   5.8137   H         2 RES2   0.0000
   103 C37     10.5635   6.3159   5.1757   C.ar      2 RES2   0.0000
   104 C38     11.5510   6.5540   6.1574   C.ar      2 RES2   0.0000
   105 H53     11.2994   7.0032   6.9560   H         2 RES2   0.0000
   106 C39     12.8760   6.1589   6.0051   C.ar      2 RES2   0.0000
   107 H54     13.5068   6.3456   6.6910   H         2 RES2   0.0000
   108 C40     13.2806   5.4939   4.8561   C.ar      2 RES2   0.0000
   109 H55     14.1884   5.2357   4.7421   H         2 RES2   0.0000
   110 C41     12.3368   5.2111   3.8737   C.ar      2 RES2   0.0000
   111 H56     12.5946   4.7421   3.0886   H         2 RES2   0.0000
   112 C42     11.0082   5.6172   4.0422   C.ar      2 RES2   0.0000
   113 H57     10.3801   5.4105   3.3600   H         2 RES2   0.0000
   114 C43      8.5368   5.9952   6.8301   C.ar      2 RES2   0.0000
   115 C44      7.5499   6.4692   7.7097   C.ar      2 RES2   0.0000
   116 H58      7.1057   7.2825   7.5001   H         2 RES2   0.0000
   117 C45      7.1953   5.7961   8.8780   C.ar      2 RES2   0.0000
   118 H59      6.5192   6.1546   9.4413   H         2 RES2   0.0000
   119 C46      7.8213   4.6077   9.2246   C.ar      2 RES2   0.0000
   120 H60      7.5853   4.1511  10.0232   H         2 RES2   0.0000
   121 C47      8.7989   4.0994   8.3816   C.ar      2 RES2   0.0000
   122 H61      9.2404   3.2863   8.6007   H         2 RES2   0.0000
   123 C48      9.1320   4.7805   7.2156   C.ar      2 RES2   0.0000
   124 H62      9.7965   4.4052   6.6493   H         2 RES2   0.0000
   125 B2       6.0230  17.7114  11.8119   B         3 RES3  -1.0000
   126 C49      5.9167  16.0762  11.6660   C.ar      3 RES3   0.0000
   127 C50      5.1028  15.3984  10.7511   C.ar      3 RES3   0.0000
   128 H63      4.5080  15.9072  10.2125   H         3 RES3   0.0000
   129 C51      5.1213  14.0107  10.5902   C.ar      3 RES3   0.0000
   130 H64      4.5384  13.5992   9.9626   H         3 RES3   0.0000
   131 C52      5.9869  13.2319  11.3416   C.ar      3 RES3   0.0000
   132 H65      6.0109  12.2876  11.2324   H         3 RES3   0.0000
   133 C53      6.8184  13.8619  12.2563   C.ar      3 RES3   0.0000
   134 H66      7.4199  13.3470  12.7799   H         3 RES3   0.0000
   135 C54      6.7760  15.2391  12.4111   C.ar      3 RES3   0.0000
   136 H67      7.3532  15.6388  13.0500   H         3 RES3   0.0000
   137 C55      7.5780  18.1309  11.4318   C.ar      3 RES3   0.0000
   138 C56      8.2844  19.1966  12.0181   C.ar      3 RES3   0.0000
   139 H68      7.8795  19.6746  12.7332   H         3 RES3   0.0000
   140 C57      9.5583  19.5802  11.5899   C.ar      3 RES3   0.0000
   141 H69     10.0010  20.3070  12.0112   H         3 RES3   0.0000
   142 C58     10.1824  18.8997  10.5469   C.ar      3 RES3   0.0000
   143 H70     11.0438  19.1647  10.2466   H         3 RES3   0.0000
   144 C59      9.5306  17.8332   9.9545   C.ar      3 RES3   0.0000
   145 H71      9.9508  17.3504   9.2520   H         3 RES3   0.0000
   146 C60      8.2550  17.4641  10.3881   C.ar      3 RES3   0.0000
   147 H72      7.8243  16.7324   9.9614   H         3 RES3   0.0000
   148 C61      5.6514  18.2359  13.3374   C.ar      3 RES3   0.0000
   149 C62      5.3749  19.6005  13.5603   C.ar      3 RES3   0.0000
   150 H73      5.4206  20.1989  12.8241   H         3 RES3   0.0000
   151 C63      5.0371  20.1093  14.8136   C.ar      3 RES3   0.0000
   152 H74      4.8604  21.0366  14.9168   H         3 RES3   0.0000
   153 C64      4.9575  19.2616  15.9128   C.ar      3 RES3   0.0000
   154 H75      4.7116  19.6007  16.7659   H         3 RES3   0.0000
   155 C65      5.2420  17.9139  15.7465   C.ar      3 RES3   0.0000
   156 H76      5.2079  17.3269  16.4933   H         3 RES3   0.0000
   157 C66      5.5788  17.4161  14.4824   C.ar      3 RES3   0.0000
   158 H77      5.7654  16.4892  14.3917   H         3 RES3   0.0000
   159 C67      5.0204  18.5263  10.7799   C.ar      3 RES3   0.0000
   160 C68      3.6600  18.1945  10.5692   C.ar      3 RES3   0.0000
   161 H78      3.3073  17.4278  11.0077   H         3 RES3   0.0000
   162 C69      2.8166  18.9375   9.7513   C.ar      3 RES3   0.0000
   163 H79      1.9200  18.6566   9.6130   H         3 RES3   0.0000
   164 C70      3.2853  20.0940   9.1340   C.ar      3 RES3   0.0000
   165 H80      2.7104  20.6132   8.5830   H         3 RES3   0.0000
   166 C71      4.5998  20.4778   9.3337   C.ar      3 RES3   0.0000
   167 H81      4.9291  21.2727   8.9289   H         3 RES3   0.0000
   168 C72      5.4456  19.6985  10.1306   C.ar      3 RES3   0.0000
   169 H82      6.3484  19.9736  10.2378   H         3 RES3   0.0000
@<TRIPOS>BOND
     1     1     2    1
     2     2    20    1
     3     3     4    1
     4     5     6    1
     5     7     1    1
     6     8     1    1
     7     9    10    1
     8    11    12    1
     9    13     1    1
    10    14     1    1
    11    15    16    1
    12    17    18    1
    13    19     1    1
    14    20    21    1
    15    22    20    1
    16    23    20    1
    17    24    23    1
    18    25    23    1
    19    26     3    1
    20    27    26    1
    21    28    26    1
    22    29     2    2
    23    30     5    1
    24    31     5    1
    25    32    31    1
    26    33    31    1
    27    34    31    1
    28    35    34    1
    29    36    34    1
    30    37     7    1
    31    38    37    1
    32    39    37    1
    33    40     8    1
    34    41    40    1
    35    42    40    1
    36    43    40    1
    37    44    43    1
    38    45    43    1
    39    46     9    1
    40    47    46    1
    41    48    46    1
    42    49     8    2
    43    50    11    1
    44    51    11    1
    45    52    51    1
    46    53    51    1
    47    54    51    1
    48    55    54    1
    49    56    54    1
    50    57    13    1
    51    58    57    1
    52    59    57    1
    53    60    14    1
    54    61    60    1
    55    62    60    1
    56    63    60    1
    57    64    63    1
    58    65    63    1
    59    66    15    1
    60    67    66    1
    61    68    66    1
    62    69    14    2
    63    70    17    1
    64    71    17    1
    65    72    71    1
    66    73    71    1
    67    74    71    1
    68    75    74    1
    69    76    74    1
    70    77    19    1
    71    78    77    1
    72    79    77    1
    73     3    29    1
    74     7    30    2
    75     9    49    1
    76    13    50    2
    77    15    69    1
    78    19    70    2
    79    23    26    1
    80    29    30    1
    81    34    37    1
    82    43    46    1
    83    49    50    1
    84    54    57    1
    85    63    66    1
    86    69    70    1
    87    74    77    1
    88    80    81    1
    89    81    82   ar
    90    82    83    1
    91    84    82   ar
    92    85    84    1
    93    86    84   ar
    94    87    86    1
    95    88    86   ar
    96    89    88    1
    97    90    81   ar
    98    91    90    1
    99    92    80    1
   100    93    92   ar
   101    94    93    1
   102    95    93   ar
   103    96    95    1
   104    97    95   ar
   105    98    97    1
   106    99    97   ar
   107   100    99    1
   108   101    92   ar
   109   102   101    1
   110   103    80    1
   111   104   103   ar
   112   105   104    1
   113   106   104   ar
   114   107   106    1
   115   108   106   ar
   116   109   108    1
   117   110   108   ar
   118   111   110    1
   119   112   103   ar
   120   113   112    1
   121   114    80    1
   122   115   114   ar
   123   116   115    1
   124   117   115   ar
   125   118   117    1
   126   119   117   ar
   127   120   119    1
   128   121   119   ar
   129   122   121    1
   130   123   114   ar
   131   124   123    1
   132    88    90   ar
   133    99   101   ar
   134   110   112   ar
   135   121   123   ar
   136   125   126    1
   137   126   127   ar
   138   127   128    1
   139   129   127   ar
   140   130   129    1
   141   131   129   ar
   142   132   131    1
   143   133   131   ar
   144   134   133    1
   145   135   126   ar
   146   136   135    1
   147   137   125    1
   148   138   137   ar
   149   139   138    1
   150   140   138   ar
   151   141   140    1
   152   142   140   ar
   153   143   142    1
   154   144   142   ar
   155   145   144    1
   156   146   137   ar
   157   147   146    1
   158   148   125    1
   159   149   148   ar
   160   150   149    1
   161   151   149   ar
   162   152   151    1
   163   153   151   ar
   164   154   153    1
   165   155   153   ar
   166   156   155    1
   167   157   148   ar
   168   158   157    1
   169   159   125    1
   170   160   159   ar
   171   161   160    1
   172   162   160   ar
   173   163   162    1
   174   164   162   ar
   175   165   164    1
   176   166   164   ar
   177   167   166    1
   178   168   159   ar
   179   169   168    1
   180   133   135   ar
   181   144   146   ar
   182   155   157   ar
   183   166   168   ar
@<TRIPOS>SUBSTRUCTURE
     1 RES1        1 GROUP             0 ****  ****    0  
     2 RES2       80 GROUP             0 ****  ****    0  
     3 RES3      125 GROUP             0 ****  ****    0  
@<TRIPOS>CRYSIN
   13.4698   18.0170   13.9282   90.0000  115.0110   90.0000     4     1
