@<TRIPOS>MOLECULE
QOVCUA
   125   135     3     0     0
SMALL
USER_CHARGES
****
Generated from the CSD

@<TRIPOS>ATOM
     1 Fe1      5.8731  10.9185   3.2987   Fe        1 RES1   2.0000
     2 N1       6.5322  12.8386   3.3053   N.2       1 RES1   0.0000
     3 N2       5.8659  15.0680   3.0593   N.pl3     1 RES1   0.0000
     4 H1       5.2627  15.6061   2.7642   H         1 RES1   0.0000
     5 N3       3.4541  14.0312   2.0091   N.pl3     1 RES1   0.0000
     6 H2       3.6445  14.8592   1.8803   H         1 RES1   0.0000
     7 N4       4.2307  11.9293   2.6681   N.2       1 RES1   0.0000
     8 N5       5.2165  10.9697   5.2519   N.2       1 RES1   0.0000
     9 N6       3.7397   9.9186   6.7156   N.pl3     1 RES1   0.0000
    10 H3       3.3118   9.1888   6.8786   H         1 RES1   0.0000
    11 N7       3.9555   7.6546   5.0424   N.pl3     1 RES1   0.0000
    12 H4       3.6153   7.5774   5.8284   H         1 RES1   0.0000
    13 N8       5.0054   9.0833   3.4938   N.2       1 RES1   0.0000
    14 N9       7.6773  10.0998   3.6831   N.2       1 RES1   0.0000
    15 N10      9.5801   9.1040   2.7169   N.pl3     1 RES1   0.0000
    16 H5       9.9835   8.8996   1.9863   H         1 RES1   0.0000
    17 N11      8.4426   9.7711   0.2185   N.pl3     1 RES1   0.0000
    18 H6       9.2239   9.4145   0.2544   H         1 RES1   0.0000
    19 N12      6.5925  10.5587   1.4282   N.2       1 RES1   0.0000
    20 C1       7.8535  13.2785   3.7508   C.3       1 RES1   0.0000
    21 H7       8.5151  12.6629   3.3969   H         1 RES1   0.0000
    22 H8       7.8856  13.2159   4.7178   H         1 RES1   0.0000
    23 C2       8.2333  14.6421   3.3610   C.3       1 RES1   0.0000
    24 H9       8.4444  14.6621   2.4136   H         1 RES1   0.0000
    25 H10      9.0269  14.9100   3.8503   H         1 RES1   0.0000
    26 C3       7.1297  15.6001   3.6432   C.3       1 RES1   0.0000
    27 H11      7.3352  16.4643   3.2534   H         1 RES1   0.0000
    28 H12      7.0289  15.7142   4.6004   H         1 RES1   0.0000
    29 C4       5.6802  13.7280   2.9974   C.2       1 RES1   0.0000
    30 C5       4.3711  13.2045   2.5359   C.2       1 RES1   0.0000
    31 C6       2.1432  13.5264   1.6569   C.3       1 RES1   0.0000
    32 H13      1.4966  13.8484   2.3043   H         1 RES1   0.0000
    33 H14      1.8934  13.8770   0.7877   H         1 RES1   0.0000
    34 C7       2.0923  12.1314   1.6194   C.3       1 RES1   0.0000
    35 H15      1.1988  11.8873   1.9096   H         1 RES1   0.0000
    36 H16      2.1516  11.8841   0.6833   H         1 RES1   0.0000
    37 C8       2.9546  11.2974   2.2896   C.3       1 RES1   0.0000
    38 H17      3.1422  10.5270   1.7303   H         1 RES1   0.0000
    39 H18      2.5154  10.9751   3.0936   H         1 RES1   0.0000
    40 C9       5.3174  12.1035   6.2002   C.3       1 RES1   0.0000
    41 H19      6.2410  12.3959   6.2394   H         1 RES1   0.0000
    42 H20      4.7896  12.8440   5.8594   H         1 RES1   0.0000
    43 C10      4.8687  11.7932   7.5472   C.3       1 RES1   0.0000
    44 H21      4.7660  12.6279   8.0332   H         1 RES1   0.0000
    45 H22      5.5662  11.2834   7.9892   H         1 RES1   0.0000
    46 C11      3.5983  11.0323   7.6565   C.3       1 RES1   0.0000
    47 H23      3.4720  10.7050   8.5616   H         1 RES1   0.0000
    48 H24      2.8425  11.5917   7.4184   H         1 RES1   0.0000
    49 C12      4.4880   9.9761   5.6327   C.2       1 RES1   0.0000
    50 C13      4.4673   8.8325   4.6542   C.2       1 RES1   0.0000
    51 C14      3.9696   6.4919   4.1373   C.3       1 RES1   0.0000
    52 H25      4.1204   5.6830   4.6526   H         1 RES1   0.0000
    53 H26      3.1082   6.4141   3.6986   H         1 RES1   0.0000
    54 C15      5.0224   6.6308   3.1278   C.3       1 RES1   0.0000
    55 H27      5.8753   6.4173   3.5372   H         1 RES1   0.0000
    56 H28      4.8631   5.9818   2.4233   H         1 RES1   0.0000
    57 C16      5.1119   7.9623   2.5277   C.3       1 RES1   0.0000
    58 H29      4.4060   8.0541   1.8689   H         1 RES1   0.0000
    59 H30      5.9592   8.0351   2.0613   H         1 RES1   0.0000
    60 C17      8.1919   9.8287   5.0228   C.3       1 RES1   0.0000
    61 H31      7.7923   9.0077   5.3506   H         1 RES1   0.0000
    62 H32      7.9176  10.5460   5.6148   H         1 RES1   0.0000
    63 C18      9.6941   9.6974   5.0782   C.3       1 RES1   0.0000
    64 H33      9.9571   9.3541   5.9475   H         1 RES1   0.0000
    65 H34     10.1013  10.5683   4.9641   H         1 RES1   0.0000
    66 C19     10.1833   8.7639   3.9954   C.3       1 RES1   0.0000
    67 H35     11.1484   8.8265   3.9253   H         1 RES1   0.0000
    68 H36      9.9561   7.8507   4.2270   H         1 RES1   0.0000
    69 C20      8.3860   9.7409   2.6696   C.2       1 RES1   0.0000
    70 C21      7.7772  10.0515   1.3650   C.2       1 RES1   0.0000
    71 C22      7.8413  10.0724  -1.0845   C.3       1 RES1   0.0000
    72 H37      8.4001  10.7240  -1.5346   H         1 RES1   0.0000
    73 H38      7.8526   9.2619  -1.6194   H         1 RES1   0.0000
    74 C23      6.6227  10.5270  -1.0600   C.3       1 RES1   0.0000
    75 H39      6.0770   9.8786  -1.5346   H         1 RES1   0.0000
    76 H40      6.6198  11.3343  -1.5965   H         1 RES1   0.0000
    77 C24      5.9045  10.8486   0.1810   C.3       1 RES1   0.0000
    78 H41      5.6896  11.7952   0.1696   H         1 RES1   0.0000
    79 H42      5.0657  10.3617   0.1794   H         1 RES1   0.0000
    80 B1       6.7320   1.7001   3.1898   B         2 RES2  -1.0000
    81 C25      7.5604   3.0236   2.7087   C.ar      2 RES2   0.0000
    82 C26      8.1579   3.9193   3.5323   C.ar      2 RES2   0.0000
    83 H43      8.1212   3.8078   4.4537   H         2 RES2   0.0000
    84 C27      8.8601   5.0585   2.9582   C.ar      2 RES2   0.0000
    85 H44      9.2729   5.6640   3.5290   H         2 RES2   0.0000
    86 C28      8.9308   5.2619   1.6601   C.ar      2 RES2   0.0000
    87 H45      9.3869   5.9977   1.3177   H         2 RES2   0.0000
    88 C29      8.3436   4.4053   0.8611   C.ar      2 RES2   0.0000
    89 H46      8.3690   4.5515  -0.0571   H         2 RES2   0.0000
    90 C30      7.7027   3.3148   1.3389   C.ar      2 RES2   0.0000
    91 H47      7.3342   2.7207   0.7257   H         2 RES2   0.0000
    92 C31      5.2080   1.8355   2.6158   C.ar      2 RES2   0.0000
    93 C32      4.5926   0.9828   1.7172   C.ar      2 RES2   0.0000
    94 H48      5.0591   0.2416   1.4074   H         2 RES2   0.0000
    95 C33      3.3146   1.2011   1.2687   C.ar      2 RES2   0.0000
    96 H49      2.9405   0.5944   0.6719   H         2 RES2   0.0000
    97 C34      2.5814   2.2589   1.6618   C.ar      2 RES2   0.0000
    98 H50      1.7181   2.3838   1.3389   H         2 RES2   0.0000
    99 C35      3.1129   3.1190   2.5147   C.ar      2 RES2   0.0000
   100 H51      2.6200   3.8523   2.8049   H         2 RES2   0.0000
   101 C36      4.4060   2.9248   2.9778   C.ar      2 RES2   0.0000
   102 H52      4.7613   3.5567   3.5633   H         2 RES2   0.0000
   103 C37      6.7424   1.5857   4.8271   C.ar      2 RES2   0.0000
   104 C38      7.9478   1.3311   5.4827   C.ar      2 RES2   0.0000
   105 H53      8.7300   1.2746   4.9837   H         2 RES2   0.0000
   106 C39      8.0137   1.1592   6.8852   C.ar      2 RES2   0.0000
   107 H54      8.8299   0.9821   7.2945   H         2 RES2   0.0000
   108 C40      6.8507   1.2545   7.6516   C.ar      2 RES2   0.0000
   109 H55      6.8894   1.1347   8.5730   H         2 RES2   0.0000
   110 C41      5.6811   1.5180   7.0580   C.ar      2 RES2   0.0000
   111 H56      4.9055   1.5924   7.5668   H         2 RES2   0.0000
   112 C42      5.6293   1.6792   5.6637   C.ar      2 RES2   0.0000
   113 H57      4.8037   1.8594   5.2756   H         2 RES2   0.0000
   114 C43      7.4756   0.3054   2.6435   C.ar      2 RES2   0.0000
   115 C44      6.9120  -0.9237   2.9354   C.ar      2 RES2   0.0000
   116 H58      6.1109  -0.9472   3.4051   H         2 RES2   0.0000
   117 C45      7.4954  -2.1162   2.5554   C.ar      2 RES2   0.0000
   118 H59      7.0996  -2.9210   2.7968   H         2 RES2   0.0000
   119 C46      8.6527  -2.1203   1.8248   C.ar      2 RES2   0.0000
   120 H60      9.0401  -2.9210   1.5525   H         2 RES2   0.0000
   121 C47      9.2201  -0.9395   1.5085   C.ar      2 RES2   0.0000
   122 H61     10.0042  -0.9249   1.0095   H         2 RES2   0.0000
   123 C48      8.6433   0.2600   1.9260   C.ar      2 RES2   0.0000
   124 H62      9.0674   1.0584   1.7091   H         2 RES2   0.0000
   125 Br1      7.3437  23.2414   0.1603   Br        3 RES3  -1.0000
@<TRIPOS>BOND
     1     1     2    1
     2     2    20    1
     3     3     4    1
     4     5     6    1
     5     7     1    1
     6     8     1    1
     7     9    10    1
     8    11    12    1
     9    13     1    1
    10    14     1    1
    11    15    16    1
    12    17    18    1
    13    19     1    1
    14    20    21    1
    15    22    20    1
    16    23    20    1
    17    24    23    1
    18    25    23    1
    19    26     3    1
    20    27    26    1
    21    28    26    1
    22    29     2    2
    23    30     5    1
    24    31     5    1
    25    32    31    1
    26    33    31    1
    27    34    31    1
    28    35    34    1
    29    36    34    1
    30    37     7    1
    31    38    37    1
    32    39    37    1
    33    40     8    1
    34    41    40    1
    35    42    40    1
    36    43    40    1
    37    44    43    1
    38    45    43    1
    39    46     9    1
    40    47    46    1
    41    48    46    1
    42    49     8    2
    43    50    11    1
    44    51    11    1
    45    52    51    1
    46    53    51    1
    47    54    51    1
    48    55    54    1
    49    56    54    1
    50    57    13    1
    51    58    57    1
    52    59    57    1
    53    60    14    1
    54    61    60    1
    55    62    60    1
    56    63    60    1
    57    64    63    1
    58    65    63    1
    59    66    15    1
    60    67    66    1
    61    68    66    1
    62    69    14    2
    63    70    17    1
    64    71    17    1
    65    72    71    1
    66    73    71    1
    67    74    71    1
    68    75    74    1
    69    76    74    1
    70    77    19    1
    71    78    77    1
    72    79    77    1
    73     3    29    1
    74     7    30    2
    75     9    49    1
    76    13    50    2
    77    15    69    1
    78    19    70    2
    79    23    26    1
    80    29    30    1
    81    34    37    1
    82    43    46    1
    83    49    50    1
    84    54    57    1
    85    63    66    1
    86    69    70    1
    87    74    77    1
    88    80    81    1
    89    81    82   ar
    90    82    83    1
    91    84    82   ar
    92    85    84    1
    93    86    84   ar
    94    87    86    1
    95    88    86   ar
    96    89    88    1
    97    90    81   ar
    98    91    90    1
    99    92    80    1
   100    93    92   ar
   101    94    93    1
   102    95    93   ar
   103    96    95    1
   104    97    95   ar
   105    98    97    1
   106    99    97   ar
   107   100    99    1
   108   101    92   ar
   109   102   101    1
   110   103    80    1
   111   104   103   ar
   112   105   104    1
   113   106   104   ar
   114   107   106    1
   115   108   106   ar
   116   109   108    1
   117   110   108   ar
   118   111   110    1
   119   112   103   ar
   120   113   112    1
   121   114    80    1
   122   115   114   ar
   123   116   115    1
   124   117   115   ar
   125   118   117    1
   126   119   117   ar
   127   120   119    1
   128   121   119   ar
   129   122   121    1
   130   123   114   ar
   131   124   123    1
   132    88    90   ar
   133    99   101   ar
   134   110   112   ar
   135   121   123   ar
@<TRIPOS>SUBSTRUCTURE
     1 RES1        1 GROUP             0 ****  ****    0  
     2 RES2       80 GROUP             0 ****  ****    0  
     3 RES3      125 GROUP             0 ****  ****    0  
@<TRIPOS>CRYSIN
    9.4246   31.7843   16.3078   90.0000   90.0000   90.0000    14     1
