@<TRIPOS>MOLECULE
QOVHUG
   117   124     2     0     0
SMALL
USER_CHARGES
****
Generated from the CSD

@<TRIPOS>ATOM
     1 Fe1      5.5577   6.5157   9.9777   Fe        1 RES1   0.0000
     2 N1       8.9481   7.2364  13.4972   N.pl3     1 RES1   0.0000
     3 H1       9.5845   6.9791  13.5346   H         1 RES1   0.0000
     4 C1       8.0654   6.8431  14.6143   C.3       1 RES1   0.0000
     5 C2       8.4320   7.6108  15.8810   C.3       1 RES1   0.0000
     6 H2       7.8516   7.3432  16.5959   H         1 RES1   0.0000
     7 H3       8.3358   8.5524  15.7240   H         1 RES1   0.0000
     8 H4       9.3419   7.4181  16.1188   H         1 RES1   0.0000
     9 C3       8.2273   5.3573  14.8626   C.3       1 RES1   0.0000
    10 H5       7.6574   5.0894  15.5864   H         1 RES1   0.0000
    11 H6       9.1410   5.1680  15.0884   H         1 RES1   0.0000
    12 H7       7.9873   4.8718  14.0700   H         1 RES1   0.0000
    13 C4       6.6770   7.2113  14.0101   C.3       1 RES1   0.0000
    14 C5       5.5234   6.3069  14.3945   C.3       1 RES1   0.0000
    15 H8       5.3292   6.4166  15.3277   H         1 RES1   0.0000
    16 H9       5.7621   5.3932  14.2210   H         1 RES1   0.0000
    17 H10      4.7491   6.5390  13.8770   H         1 RES1   0.0000
    18 C6       6.3017   8.6658  14.2075   C.3       1 RES1   0.0000
    19 H11      6.0844   8.8169  15.1303   H         1 RES1   0.0000
    20 H12      5.5408   8.8775  13.6617   H         1 RES1   0.0000
    21 H13      7.0418   9.2236  13.9578   H         1 RES1   0.0000
    22 N2       6.9954   7.0597  12.5610   N.pl3     1 RES1   1.0000
    23 O1       5.9717   7.3211  11.7135   O.3       1 RES1  -1.0000
    24 C7       8.2814   7.2068  12.3366   C.2       1 RES1   0.0000
    25 C8       8.9696   7.3849  11.0580   C.ar      1 RES1   0.0000
    26 C9       8.4923   6.7487   9.8556   C.ar      1 RES1   0.0000
    27 O2       7.4378   6.0248   9.8143   O.3       1 RES1   0.0000
    28 C10      9.3094   6.9177   8.7175   C.ar      1 RES1   0.0000
    29 H14      9.0684   6.4830   7.9323   H         1 RES1   0.0000
    30 C11     10.4112   7.6703   8.7100   C.ar      1 RES1   0.0000
    31 H15     10.9156   7.7537   7.9338   H         1 RES1   0.0000
    32 C12     10.8016   8.3313   9.8720   C.ar      1 RES1   0.0000
    33 N3      11.9602   9.1940   9.8466   N.pl3     1 RES1   0.0000
    34 O3      12.1870   9.9356  10.8082   O.2       1 RES1   0.0000
    35 O4      12.6993   9.1700   8.8670   O.2       1 RES1   0.0000
    36 C13     10.0982   8.1772  11.0565   C.ar      1 RES1   0.0000
    37 H16     10.3828   8.5989  11.8356   H         1 RES1   0.0000
    38 N4       5.0719   4.5049  10.7230   N.2       1 RES1   0.0000
    39 C14      5.8238   3.2098  10.5390   C.3       1 RES1   0.0000
    40 C15      6.5950   3.1390   9.2484   C.3       1 RES1   0.0000
    41 H17      7.0548   2.2987   9.1960   H         1 RES1   0.0000
    42 H18      7.2327   3.8564   9.2170   H         1 RES1   0.0000
    43 H19      5.9882   3.2173   8.5096   H         1 RES1   0.0000
    44 C16      6.8202   3.1671  11.7055   C.3       1 RES1   0.0000
    45 H20      6.3427   3.2104  12.5370   H         1 RES1   0.0000
    46 H21      7.4197   3.9143  11.6412   H         1 RES1   0.0000
    47 H22      7.3234   2.3496  11.6681   H         1 RES1   0.0000
    48 C17      4.7195   2.1607  10.6482   C.3       1 RES1   0.0000
    49 C18      4.0039   1.8974   9.3441   C.3       1 RES1   0.0000
    50 H23      4.5889   1.4223   8.7489   H         1 RES1   0.0000
    51 H24      3.7502   2.7334   8.9433   H         1 RES1   0.0000
    52 H25      3.2200   1.3707   9.5101   H         1 RES1   0.0000
    53 C19      5.1281   0.8640  11.3047   C.3       1 RES1   0.0000
    54 H26      5.7565   0.4051  10.7409   H         1 RES1   0.0000
    55 H27      4.3538   0.3130  11.4348   H         1 RES1   0.0000
    56 H28      5.5370   1.0496  12.1527   H         1 RES1   0.0000
    57 N5       3.7503   2.8923  11.4976   N.pl3     1 RES1   1.0000
    58 O5       2.7555   2.3381  12.0435   O.3       1 RES1  -1.0000
    59 C20      3.9594   4.2551  11.3645   C.2       1 RES1   0.0000
    60 C21      3.0212   5.2305  11.9164   C.ar      1 RES1   0.0000
    61 C22      2.9695   6.5319  11.3436   C.ar      1 RES1   0.0000
    62 O6       3.6907   6.8780  10.3299   O.3       1 RES1   0.0000
    63 C23      2.0415   7.4375  11.9014   C.ar      1 RES1   0.0000
    64 H29      1.9826   8.2948  11.5470   H         1 RES1   0.0000
    65 C24      1.2352   7.1048  12.9334   C.ar      1 RES1   0.0000
    66 H30      0.6394   7.7286  13.2803   H         1 RES1   0.0000
    67 C25      1.3034   5.8344  13.4673   C.ar      1 RES1   0.0000
    68 N6       0.4364   5.4728  14.5560   N.pl3     1 RES1   0.0000
    69 O7       0.5686   4.3871  15.0899   O.2       1 RES1   0.0000
    70 O8      -0.4160   6.2924  14.9119   O.2       1 RES1   0.0000
    71 C26      2.1873   4.9219  12.9857   C.ar      1 RES1   0.0000
    72 H31      2.2351   4.0801  13.3760   H         1 RES1   0.0000
    73 N7       5.7833   8.4898   9.0225   N.2       1 RES1   0.0000
    74 C27      5.6378   9.8635   9.6208   C.3       1 RES1   0.0000
    75 C28      4.5093   9.9284  10.6287   C.3       1 RES1   0.0000
    76 H32      4.4408  10.8194  10.9772   H         1 RES1   0.0000
    77 H33      4.6868   9.3164  11.3466   H         1 RES1   0.0000
    78 H34      3.6831   9.6879  10.2010   H         1 RES1   0.0000
    79 C29      6.9767  10.1687  10.3147   C.3       1 RES1   0.0000
    80 H35      6.9382  11.0407  10.7140   H         1 RES1   0.0000
    81 H36      7.6850  10.1430   9.6686   H         1 RES1   0.0000
    82 H37      7.1412   9.5122  10.9951   H         1 RES1   0.0000
    83 C30      5.4064  10.7690   8.3989   C.3       1 RES1   0.0000
    84 C31      6.0581  12.1359   8.4258   C.3       1 RES1   0.0000
    85 H38      5.6399  12.6778   9.0988   H         1 RES1   0.0000
    86 H39      5.9563  12.5555   7.5689   H         1 RES1   0.0000
    87 H40      6.9927  12.0413   8.6262   H         1 RES1   0.0000
    88 C32      3.9254  10.8908   8.0041   C.3       1 RES1   0.0000
    89 H41      3.4637  11.4249   8.6561   H         1 RES1   0.0000
    90 H42      3.5299  10.0168   7.9697   H         1 RES1   0.0000
    91 H43      3.8561  11.3074   7.1427   H         1 RES1   0.0000
    92 N8       6.0611   9.9317   7.3505   N.pl3     1 RES1   1.0000
    93 O9       6.2609  10.3666   6.1915   O.3       1 RES1  -1.0000
    94 C33      6.0959   8.6036   7.7768   C.2       1 RES1   0.0000
    95 C34      6.3975   7.5196   6.8436   C.ar      1 RES1   0.0000
    96 C35      5.8642   6.2207   7.1008   C.ar      1 RES1   0.0000
    97 O10      5.1807   5.9458   8.1669   O.3       1 RES1   0.0000
    98 C36      6.0579   5.2279   6.1122   C.ar      1 RES1   0.0000
    99 H44      5.6501   4.3998   6.2169   H         1 RES1   0.0000
   100 C37      6.8292   5.4556   5.0026   C.ar      1 RES1   0.0000
   101 H45      6.9731   4.7771   4.3834   H         1 RES1   0.0000
   102 C38      7.3906   6.7029   4.8156   C.ar      1 RES1   0.0000
   103 N9       8.1973   6.9372   3.6386   N.pl3     1 RES1   0.0000
   104 O11      8.6821   8.0532   3.4816   O.2       1 RES1   0.0000
   105 O12      8.3971   6.0110   2.8684   O.2       1 RES1   0.0000
   106 C39      7.1719   7.7276   5.7010   C.ar      1 RES1   0.0000
   107 H46      7.5406   8.5668   5.5394   H         1 RES1   0.0000
   108 O13      9.9643  10.3135  13.4732   O.2       2 RES2   0.0000
   109 C40     10.4453  11.3451  13.1487   C.2       2 RES2   0.0000
   110 C41      9.9469  12.1833  12.0659   C.3       2 RES2   0.0000
   111 H47     10.5033  12.9619  11.9822   H         2 RES2   0.0000
   112 H48      9.0463  12.4530  12.2589   H         2 RES2   0.0000
   113 H49      9.9641  11.6877  11.2434   H         2 RES2   0.0000
   114 C42     11.6940  11.8208  13.8142   C.3       2 RES2   0.0000
   115 H50     11.9588  12.6609  13.4344   H         2 RES2   0.0000
   116 H51     12.3928  11.1748  13.6841   H         2 RES2   0.0000
   117 H52     11.5328  11.9318  14.7549   H         2 RES2   0.0000
@<TRIPOS>BOND
     1     1    23    1
     2     2     3    1
     3     4     2    1
     4     5     4    1
     5     6     5    1
     6     7     5    1
     7     8     5    1
     8     9     4    1
     9    10     9    1
    10    11     9    1
    11    12     9    1
    12    13     4    1
    13    14    13    1
    14    15    14    1
    15    16    14    1
    16    17    14    1
    17    18    13    1
    18    19    18    1
    19    20    18    1
    20    21    18    1
    21    22    13    1
    22    23    22    1
    23    24     2    1
    24    25    24    1
    25    26    25   ar
    26    27     1    1
    27    28    26   ar
    28    29    28    1
    29    30    28   ar
    30    31    30    1
    31    32    30   ar
    32    33    32    1
    33    34    33    2
    34    35    33    2
    35    36    25   ar
    36    37    36    1
    37    38     1    1
    38    39    38    1
    39    40    39    1
    40    41    40    1
    41    42    40    1
    42    43    40    1
    43    44    39    1
    44    45    44    1
    45    46    44    1
    46    47    44    1
    47    48    39    1
    48    49    48    1
    49    50    49    1
    50    51    49    1
    51    52    49    1
    52    53    48    1
    53    54    53    1
    54    55    53    1
    55    56    53    1
    56    57    48    1
    57    58    57    1
    58    59    38    1
    59    60    59    1
    60    61    60   ar
    61    62     1    1
    62    63    61   ar
    63    64    63    1
    64    65    63   ar
    65    66    65    1
    66    67    65   ar
    67    68    67    1
    68    69    68    2
    69    70    68    2
    70    71    60   ar
    71    72    71    1
    72    73     1    1
    73    74    73    1
    74    75    74    1
    75    76    75    1
    76    77    75    1
    77    78    75    1
    78    79    74    1
    79    80    79    1
    80    81    79    1
    81    82    79    1
    82    83    74    1
    83    84    83    1
    84    85    84    1
    85    86    84    1
    86    87    84    1
    87    88    83    1
    88    89    88    1
    89    90    88    1
    90    91    88    1
    91    92    83    1
    92    93    92    1
    93    94    73    1
    94    95    94    1
    95    96    95   ar
    96    97     1    1
    97    98    96   ar
    98    99    98    1
    99   100    98   ar
   100   101   100    1
   101   102   100   ar
   102   103   102    1
   103   104   103    2
   104   105   103    2
   105   106    95   ar
   106   107   106    1
   107    22    24    2
   108    26    27    1
   109    32    36   ar
   110    57    59    2
   111    61    62    1
   112    67    71   ar
   113    92    94    2
   114    96    97    1
   115   102   106   ar
   116   108   109    2
   117   109   110    1
   118   110   111    1
   119   112   110    1
   120   113   110    1
   121   114   109    1
   122   115   114    1
   123   116   114    1
   124   117   114    1
@<TRIPOS>SUBSTRUCTURE
     1 RES1        1 GROUP             0 ****  ****    0  
     2 RES2      108 GROUP             0 ****  ****    0  
@<TRIPOS>CRYSIN
   11.9420   13.0650   15.3140   97.7600   97.6500  102.9100     2     1
