@<TRIPOS>MOLECULE
QOZNOL
   123   133     4     0     0
SMALL
USER_CHARGES
****
Generated from the CSD

@<TRIPOS>ATOM
     1 Fe1      3.3370   9.8754  13.5748   Fe        1 RES1   2.0000
     2 C1       2.5762   9.3129   9.4700   C.ar      1 RES1   0.0000
     3 H1       1.6872   8.9857   9.5472   H         1 RES1   0.0000
     4 C2       3.5754   8.4873   8.9774   C.ar      1 RES1   0.0000
     5 H2       3.3658   7.5938   8.7348   H         1 RES1   0.0000
     6 C3       4.8721   8.9454   8.8377   C.ar      1 RES1   0.0000
     7 H3       5.5460   8.3791   8.4793   H         1 RES1   0.0000
     8 C4       5.1744  10.2341   9.2219   C.ar      1 RES1   0.0000
     9 H4       6.0656  10.5538   9.1392   H         1 RES1   0.0000
    10 C5       4.1802  11.0735   9.7311   C.ar      1 RES1   0.0000
    11 H5       4.3988  11.9595   9.9976   H         1 RES1   0.0000
    12 C6       2.8668  10.6167   9.8505   C.ar      1 RES1   0.0000
    13 C7       1.7779  11.5530  10.3156   C.3       1 RES1   0.0000
    14 H6       1.1969  11.7569   9.5399   H         1 RES1   0.0000
    15 H7       2.2022  12.4013  10.5968   H         1 RES1   0.0000
    16 C8       0.8953  11.0660  11.4515   C.3       1 RES1   0.0000
    17 H8       0.5084  10.1750  11.2144   H         1 RES1   0.0000
    18 C9      -0.2441  12.0464  11.7898   C.3       1 RES1   0.0000
    19 H9      -0.1066  12.9160  11.3376   H         1 RES1   0.0000
    20 H10     -1.1196  11.6776  11.5122   H         1 RES1   0.0000
    21 C10      0.9463  11.5845  13.6169   C.2       1 RES1   0.0000
    22 C11      1.3414  11.6260  15.0359   C.ar      1 RES1   0.0000
    23 C12      0.7316  12.3106  16.0616   C.ar      1 RES1   0.0000
    24 H11     -0.0561  12.8191  15.9090   H         1 RES1   0.0000
    25 C13      1.2924  12.2402  17.3170   C.ar      1 RES1   0.0000
    26 H12      0.9213  12.7398  18.0339   H         1 RES1   0.0000
    27 C14      2.4016  11.4372  17.5321   C.ar      1 RES1   0.0000
    28 H13      2.7887  11.3643  18.3960   H         1 RES1   0.0000
    29 C15      2.9284  10.7463  16.4605   C.ar      1 RES1   0.0000
    30 C16      4.0318   9.7647  16.4862   C.2       1 RES1   0.0000
    31 C17      5.7143   8.5490  17.2803   C.3       1 RES1   0.0000
    32 H14      5.6216   7.7284  17.8280   H         1 RES1   0.0000
    33 H15      6.6146   8.9328  17.4291   H         1 RES1   0.0000
    34 C18      5.4853   8.2407  15.7822   C.3       1 RES1   0.0000
    35 H16      6.3058   8.4684  15.2583   H         1 RES1   0.0000
    36 C19      5.0758   6.7997  15.5083   C.3       1 RES1   0.0000
    37 H17      4.7602   6.7342  14.5727   H         1 RES1   0.0000
    38 H18      4.3124   6.5731  16.0965   H         1 RES1   0.0000
    39 C20      6.1776   5.7652  15.7234   C.ar      1 RES1   0.0000
    40 C21      7.5394   6.0735  15.7270   C.ar      1 RES1   0.0000
    41 H19      7.8207   6.9746  15.6186   H         1 RES1   0.0000
    42 C22      8.4852   5.0718  15.8870   C.ar      1 RES1   0.0000
    43 H20      9.4086   5.2920  15.8888   H         1 RES1   0.0000
    44 C23      8.0924   3.7428  16.0450   C.ar      1 RES1   0.0000
    45 H21      8.7412   3.0556  16.1406   H         1 RES1   0.0000
    46 C24      6.7419   3.4420  16.0579   C.ar      1 RES1   0.0000
    47 H22      6.4595   2.5409  16.1682   H         1 RES1   0.0000
    48 C25      5.7991   4.4475  15.9127   C.ar      1 RES1   0.0000
    49 H23      4.8760   4.2273  15.9439   H         1 RES1   0.0000
    50 C26      3.3601  14.6124  15.4164   C.ar      1 RES1   0.0000
    51 H24      4.1296  14.3305  15.8980   H         1 RES1   0.0000
    52 C27      2.3266  15.2467  16.0836   C.ar      1 RES1   0.0000
    53 H25      2.4046  15.4229  17.0137   H         1 RES1   0.0000
    54 C28      1.1884  15.6243  15.4109   C.ar      1 RES1   0.0000
    55 H26      0.4796  16.0522  15.8759   H         1 RES1   0.0000
    56 C29      1.0805  15.3801  14.0727   C.ar      1 RES1   0.0000
    57 H27      0.2861  15.6230  13.6132   H         1 RES1   0.0000
    58 C30      2.1220  14.7798  13.3779   C.ar      1 RES1   0.0000
    59 H28      2.0452  14.6376  12.4423   H         1 RES1   0.0000
    60 C31      3.2825  14.3834  14.0488   C.ar      1 RES1   0.0000
    61 C32      4.4849  13.9089  13.2676   C.3       1 RES1   0.0000
    62 H29      5.0626  14.6955  13.0985   H         1 RES1   0.0000
    63 H30      4.1651  13.5868  12.3872   H         1 RES1   0.0000
    64 C33      5.3559  12.8128  13.8779   C.3       1 RES1   0.0000
    65 H31      5.2817  12.8455  14.8741   H         1 RES1   0.0000
    66 C34      6.8534  12.9412  13.4643   C.3       1 RES1   0.0000
    67 H32      6.9682  13.6371  12.7695   H         1 RES1   0.0000
    68 H33      7.4142  13.1740  14.2455   H         1 RES1   0.0000
    69 C35      6.0709  10.9225  12.9459   C.2       1 RES1   0.0000
    70 C36      6.1195   9.5608  12.4313   C.ar      1 RES1   0.0000
    71 C37      7.2303   8.9077  11.9313   C.ar      1 RES1   0.0000
    72 H34      8.0719   9.3456  11.8872   H         1 RES1   0.0000
    73 C38      7.0915   7.5963  11.4938   C.ar      1 RES1   0.0000
    74 H35      7.8503   7.1156  11.1850   H         1 RES1   0.0000
    75 C39      5.8461   6.9897  11.5085   C.ar      1 RES1   0.0000
    76 H36      5.7230   6.1050  11.1887   H         1 RES1   0.0000
    77 C40      4.7840   7.7310  12.0140   C.ar      1 RES1   0.0000
    78 C41      3.3875   7.2817  12.0949   C.2       1 RES1   0.0000
    79 C42      1.5770   6.0697  11.6023   C.3       1 RES1   0.0000
    80 H37      1.3048   5.1800  11.9405   H         1 RES1   0.0000
    81 H38      1.1262   6.2371  10.7365   H         1 RES1   0.0000
    82 C43      1.2327   7.1709  12.6224   C.3       1 RES1   0.0000
    83 H39      0.5140   7.7624  12.2566   H         1 RES1   0.0000
    84 C44      0.7974   6.5882  13.9514   C.3       1 RES1   0.0000
    85 H40      0.0576   5.9502  13.7878   H         1 RES1   0.0000
    86 H41      1.5540   6.0748  14.3319   H         1 RES1   0.0000
    87 C45      0.3416   7.5938  14.9771   C.ar      1 RES1   0.0000
    88 C46      0.7971   7.5346  16.2895   C.ar      1 RES1   0.0000
    89 H42      1.4621   6.8991  16.5303   H         1 RES1   0.0000
    90 C47      0.2875   8.3942  17.2472   C.ar      1 RES1   0.0000
    91 H43      0.6050   8.3376  18.1405   H         1 RES1   0.0000
    92 C48     -0.6678   9.3305  16.9292   C.ar      1 RES1   0.0000
    93 H44     -1.0114   9.9145  17.5964   H         1 RES1   0.0000
    94 C49     -1.1246   9.4111  15.6241   C.ar      1 RES1   0.0000
    95 H45     -1.7855  10.0529  15.3888   H         1 RES1   0.0000
    96 C50     -0.6171   8.5565  14.6664   C.ar      1 RES1   0.0000
    97 H46     -0.9293   8.6258  13.7713   H         1 RES1   0.0000
    98 N1       1.6390  10.9565  12.7401   N.2       1 RES1   0.0000
    99 N2       2.4213  10.8546  15.2307   N.ar      1 RES1   0.0000
   100 N3       4.3803   9.1556  15.4146   N.2       1 RES1   0.0000
   101 N4       5.0024  11.4498  13.4018   N.2       1 RES1   0.0000
   102 N5       4.9169   8.9744  12.4772   N.ar      1 RES1   0.0000
   103 N6       2.5029   7.9336  12.7474   N.2       1 RES1   0.0000
   104 O1      -0.1819  12.2012  13.2400   O.3       1 RES1   0.0000
   105 O2       4.6704   9.5218  17.6196   O.3       1 RES1   0.0000
   106 O3       7.2067  11.6323  12.9478   O.3       1 RES1   0.0000
   107 O4       3.0373   6.1541  11.4589   O.3       1 RES1   0.0000
   108 C51      8.0440   4.1644  12.3743   C.3       2 RES2   0.0000
   109 H47      8.4207   3.3426  12.7511   H         2 RES2   0.0000
   110 H48      7.3859   3.9366  11.6850   H         2 RES2   0.0000
   111 H49      7.6083   4.6804  13.0856   H         2 RES2   0.0000
   112 O5       9.0799   4.9371  11.7990   O.3       2 RES2   0.0000
   113 H50      9.5423   4.4526  11.2935   H         2 RES2   0.0000
   114 Cl1      0.9596   2.8387   9.4825   Cl        3 RES3   0.0000
   115 O6       1.1264   4.1719   8.9811   O.2       3 RES3   0.0000
   116 O7       2.2291   2.3056   9.8910   O.2       3 RES3   0.0000
   117 O8       0.3910   2.0086   8.4444   O.3       3 RES3  -1.0000
   118 O9       0.0788   2.8694  10.6152   O.2       3 RES3   0.0000
   119 Cl2      7.0533  12.1321  17.2317   Cl        4 RES4   0.0000
   120 O10      5.8614  12.8984  17.4604   O.2       4 RES4   0.0000
   121 O11      6.7928  11.1918  16.1700   O.3       4 RES4  -1.0000
   122 O12      8.1088  13.0204  16.8152   O.2       4 RES4   0.0000
   123 O13      7.4484  11.4247  18.4107   O.2       4 RES4   0.0000
@<TRIPOS>BOND
     1     1    98    1
     2     2     3    1
     3     4     2   ar
     4     5     4    1
     5     6     4   ar
     6     7     6    1
     7     8     6   ar
     8     9     8    1
     9    10     8   ar
    10    11    10    1
    11    12     2   ar
    12    13    12    1
    13    14    13    1
    14    15    13    1
    15    16    13    1
    16    17    16    1
    17    18    16    1
    18    19    18    1
    19    20    18    1
    20    21    22    1
    21    22    23   ar
    22    23    24    1
    23    25    23   ar
    24    26    25    1
    25    27    25   ar
    26    28    27    1
    27    29    27   ar
    28    30    29    1
    29    31    32    1
    30    33    31    1
    31    34    31    1
    32    35    34    1
    33    36    34    1
    34    37    36    1
    35    38    36    1
    36    39    36    1
    37    40    39   ar
    38    41    40    1
    39    42    40   ar
    40    43    42    1
    41    44    42   ar
    42    45    44    1
    43    46    44   ar
    44    47    46    1
    45    48    39   ar
    46    49    48    1
    47    50    51    1
    48    52    50   ar
    49    53    52    1
    50    54    52   ar
    51    55    54    1
    52    56    54   ar
    53    57    56    1
    54    58    56   ar
    55    59    58    1
    56    60    50   ar
    57    61    60    1
    58    62    61    1
    59    63    61    1
    60    64    61    1
    61    65    64    1
    62    66    64    1
    63    67    66    1
    64    68    66    1
    65    69    70    1
    66    70    71   ar
    67    71    72    1
    68    73    71   ar
    69    74    73    1
    70    75    73   ar
    71    76    75    1
    72    77    75   ar
    73    78    77    1
    74    79    80    1
    75    81    79    1
    76    82    79    1
    77    83    82    1
    78    84    82    1
    79    85    84    1
    80    86    84    1
    81    87    84    1
    82    88    87   ar
    83    89    88    1
    84    90    88   ar
    85    91    90    1
    86    92    90   ar
    87    93    92    1
    88    94    92   ar
    89    95    94    1
    90    96    87   ar
    91    97    96    1
    92    98    16    1
    93    99     1    1
    94   100     1    1
    95   101     1    1
    96   102     1    1
    97   103     1    1
    98   104    18    1
    99   105    30    1
   100   106    66    1
   101   107    78    1
   102    10    12   ar
   103    21    98    2
   104    21   104    1
   105    22    99   ar
   106    29    99   ar
   107    30   100    2
   108    31   105    1
   109    34   100    1
   110    46    48   ar
   111    58    60   ar
   112    64   101    1
   113    69   101    2
   114    69   106    1
   115    70   102   ar
   116    77   102   ar
   117    78   103    2
   118    79   107    1
   119    82   103    1
   120    94    96   ar
   121   108   109    1
   122   110   108    1
   123   111   108    1
   124   112   108    1
   125   113   112    1
   126   114   115    2
   127   116   114    2
   128   117   114    1
   129   118   114    2
   130   119   120    2
   131   121   119    1
   132   122   119    2
   133   123   119    2
@<TRIPOS>SUBSTRUCTURE
     1 RES1        1 GROUP             0 ****  ****    0  
     2 RES2      108 GROUP             0 ****  ****    0  
     3 RES3      114 GROUP             0 ****  ****    0  
     4 RES4      119 GROUP             0 ****  ****    0  
@<TRIPOS>CRYSIN
   10.6150   12.5850   18.3850   90.0000   91.1500   90.0000     4     1
