@<TRIPOS>MOLECULE
QOZZUB
   100   107     1     0     0
SMALL
NO_CHARGES
****
Generated from the CSD

@<TRIPOS>ATOM
     1 Br1     -5.6298   1.9827  -6.3791   Br        1 RES1   0.0000
     2 Fe1     -3.6431   1.5120  -4.9705   Fe        1 RES1   0.0000
     3 O1      -4.6130   1.4830  -3.3284   O.3       1 RES1   0.0000
     4 C1      -4.1669   1.7494  -2.1146   C.ar      1 RES1   0.0000
     5 C2      -4.9961   2.4266  -1.1629   C.ar      1 RES1   0.0000
     6 C3      -4.4384   2.7294   0.0738   C.ar      1 RES1   0.0000
     7 H1      -4.9793   3.2021   0.6959   H         1 RES1   0.0000
     8 C4      -3.1278   2.3872   0.4738   C.ar      1 RES1   0.0000
     9 C5      -2.3692   1.6776  -0.4270   C.ar      1 RES1   0.0000
    10 H2      -1.4978   1.3907  -0.1783   H         1 RES1   0.0000
    11 C6      -2.8604   1.3656  -1.7151   C.ar      1 RES1   0.0000
    12 C7      -1.9549   0.6678  -2.5864   C.2       1 RES1   0.0000
    13 H3      -1.1655   0.3184  -2.1891   H         1 RES1   0.0000
    14 N1      -2.1047   0.4663  -3.8598   N.2       1 RES1   0.0000
    15 C8      -1.0592  -0.2349  -4.5302   C.ar      1 RES1   0.0000
    16 C9       0.2021   0.3352  -4.6783   C.ar      1 RES1   0.0000
    17 H4       0.3834   1.1884  -4.3030   H         1 RES1   0.0000
    18 C10      1.1985  -0.3434  -5.3750   C.ar      1 RES1   0.0000
    19 H5       2.0645   0.0387  -5.4518   H         1 RES1   0.0000
    20 C11      0.9318  -1.5785  -5.9589   C.ar      1 RES1   0.0000
    21 H6       1.6121  -2.0348  -6.4397   H         1 RES1   0.0000
    22 C12     -0.3361  -2.1428  -5.8351   C.ar      1 RES1   0.0000
    23 H7      -0.5249  -2.9771  -6.2474   H         1 RES1   0.0000
    24 C13     -1.3297  -1.4871  -5.1080   C.ar      1 RES1   0.0000
    25 S1      -2.8762  -2.3062  -4.8653   S.3       1 RES1   0.0000
    26 C14     -6.4440   2.8165  -1.5053   C.3       1 RES1   0.0000
    27 C15     -7.1426   3.5140  -0.3259   C.3       1 RES1   0.0000
    28 H8      -7.1527   2.9140   0.4494   H         1 RES1   0.0000
    29 H9      -8.0631   3.7377  -0.5770   H         1 RES1   0.0000
    30 H10     -6.6573   4.3348  -0.0979   H         1 RES1   0.0000
    31 C16     -7.2489   1.5485  -1.8378   C.3       1 RES1   0.0000
    32 H11     -6.8780   1.1269  -2.6402   H         1 RES1   0.0000
    33 H12     -8.1849   1.7887  -1.9985   H         1 RES1   0.0000
    34 H13     -7.1973   0.9214  -1.0858   H         1 RES1   0.0000
    35 C17     -6.4813   3.7854  -2.7032   C.3       1 RES1   0.0000
    36 H14     -5.9623   4.5891  -2.4899   H         1 RES1   0.0000
    37 H15     -7.4094   4.0364  -2.8920   H         1 RES1   0.0000
    38 H16     -6.0958   3.3465  -3.4900   H         1 RES1   0.0000
    39 C18     -2.6144   2.8315   1.8473   C.3       1 RES1   0.0000
    40 C19     -1.1843   2.3454   2.1113   C.3       1 RES1   0.0000
    41 H17     -1.1601   1.3667   2.0737   H         1 RES1   0.0000
    42 H18     -0.8956   2.6464   2.9987   H         1 RES1   0.0000
    43 H19     -0.5833   2.7123   1.4303   H         1 RES1   0.0000
    44 C20     -3.5302   2.2642   2.9481   C.3       1 RES1   0.0000
    45 H20     -3.5235   1.2857   2.9060   H         1 RES1   0.0000
    46 H21     -4.4442   2.5905   2.8133   H         1 RES1   0.0000
    47 H22     -3.2056   2.5560   3.8257   H         1 RES1   0.0000
    48 C21     -2.6391   4.3689   1.9186   C.3       1 RES1   0.0000
    49 H23     -2.3270   4.6600   2.8011   H         1 RES1   0.0000
    50 H24     -3.5542   4.6877   1.7747   H         1 RES1   0.0000
    51 H25     -2.0524   4.7376   1.2257   H         1 RES1   0.0000
    52 O2      -2.7559   3.1706  -4.7214   O.3       1 RES1   0.0000
    53 C22     -1.6703   3.7311  -5.2224   C.ar      1 RES1   0.0000
    54 C23     -1.1580   4.9466  -4.6676   C.ar      1 RES1   0.0000
    55 C24     -0.0349   5.5053  -5.2731   C.ar      1 RES1   0.0000
    56 H26      0.3101   6.3087  -4.9028   H         1 RES1   0.0000
    57 C25      0.6297   4.9646  -6.3979   C.ar      1 RES1   0.0000
    58 C26      0.1297   3.7861  -6.9081   C.ar      1 RES1   0.0000
    59 H27      0.5573   3.3848  -7.6549   H         1 RES1   0.0000
    60 C27     -1.0085   3.1606  -6.3426   C.ar      1 RES1   0.0000
    61 C28     -1.4802   2.0071  -7.0552   C.2       1 RES1   0.0000
    62 H28     -0.9732   1.7533  -7.8175   H         1 RES1   0.0000
    63 N2      -2.5163   1.2656  -6.7868   N.2       1 RES1   0.0000
    64 C29     -2.8771   0.2732  -7.7484   C.ar      1 RES1   0.0000
    65 C30     -2.5327   0.3828  -9.1037   C.ar      1 RES1   0.0000
    66 H29     -2.0708   1.1542  -9.4139   H         1 RES1   0.0000
    67 C31     -2.8623  -0.6297  -9.9965   C.ar      1 RES1   0.0000
    68 H30     -2.6049  -0.5524 -10.9071   H         1 RES1   0.0000
    69 C32     -3.5631  -1.7527  -9.5756   C.ar      1 RES1   0.0000
    70 H31     -3.7593  -2.4513 -10.1885   H         1 RES1   0.0000
    71 C33     -3.9738  -1.8452  -8.2527   C.ar      1 RES1   0.0000
    72 H32     -4.4768  -2.5968  -7.9626   H         1 RES1   0.0000
    73 C34     -3.6471  -0.8319  -7.3493   C.ar      1 RES1   0.0000
    74 S2      -4.2240  -0.9434  -5.6800   S.3       1 RES1   0.0000
    75 C35     -1.8171   5.6134  -3.4475   C.3       1 RES1   0.0000
    76 C36     -1.1108   6.9170  -3.0499   C.3       1 RES1   0.0000
    77 H33     -1.5720   7.3177  -2.2835   H         1 RES1   0.0000
    78 H34     -1.1290   7.5415  -3.8047   H         1 RES1   0.0000
    79 H35     -0.1813   6.7239  -2.8081   H         1 RES1   0.0000
    80 C37     -3.2885   5.9642  -3.7400   C.3       1 RES1   0.0000
    81 H36     -3.7714   5.1534  -4.0040   H         1 RES1   0.0000
    82 H37     -3.3292   6.6203  -4.4674   H         1 RES1   0.0000
    83 H38     -3.7007   6.3428  -2.9357   H         1 RES1   0.0000
    84 C38     -1.7440   4.6624  -2.2395   C.3       1 RES1   0.0000
    85 H39     -2.2317   3.8363  -2.4426   H         1 RES1   0.0000
    86 H40     -2.1465   5.0954  -1.4582   H         1 RES1   0.0000
    87 H41     -0.8073   4.4488  -2.0475   H         1 RES1   0.0000
    88 C39      1.8346   5.6924  -7.0046   C.3       1 RES1   0.0000
    89 C40      2.3734   4.9692  -8.2429   C.3       1 RES1   0.0000
    90 H42      1.6653   4.9039  -8.9173   H         1 RES1   0.0000
    91 H43      2.6694   4.0693  -7.9923   H         1 RES1   0.0000
    92 H44      3.1297   5.4718  -8.6113   H         1 RES1   0.0000
    93 C41      2.9571   5.8007  -5.9576   C.3       1 RES1   0.0000
    94 H45      3.2615   4.9029  -5.7106   H         1 RES1   0.0000
    95 H46      2.6176   6.2604  -5.1615   H         1 RES1   0.0000
    96 H47      3.7062   6.3076  -6.3330   H         1 RES1   0.0000
    97 C42      1.4116   7.1087  -7.4264   C.3       1 RES1   0.0000
    98 H48      2.1758   7.5714  -7.8297   H         1 RES1   0.0000
    99 H49      1.1067   7.6067  -6.6390   H         1 RES1   0.0000
   100 H50      0.6829   7.0515  -8.0798   H         1 RES1   0.0000
@<TRIPOS>BOND
     1     1     2    1
     2     2     3    1
     3     3     4    1
     4     4     5   ar
     5     5     6   ar
     6     6     7    1
     7     8     6   ar
     8     9     8   ar
     9    10     9    1
    10    11     4   ar
    11    12    11    1
    12    13    12    1
    13    14     2    1
    14    15    14    1
    15    16    15   ar
    16    17    16    1
    17    18    16   ar
    18    19    18    1
    19    20    18   ar
    20    21    20    1
    21    22    20   ar
    22    23    22    1
    23    24    15   ar
    24    25    24    1
    25    26     5    1
    26    27    26    1
    27    28    27    1
    28    29    27    1
    29    30    27    1
    30    31    26    1
    31    32    31    1
    32    33    31    1
    33    34    31    1
    34    35    26    1
    35    36    35    1
    36    37    35    1
    37    38    35    1
    38    39     8    1
    39    40    39    1
    40    41    40    1
    41    42    40    1
    42    43    40    1
    43    44    39    1
    44    45    44    1
    45    46    44    1
    46    47    44    1
    47    48    39    1
    48    49    48    1
    49    50    48    1
    50    51    48    1
    51    52     2    1
    52    53    52    1
    53    54    53   ar
    54    55    54   ar
    55    56    55    1
    56    57    55   ar
    57    58    57   ar
    58    59    58    1
    59    60    53   ar
    60    61    60    1
    61    62    61    1
    62    63     2    1
    63    64    63    1
    64    65    64   ar
    65    66    65    1
    66    67    65   ar
    67    68    67    1
    68    69    67   ar
    69    70    69    1
    70    71    69   ar
    71    72    71    1
    72    73    64   ar
    73    74     2    1
    74    75    54    1
    75    76    75    1
    76    77    76    1
    77    78    76    1
    78    79    76    1
    79    80    75    1
    80    81    80    1
    81    82    80    1
    82    83    80    1
    83    84    75    1
    84    85    84    1
    85    86    84    1
    86    87    84    1
    87    88    57    1
    88    89    88    1
    89    90    89    1
    90    91    89    1
    91    92    89    1
    92    93    88    1
    93    94    93    1
    94    95    93    1
    95    96    93    1
    96    97    88    1
    97    98    97    1
    98    99    97    1
    99   100    97    1
   100     9    11   ar
   101    12    14    2
   102    22    24   ar
   103    25    74    1
   104    58    60   ar
   105    61    63    2
   106    71    73   ar
   107    73    74    1
@<TRIPOS>SUBSTRUCTURE
     1 RES1        1 GROUP             0 ****  ****    0  
@<TRIPOS>CRYSIN
    9.5168   12.0611   18.5063  105.5250  100.8120   90.2880     2     1
