@<TRIPOS>MOLECULE
QUJJOW
   150   160     5     0     0
SMALL
USER_CHARGES
****
Generated from the CSD

@<TRIPOS>ATOM
     1 Fe1      5.9159   7.2101   3.9299   Fe        1 RES1   0.0000
     2 K1       3.1680   2.7967  -2.4585   K         1 RES1   0.0000
     3 C1       3.5641   4.4763   1.7491   C.2       1 RES1   0.0000
     4 Cl1      2.4165   3.7445   2.8530   Cl        1 RES1   0.0000
     5 C2       4.3939   5.4513   2.2522   C.2       1 RES1   0.0000
     6 O1       4.4269   5.8744   3.4462   O.2       1 RES1   0.0000
     7 C3       5.4109   6.0884   1.3109   C.2       1 RES1   0.0000
     8 O2       6.1715   6.9568   1.8736   O.3       1 RES1   0.0000
     9 C4       5.4607   5.7212  -0.0051   C.2       1 RES1   0.0000
    10 Cl2      6.6373   6.4288  -1.0754   Cl        1 RES1   0.0000
    11 C5       4.6235   4.7050  -0.5449   C.2       1 RES1   0.0000
    12 O3       4.6463   4.3161  -1.7250   O.2       1 RES1   0.0000
    13 C6       3.5966   4.0176   0.4116   C.2       1 RES1   0.0000
    14 O4       2.8893   3.1509  -0.0851   O.3       1 RES1   0.0000
    15 C7       8.2062   4.4279   6.1036   C.2       1 RES1   0.0000
    16 Cl3      9.3959   3.7360   5.0410   Cl        1 RES1   0.0000
    17 C8       7.3422   5.3964   5.5980   C.2       1 RES1   0.0000
    18 O5       7.3432   5.8173   4.4040   O.3       1 RES1  -1.0000
    19 C9       6.3271   6.0497   6.5393   C.2       1 RES1   0.0000
    20 O6       5.6119   6.9563   5.9715   O.2       1 RES1   0.0000
    21 C10      6.2557   5.6413   7.8439   C.2       1 RES1   0.0000
    22 Cl4      5.1146   6.3510   8.9307   Cl        1 RES1   0.0000
    23 C11      7.1247   4.6441   8.3786   C.2       1 RES1   0.0000
    24 O7       7.1010   4.2502   9.5498   O.2       1 RES1  -1.0000
    25 C12      8.1886   4.0128   7.4488   C.2       1 RES1   0.0000
    26 O8       8.9430   3.1766   7.9595   O.2       1 RES1   0.0000
    27 C13      7.6825  10.9406   3.3332   C.2       1 RES1   0.0000
    28 Cl5      9.4069  10.7499   3.3906   Cl        1 RES1   0.0000
    29 C14      6.8971   9.8348   3.5618   C.2       1 RES1   0.0000
    30 O9       7.3133   8.6649   3.8540   O.3       1 RES1   0.0000
    31 C15      5.3628   9.9721   3.5097   C.2       1 RES1   0.0000
    32 O10      4.7464   8.8613   3.7600   O.2       1 RES1   0.0000
    33 C16      4.8012  11.1778   3.2277   C.2       1 RES1   0.0000
    34 Cl6      3.0812  11.3612   3.1767   Cl        1 RES1   0.0000
    35 C17      5.5833  12.3510   2.9915   C.2       1 RES1   0.0000
    36 O11      5.1316  13.4662   2.7361   O.2       1 RES1   0.0000
    37 C18      7.1401  12.1987   3.0194   C.2       1 RES1   0.0000
    38 O12      7.7873  13.2386   2.7641   O.2       1 RES1   0.0000
    39 K1       8.7373   2.7967  10.2441   K         1 RES1   0.0000
    40 K1A      6.5647  15.2774   2.4585   K         1 RES1   0.0000
    41 O7       1.5317   4.2502  -3.1528   O.2       1 RES1  -1.0000
    42 O8       3.3737   3.1766  -4.7432   O.2       1 RES1   0.0000
    43 O11A     4.6011   0.9855  -2.7361   O.2       1 RES1   0.0000
    44 O12A     1.9454   0.7578  -2.7641   O.2       1 RES1   0.0000
    45 P1       0.4654  12.7176   7.4104   P.3       2 RES2   1.0000
    46 C19      0.4615  13.7014   8.9287   C.3       2 RES2   0.0000
    47 H1      -0.0475  13.2146   9.6235   H         2 RES2   0.0000
    48 H2       1.3931  13.7987   9.2488   H         2 RES2   0.0000
    49 C20     -0.1354  15.0643   8.7572   C.3       2 RES2   0.0000
    50 H3       0.4073  15.5810   8.1259   H         2 RES2   0.0000
    51 H4      -0.1546  15.5236   9.6235   H         2 RES2   0.0000
    52 H5      -1.0479  14.9819   8.4117   H         2 RES2   0.0000
    53 C21      1.5314  11.2746   7.5974   C.ar      2 RES2   0.0000
    54 C22      1.9375  10.8083   8.8321   C.ar      2 RES2   0.0000
    55 H6       1.6381  11.2302   9.6298   H         2 RES2   0.0000
    56 C23      2.7851   9.7150   8.8918   C.ar      2 RES2   0.0000
    57 H7       3.0790   9.3905   9.7353   H         2 RES2   0.0000
    58 C24      3.2058   9.0935   7.7359   C.ar      2 RES2   0.0000
    59 H8       3.7958   8.3496   7.7829   H         2 RES2   0.0000
    60 C25      2.7709   9.5503   6.5152   C.ar      2 RES2   0.0000
    61 H9       3.0437   9.1060   5.7213   H         2 RES2   0.0000
    62 C26      1.9419  10.6456   6.4313   C.ar      2 RES2   0.0000
    63 H10      1.6537  10.9681   5.5853   H         2 RES2   0.0000
    64 C27     -1.1952  12.1727   7.0169   C.ar      2 RES2   0.0000
    65 C28     -2.1881  13.1088   6.7235   C.ar      2 RES2   0.0000
    66 H11     -1.9743  14.0334   6.6917   H         2 RES2   0.0000
    67 C29     -3.4880  12.6879   6.4758   C.ar      2 RES2   0.0000
    68 H12     -4.1618  13.3220   6.2598   H         2 RES2   0.0000
    69 C30     -3.8009  11.3400   6.5457   C.ar      2 RES2   0.0000
    70 H13     -4.6971  11.0554   6.4085   H         2 RES2   0.0000
    71 C31     -2.8196  10.4015   6.8149   C.ar      2 RES2   0.0000
    72 H14     -3.0417   9.4779   6.8454   H         2 RES2   0.0000
    73 C32     -1.5133  10.8058   7.0372   C.ar      2 RES2   0.0000
    74 H15     -0.8355  10.1593   7.2024   H         2 RES2   0.0000
    75 C33      1.1609  13.7133   6.0909   C.ar      2 RES2   0.0000
    76 C34      0.4892  13.9497   4.9184   C.ar      2 RES2   0.0000
    77 H16     -0.3872  13.6065   4.7952   H         2 RES2   0.0000
    78 C35      1.0919  14.6923   3.9111   C.ar      2 RES2   0.0000
    79 H17      0.6238  14.8671   3.1032   H         2 RES2   0.0000
    80 C36      2.3869  15.1816   4.0877   C.ar      2 RES2   0.0000
    81 H18      2.7956  15.6958   3.4018   H         2 RES2   0.0000
    82 C37      3.0781  14.9170   5.2602   C.ar      2 RES2   0.0000
    83 H19      3.9724  15.2215   5.3643   H         2 RES2   0.0000
    84 C38      2.4645  14.2131   6.2738   C.ar      2 RES2   0.0000
    85 H20      2.9201  14.0658   7.0931   H         2 RES2   0.0000
    86 P2       7.5090  22.3196   0.9282   P.3       3 RES3   1.0000
    87 C39      7.5371  21.3421   2.4554   C.3       3 RES3   0.0000
    88 H21      8.4705  21.2822   2.7819   H         3 RES3   0.0000
    89 H22      7.0046  21.8089   3.1477   H         3 RES3   0.0000
    90 C40      6.9760  19.9068   2.2700   C.3       3 RES3   0.0000
    91 H23      6.0512  19.9592   1.9499   H         3 RES3   0.0000
    92 H24      6.9982  19.4350   3.1287   H         3 RES3   0.0000
    93 H25      7.5223  19.4250   1.6158   H         3 RES3   0.0000
    94 C41      8.1854  21.3174  -0.3925   C.ar      3 RES3   0.0000
    95 C42      9.5009  20.8828  -0.2668   C.ar      3 RES3   0.0000
    96 H26     10.0054  21.1149   0.5043   H         3 RES3   0.0000
    97 C43     10.0792  20.1090  -1.2652   C.ar      3 RES3   0.0000
    98 H27     10.9837  19.8294  -1.1890   H         3 RES3   0.0000
    99 C44      9.3305  19.7470  -2.3690   C.ar      3 RES3   0.0000
   100 H28      9.7233  19.2154  -3.0537   H         3 RES3   0.0000
   101 C45      8.0122  20.1564  -2.4834   C.ar      3 RES3   0.0000
   102 H29      7.4998  19.8943  -3.2392   H         3 RES3   0.0000
   103 C46      7.4394  20.9377  -1.5078   C.ar      3 RES3   0.0000
   104 H30      6.5363  21.2223  -1.5942   H         3 RES3   0.0000
   105 C47      8.5660  23.7534   1.1127   C.ar      3 RES3   0.0000
   106 C48      8.9712  24.2251   2.3589   C.ar      3 RES3   0.0000
   107 H31      8.6834  23.7933   3.1541   H         3 RES3   0.0000
   108 C49      9.8086  25.3509   2.4262   C.ar      3 RES3   0.0000
   109 H32     10.0913  25.6804   3.2709   H         3 RES3   0.0000
   110 C50     10.2198  25.9749   1.2753   C.ar      3 RES3   0.0000
   111 H33     10.7867  26.7338   1.3274   H         3 RES3   0.0000
   112 C51      9.8163  25.5034   0.0419   C.ar      3 RES3   0.0000
   113 H34     10.1049  25.9425  -0.7495   H         3 RES3   0.0000
   114 C52      9.0061  24.4099  -0.0457   C.ar      3 RES3   0.0000
   115 H35      8.7359  24.0928  -0.8993   H         3 RES3   0.0000
   116 C53      5.8290  22.8640   0.5551   C.ar      3 RES3   0.0000
   117 C54      4.8304  21.9377   0.2998   C.ar      3 RES3   0.0000
   118 H36      5.0321  21.0101   0.2871   H         3 RES3   0.0000
   119 C55      3.5306  22.3730   0.0635   C.ar      3 RES3   0.0000
   120 H37      2.8416  21.7440  -0.1118   H         3 RES3   0.0000
   121 C56      3.2458  23.7234   0.0864   C.ar      3 RES3   0.0000
   122 H38      2.3556  24.0155  -0.0661   H         3 RES3   0.0000
   123 C57      4.2441  24.6620   0.3277   C.ar      3 RES3   0.0000
   124 H39      4.0364  25.5880   0.3379   H         3 RES3   0.0000
   125 C58      5.5520  24.2326   0.5538   C.ar      3 RES3   0.0000
   126 H40      6.2456  24.8642   0.7063   H         3 RES3   0.0000
   127 C59      5.3675  19.7495   6.2154   C.2       4 RES4   0.0000
   128 H41      5.4263  19.9692   7.1376   H         4 RES4   0.0000
   129 O13      6.2210  20.2218   5.4583   O.2       4 RES4   0.0000
   130 N1       4.3886  18.9697   5.8407   N.am      4 RES4   0.0000
   131 C60      4.2282  18.6138   4.4472   C.3       4 RES4   0.0000
   132 H42      4.2557  19.4225   3.8972   H         4 RES4   0.0000
   133 H43      3.3658  18.1645   4.3227   H         4 RES4   0.0000
   134 H44      4.9530  18.0097   4.1779   H         4 RES4   0.0000
   135 C61      3.3703  18.4665   6.7679   C.3       4 RES4   0.0000
   136 H45      3.6064  18.7261   7.6838   H         4 RES4   0.0000
   137 H46      3.3255  17.4905   6.7057   H         4 RES4   0.0000
   138 H47      2.4985  18.8509   6.5355   H         4 RES4   0.0000
   139 C62      7.2180   2.8231  -0.0216   C.2       5 RES5   0.0000
   140 H48      7.1325   2.6060  -0.9425   H         5 RES5   0.0000
   141 O14      6.3844   2.3654   0.7431   O.2       5 RES5   0.0000
   142 N2       8.2489   3.6147   0.3341   N.am      5 RES5   0.0000
   143 C63      8.4278   3.9639   1.7364   C.3       5 RES5   0.0000
   144 H49      8.0280   4.8400   1.9079   H         5 RES5   0.0000
   145 H50      9.3853   3.9938   1.9448   H         5 RES5   0.0000
   146 H51      7.9926   3.2874   2.2979   H         5 RES5   0.0000
   147 C64      9.2065   4.1436  -0.6008   C.3       5 RES5   0.0000
   148 H52     10.0473   3.6444  -0.5233   H         5 RES5   0.0000
   149 H53      9.3687   5.0896  -0.4039   H         5 RES5   0.0000
   150 H54      8.8568   4.0537  -1.5116   H         5 RES5   0.0000
@<TRIPOS>BOND
     1     1     6    1
     2     2    12    1
     3     3     4    1
     4     5     3    1
     5     6     5    2
     6     7     5    1
     7     8     1    1
     8     9     7    2
     9    10     9    1
    10    11     9    1
    11    12    11    2
    12    13     3    2
    13    14     2    1
    14    15    16    1
    15    17    15    2
    16    18     1    1
    17    19    17    1
    18    20     1    1
    19    21    19    1
    20    22    21    1
    21    23    21    2
    22    24    23    1
    23    25    15    1
    24    26    25    2
    25    27    28    1
    26    29    27    2
    27    30     1    1
    28    31    29    1
    29    32     1    1
    30    33    31    1
    31    34    33    1
    32    35    33    2
    33    36    35    1
    34    37    27    1
    35    38    37    2
    36    39    24   un
    37    40    36   un
    38    41     2   un
    39    42     2   un
    40    43     2   un
    41    44     2   un
    42     7     8    1
    43    11    13    1
    44    13    14    1
    45    17    18    1
    46    19    20    2
    47    23    25    1
    48    26    39   un
    49    29    30    1
    50    31    32    2
    51    35    37    1
    52    38    40   un
    53    45    46    1
    54    46    47    1
    55    48    46    1
    56    49    46    1
    57    50    49    1
    58    51    49    1
    59    52    49    1
    60    53    45    1
    61    54    53   ar
    62    55    54    1
    63    56    54   ar
    64    57    56    1
    65    58    56   ar
    66    59    58    1
    67    60    58   ar
    68    61    60    1
    69    62    53   ar
    70    63    62    1
    71    64    45    1
    72    65    64   ar
    73    66    65    1
    74    67    65   ar
    75    68    67    1
    76    69    67   ar
    77    70    69    1
    78    71    69   ar
    79    72    71    1
    80    73    64   ar
    81    74    73    1
    82    75    45    1
    83    76    75   ar
    84    77    76    1
    85    78    76   ar
    86    79    78    1
    87    80    78   ar
    88    81    80    1
    89    82    80   ar
    90    83    82    1
    91    84    75   ar
    92    85    84    1
    93    60    62   ar
    94    71    73   ar
    95    82    84   ar
    96    86    87    1
    97    87    88    1
    98    89    87    1
    99    90    87    1
   100    91    90    1
   101    92    90    1
   102    93    90    1
   103    94    86    1
   104    95    94   ar
   105    96    95    1
   106    97    95   ar
   107    98    97    1
   108    99    97   ar
   109   100    99    1
   110   101    99   ar
   111   102   101    1
   112   103    94   ar
   113   104   103    1
   114   105    86    1
   115   106   105   ar
   116   107   106    1
   117   108   106   ar
   118   109   108    1
   119   110   108   ar
   120   111   110    1
   121   112   110   ar
   122   113   112    1
   123   114   105   ar
   124   115   114    1
   125   116    86    1
   126   117   116   ar
   127   118   117    1
   128   119   117   ar
   129   120   119    1
   130   121   119   ar
   131   122   121    1
   132   123   121   ar
   133   124   123    1
   134   125   116   ar
   135   126   125    1
   136   101   103   ar
   137   112   114   ar
   138   123   125   ar
   139   127   128    1
   140   129   127    2
   141   130   127   am
   142   131   130    1
   143   132   131    1
   144   133   131    1
   145   134   131    1
   146   135   130    1
   147   136   135    1
   148   137   135    1
   149   138   135    1
   150   139   140    1
   151   141   139    2
   152   142   139   am
   153   143   142    1
   154   144   143    1
   155   145   143    1
   156   146   143    1
   157   147   142    1
   158   148   147    1
   159   149   147    1
   160   150   147    1
@<TRIPOS>SUBSTRUCTURE
     1 RES1        1 GROUP             0 ****  ****    0  
     2 RES2       45 GROUP             0 ****  ****    0  
     3 RES3       86 GROUP             0 ****  ****    0  
     4 RES4      127 GROUP             0 ****  ****    0  
     5 RES5      139 GROUP             0 ****  ****    0  
@<TRIPOS>CRYSIN
    9.7327   24.9615   13.3675   90.0000  108.1470   90.0000     4     1
