@<TRIPOS>MOLECULE
QUSJOE
   103   107     2     0     0
SMALL
NO_CHARGES
****
Generated from the CSD

@<TRIPOS>ATOM
     1 Fe1      8.9102   3.9048  25.0685   Fe        1 RES1   0.0000
     2 Cl1     10.5754   2.1523  25.1168   Cl        1 RES1   0.0000
     3 Cl2      7.2713   5.6650  25.0717   Cl        1 RES1   0.0000
     4 N1       8.7776   3.8164  27.4338   N.3       1 RES1   0.0000
     5 N2       9.0223   3.9773  22.7101   N.3       1 RES1   0.0000
     6 N3       7.2904   2.2805  24.5134   N.3       1 RES1   0.0000
     7 N4      10.6236   5.4318  25.6148   N.3       1 RES1   0.0000
     8 C1       7.4132   1.0582  25.2833   C.3       1 RES1   0.0000
     9 H1       7.2095   1.2390  26.2020   H         1 RES1   0.0000
    10 H2       8.3102   0.7248  25.2129   H         1 RES1   0.0000
    11 H3       6.7996   0.4030  24.9414   H         1 RES1   0.0000
    12 C2       9.3126   2.5907  28.0888   C.3       1 RES1   0.0000
    13 H4       8.7928   1.8311  27.8174   H         1 RES1   0.0000
    14 H5       9.2634   2.6886  29.0414   H         1 RES1   0.0000
    15 H6      10.2278   2.4613  27.8252   H         1 RES1   0.0000
    16 C3       8.9852   5.3373  22.1803   C.3       1 RES1   0.0000
    17 H7       9.7682   5.8133  22.4674   H         1 RES1   0.0000
    18 H8       8.2009   5.7851  22.5091   H         1 RES1   0.0000
    19 H9       8.9602   5.3075  21.2225   H         1 RES1   0.0000
    20 C4       7.3952   3.9657  27.9270   C.3       1 RES1   0.0000
    21 H10      6.8808   3.1961  27.6739   H         1 RES1   0.0000
    22 H11      7.0018   4.7535  27.5434   H         1 RES1   0.0000
    23 H12      7.4030   4.0469  28.8822   H         1 RES1   0.0000
    24 C5      10.2179   3.3155  22.1177   C.3       1 RES1   0.0000
    25 H13     10.2795   2.4149  22.4465   H         1 RES1   0.0000
    26 H14     11.0074   3.8015  22.3656   H         1 RES1   0.0000
    27 H15     10.1368   3.3039  21.1625   H         1 RES1   0.0000
    28 C6      10.8488   5.0968  27.0632   C.3       1 RES1   0.0000
    29 H16     11.3977   5.7868  27.4677   H         1 RES1   0.0000
    30 H17     11.3298   4.2576  27.1258   H         1 RES1   0.0000
    31 C7      11.8876   5.2444  24.8971   C.3       1 RES1   0.0000
    32 H18     11.7629   5.4534  23.9680   H         1 RES1   0.0000
    33 H19     12.1722   4.3322  24.9832   H         1 RES1   0.0000
    34 H20     12.5553   5.8249  25.2677   H         1 RES1   0.0000
    35 C8       9.5528   4.9840  27.8252   C.3       1 RES1   0.0000
    36 H21      9.7462   4.9343  28.7726   H         1 RES1   0.0000
    37 H22      9.0234   5.7818  27.6712   H         1 RES1   0.0000
    38 C9      10.2614   6.8897  25.4791   C.3       1 RES1   0.0000
    39 H23      9.4375   7.0573  25.9410   H         1 RES1   0.0000
    40 H24     10.1585   7.1087  24.5500   H         1 RES1   0.0000
    41 H25     10.9589   7.4271  25.8601   H         1 RES1   0.0000
    42 C10      7.8194   3.2575  22.2638   C.3       1 RES1   0.0000
    43 H26      7.9128   3.0170  21.3295   H         1 RES1   0.0000
    44 H27      7.0453   3.8363  22.3500   H         1 RES1   0.0000
    45 C11      7.6061   1.9903  23.0990   C.3       1 RES1   0.0000
    46 H28      6.8797   1.4761  22.7127   H         1 RES1   0.0000
    47 H29      8.4080   1.4463  23.0598   H         1 RES1   0.0000
    48 C12      5.8839   2.7682  24.5970   C.3       1 RES1   0.0000
    49 H30      5.7933   3.5742  24.0828   H         1 RES1   0.0000
    50 H31      5.6612   2.9473  25.5130   H         1 RES1   0.0000
    51 H32      5.2912   2.0981  24.2472   H         1 RES1   0.0000
    52 S1       7.9884   3.5240  18.2422   S.3       2 RES2   0.0000
    53 S2       9.7771   4.5322  18.3163   S.3       2 RES2   0.0000
    54 O1      12.2229   8.1668  18.1978   O.3       2 RES2   0.0000
    55 O2       5.5927  -0.1675  17.9864   O.3       2 RES2   0.0000
    56 N5      12.1769   5.9759  18.7041   N.2       2 RES2   0.0000
    57 N6       5.6686   1.9953  18.5423   N.2       2 RES2   0.0000
    58 C13      8.7187   5.7005  16.0343   C.ar      2 RES2   0.0000
    59 H33      8.0962   5.0106  16.0422   H         2 RES2   0.0000
    60 C14      7.3197   1.1444  16.9739   C.ar      2 RES2   0.0000
    61 C15      7.4883   0.1559  16.0082   C.ar      2 RES2   0.0000
    62 H34      6.8797  -0.5440  15.9534   H         2 RES2   0.0000
    63 C16     11.6936   6.9229  18.0282   C.2       2 RES2   0.0000
    64 C17      8.2413   2.2192  17.0391   C.ar      2 RES2   0.0000
    65 C18      9.5971   7.7058  15.0061   C.ar      2 RES2   0.0000
    66 H35      9.5707   8.3443  14.3302   H         2 RES2   0.0000
    67 C19      4.4625   1.4712  19.2365   C.3       2 RES2   0.0000
    68 C20      8.6759   6.6526  15.0191   C.ar      2 RES2   0.0000
    69 H36      8.0333   6.5895  14.3511   H         2 RES2   0.0000
    70 C21      9.6782   5.7702  17.0313   C.ar      2 RES2   0.0000
    71 C22     13.2465   6.5249  19.5810   C.3       2 RES2   0.0000
    72 C23      6.1632   1.0499  17.8794   C.2       2 RES2   0.0000
    73 C24     10.5448   7.7837  16.0056   C.ar      2 RES2   0.0000
    74 H37     11.1555   8.4853  16.0056   H         2 RES2   0.0000
    75 C25     10.6002   6.8168  17.0234   C.ar      2 RES2   0.0000
    76 C26      9.3071   2.2275  16.1596   C.ar      2 RES2   0.0000
    77 H38      9.9330   2.9141  16.2118   H         2 RES2   0.0000
    78 C27     13.2630   8.0126  19.1869   C.3       2 RES2   0.0000
    79 H39     13.0835   8.5715  19.9594   H         2 RES2   0.0000
    80 H40     14.1253   8.2581  18.8190   H         2 RES2   0.0000
    81 C28      9.4667   1.2290  15.2018   C.ar      2 RES2   0.0000
    82 H41     10.1854   1.2572  14.6120   H         2 RES2   0.0000
    83 C29      8.5605   0.2106  15.1288   C.ar      2 RES2   0.0000
    84 H42      8.6624  -0.4528  14.4868   H         2 RES2   0.0000
    85 C30     14.5548   5.8531  19.2443   C.3       2 RES2   0.0000
    86 H43     14.7711   6.0190  18.3257   H         2 RES2   0.0000
    87 H44     14.4753   4.9077  19.3905   H         2 RES2   0.0000
    88 H45     15.2486   6.2064  19.8054   H         2 RES2   0.0000
    89 C31      4.5634  -0.0232  18.9729   C.3       2 RES2   0.0000
    90 H46      4.7982  -0.4992  19.7846   H         2 RES2   0.0000
    91 H47      3.7200  -0.3682  18.6389   H         2 RES2   0.0000
    92 C32      3.2714   2.0931  18.6023   C.3       2 RES2   0.0000
    93 H48      3.2568   3.0319  18.8007   H         2 RES2   0.0000
    94 H49      2.4753   1.6801  18.9442   H         2 RES2   0.0000
    95 H50      3.3124   1.9654  17.6524   H         2 RES2   0.0000
    96 C33      4.5202   1.8195  20.7189   C.3       2 RES2   0.0000
    97 H51      5.2863   1.3998  21.1181   H         2 RES2   0.0000
    98 H52      3.7226   1.5060  21.1547   H         2 RES2   0.0000
    99 H53      4.5866   2.7715  20.8232   H         2 RES2   0.0000
   100 C34     12.8356   6.3109  21.0216   C.3       2 RES2   0.0000
   101 H54     12.0042   6.7620  21.1886   H         2 RES2   0.0000
   102 H55     13.5122   6.6642  21.6036   H         2 RES2   0.0000
   103 H56     12.7289   5.3705  21.1886   H         2 RES2   0.0000
@<TRIPOS>BOND
     1     1     2    1
     2     3     1    1
     3     4     1    1
     4     5     1    1
     5     6     1    1
     6     7     1    1
     7     8     6    1
     8     9     8    1
     9    10     8    1
    10    11     8    1
    11    12     4    1
    12    13    12    1
    13    14    12    1
    14    15    12    1
    15    16     5    1
    16    17    16    1
    17    18    16    1
    18    19    16    1
    19    20     4    1
    20    21    20    1
    21    22    20    1
    22    23    20    1
    23    24     5    1
    24    25    24    1
    25    26    24    1
    26    27    24    1
    27    28     7    1
    28    29    28    1
    29    30    28    1
    30    31     7    1
    31    32    31    1
    32    33    31    1
    33    34    31    1
    34    35     4    1
    35    36    35    1
    36    37    35    1
    37    38     7    1
    38    39    38    1
    39    40    38    1
    40    41    38    1
    41    42     5    1
    42    43    42    1
    43    44    42    1
    44    45     6    1
    45    46    45    1
    46    47    45    1
    47    48     6    1
    48    49    48    1
    49    50    48    1
    50    51    48    1
    51    28    35    1
    52    42    45    1
    53    52    53    1
    54    53    70    1
    55    54    63    1
    56    55    72    1
    57    56    63    2
    58    57    67    1
    59    58    59    1
    60    60    61   ar
    61    61    62    1
    62    63    75    1
    63    64    52    1
    64    65    66    1
    65    67    89    1
    66    68    58   ar
    67    69    68    1
    68    70    58   ar
    69    71    56    1
    70    72    57    2
    71    73    65   ar
    72    74    73    1
    73    75    70   ar
    74    76    64   ar
    75    77    76    1
    76    78    54    1
    77    79    78    1
    78    80    78    1
    79    81    76   ar
    80    82    81    1
    81    83    61   ar
    82    84    83    1
    83    85    71    1
    84    86    85    1
    85    87    85    1
    86    88    85    1
    87    89    55    1
    88    90    89    1
    89    91    89    1
    90    92    67    1
    91    93    92    1
    92    94    92    1
    93    95    92    1
    94    96    67    1
    95    97    96    1
    96    98    96    1
    97    99    96    1
    98   100    71    1
    99   101   100    1
   100   102   100    1
   101   103   100    1
   102    60    64   ar
   103    60    72    1
   104    65    68   ar
   105    71    78    1
   106    73    75   ar
   107    81    83   ar
@<TRIPOS>SUBSTRUCTURE
     1 RES1        1 GROUP             0 ****  ****    0  
     2 RES2       52 GROUP             0 ****  ****    0  
@<TRIPOS>CRYSIN
    9.0481   16.5858   26.0979   90.0000   90.2910   90.0000   231     1
