@<TRIPOS>MOLECULE
RABRAP
   104   114     2     0     0
SMALL
USER_CHARGES
****
Generated from the CSD

@<TRIPOS>ATOM
     1 Fe1     -7.7322   8.8125  13.7702   Fe        1 RES1   1.0000
     2 O1      -7.6380   7.9549  11.8165   O.2       1 RES1   0.0000
     3 N1      -8.8357   7.2407  14.4535   N.2       1 RES1   0.0000
     4 N2      -6.0070   7.8400  14.2609   N.2       1 RES1   0.0000
     5 N3      -7.7959   6.6940  11.8526   N.2       1 RES1   0.0000
     6 N4      -7.7074   6.1192  10.7081   N.pl3     1 RES1   0.0000
     7 C1     -10.2031   7.0939  14.3643   C.2       1 RES1   0.0000
     8 C2     -10.5645   5.7452  14.7186   C.2       1 RES1   0.0000
     9 H1     -11.4419   5.3809  14.7245   H         1 RES1   0.0000
    10 C3      -9.4224   5.0890  15.0427   C.2       1 RES1   0.0000
    11 H2      -9.3502   4.1859  15.3276   H         1 RES1   0.0000
    12 C4      -8.3398   6.0244  14.8728   C.2       1 RES1   0.0000
    13 C5      -6.9882   5.7052  15.0462   C.2       1 RES1   0.0000
    14 C6      -5.9124   6.5526  14.7457   C.2       1 RES1   0.0000
    15 C7      -4.5284   6.1924  14.8846   C.2       1 RES1   0.0000
    16 H3      -4.1924   5.3615  15.1982   H         1 RES1   0.0000
    17 C8      -3.7873   7.2594  14.4854   C.2       1 RES1   0.0000
    18 H4      -2.8400   7.3144  14.4697   H         1 RES1   0.0000
    19 C9      -4.7118   8.2908  14.0918   C.2       1 RES1   0.0000
    20 C10     -4.3459   9.5455  13.5810   C.2       1 RES1   0.0000
    21 C11     -6.6776   4.3560  15.6201   C.ar      1 RES1   0.0000
    22 C12     -6.2529   3.2987  14.8253   C.ar      1 RES1   0.0000
    23 H5      -6.1202   3.4281  13.8941   H         1 RES1   0.0000
    24 C13     -6.0203   2.0468  15.3928   C.ar      1 RES1   0.0000
    25 H6      -5.7421   1.3236  14.8415   H         1 RES1   0.0000
    26 C14     -6.1905   1.8473  16.7530   C.ar      1 RES1   0.0000
    27 H7      -6.0318   0.9923  17.1343   H         1 RES1   0.0000
    28 C15     -6.5936   2.9088  17.5545   C.ar      1 RES1   0.0000
    29 H8      -6.6970   2.7848  18.4906   H         1 RES1   0.0000
    30 C16     -6.8452   4.1526  16.9839   C.ar      1 RES1   0.0000
    31 H9      -7.1345   4.8716  17.5336   H         1 RES1   0.0000
    32 C17     -2.8925   9.8439  13.3986   C.ar      1 RES1   0.0000
    33 C18     -1.9954   9.8131  14.4702   C.ar      1 RES1   0.0000
    34 H10     -2.3104   9.6180  15.3442   H         1 RES1   0.0000
    35 C19     -0.6414  10.0663  14.2651   C.ar      1 RES1   0.0000
    36 H11     -0.0392  10.0445  14.9999   H         1 RES1   0.0000
    37 C20     -0.1667  10.3520  12.9872   C.ar      1 RES1   0.0000
    38 H12      0.7582  10.5221  12.8490   H         1 RES1   0.0000
    39 C21     -1.0489  10.3885  11.9150   C.ar      1 RES1   0.0000
    40 H13     -0.7286  10.5856  11.0437   H         1 RES1   0.0000
    41 C22     -2.4034  10.1361  12.1152   C.ar      1 RES1   0.0000
    42 H14     -3.0006  10.1626  11.3770   H         1 RES1   0.0000
    43 C23     -7.9969   4.6900  10.6968   C.3       1 RES1   0.0000
    44 H15     -7.9968   4.3499  11.6152   H         1 RES1   0.0000
    45 H16     -7.3108   4.2230  10.1748   H         1 RES1   0.0000
    46 H17     -8.8757   4.5384  10.2919   H         1 RES1   0.0000
    47 C24     -7.4654   6.8514   9.4731   C.3       1 RES1   0.0000
    48 H18     -6.6979   7.4501   9.5923   H         1 RES1   0.0000
    49 H19     -8.2583   7.3796   9.2453   H         1 RES1   0.0000
    50 H20     -7.2750   6.2181   8.7496   H         1 RES1   0.0000
    51 O1D     -7.8264   9.6701  15.7239   O.2       1 RES1   0.0000
    52 N1D     -6.6287  10.3843  13.0869   N.2       1 RES1   0.0000
    53 N2D     -9.4575   9.7850  13.2796   N.2       1 RES1   0.0000
    54 N3D     -7.6685  10.9310  15.6879   N.2       1 RES1   0.0000
    55 N4D     -7.7571  11.5058  16.8323   N.pl3     1 RES1   0.0000
    56 C1D     -5.2613  10.5311  13.1762   C.2       1 RES1   0.0000
    57 C2D     -4.9000  11.8798  12.8219   C.2       1 RES1   0.0000
    58 H1D     -4.0225  12.2441  12.8159   H         1 RES1   0.0000
    59 C3D     -6.0420  12.5360  12.4977   C.2       1 RES1   0.0000
    60 H2D     -6.1142  13.4391  12.2128   H         1 RES1   0.0000
    61 C4D     -7.1247  11.6006  12.6676   C.2       1 RES1   0.0000
    62 C5D     -8.4762  11.9198  12.4943   C.2       1 RES1   0.0000
    63 C6D     -9.5521  11.0724  12.7947   C.2       1 RES1   0.0000
    64 C7D    -10.9361  11.4326  12.6558   C.2       1 RES1   0.0000
    65 H3D    -11.2721  12.2635  12.3422   H         1 RES1   0.0000
    66 C8D    -11.6772  10.3656  13.0550   C.2       1 RES1   0.0000
    67 H4D    -12.6245  10.3106  13.0707   H         1 RES1   0.0000
    68 C9D    -10.7527   9.3342  13.4487   C.2       1 RES1   0.0000
    69 C10D   -11.1186   8.0795  13.9594   C.2       1 RES1   0.0000
    70 C11D    -8.7868  13.2690  11.9203   C.ar      1 RES1   0.0000
    71 C12D    -9.2115  14.3263  12.7151   C.ar      1 RES1   0.0000
    72 H5D     -9.3442  14.1969  13.6463   H         1 RES1   0.0000
    73 C13D    -9.4442  15.5782  12.1477   C.ar      1 RES1   0.0000
    74 H6D     -9.7223  16.3014  12.6989   H         1 RES1   0.0000
    75 C14D    -9.2740  15.7777  10.7875   C.ar      1 RES1   0.0000
    76 H7D     -9.4327  16.6327  10.4062   H         1 RES1   0.0000
    77 C15D    -8.8709  14.7162   9.9859   C.ar      1 RES1   0.0000
    78 H8D     -8.7675  14.8403   9.0498   H         1 RES1   0.0000
    79 C16D    -8.6193  13.4724  10.5565   C.ar      1 RES1   0.0000
    80 H9D     -8.3299  12.7535  10.0068   H         1 RES1   0.0000
    81 C17D   -12.5719   7.7811  14.1419   C.ar      1 RES1   0.0000
    82 C18D   -13.4691   7.8119  13.0703   C.ar      1 RES1   0.0000
    83 H10D   -13.1540   8.0070  12.1963   H         1 RES1   0.0000
    84 C19D   -14.8231   7.5587  13.2753   C.ar      1 RES1   0.0000
    85 H11D   -15.4252   7.5805  12.5405   H         1 RES1   0.0000
    86 C20D   -15.2978   7.2730  14.5532   C.ar      1 RES1   0.0000
    87 H12D   -16.2227   7.1029  14.6914   H         1 RES1   0.0000
    88 C21D   -14.4155   7.2365  15.6255   C.ar      1 RES1   0.0000
    89 H13D   -14.7359   7.0394  16.4967   H         1 RES1   0.0000
    90 C22D   -13.0611   7.4889  15.4253   C.ar      1 RES1   0.0000
    91 H14D   -12.4638   7.4624  16.1635   H         1 RES1   0.0000
    92 C23D    -7.4676  12.9350  16.8436   C.3       1 RES1   0.0000
    93 H15D    -7.4676  13.2752  15.9253   H         1 RES1   0.0000
    94 H16D    -8.1537  13.4021  17.3656   H         1 RES1   0.0000
    95 H17D    -6.5887  13.0866  17.2486   H         1 RES1   0.0000
    96 C24D    -7.9990  10.7736  18.0674   C.3       1 RES1   0.0000
    97 H18D    -8.7666  10.1749  17.9481   H         1 RES1   0.0000
    98 H19D    -7.2062  10.2454  18.2951   H         1 RES1   0.0000
    99 H20D    -8.1894  11.4069  18.7908   H         1 RES1   0.0000
   100 Cl1     -5.7992   1.6072  10.3277   Cl        2 RES2   0.0000
   101 O2      -4.6278   0.7882  10.2139   O.3       2 RES2  -1.0000
   102 O3      -5.6893   2.4488  11.5047   O.2       2 RES2   0.0000
   103 O2A     -6.9705   0.7882  10.4414   O.2       2 RES2   0.0000
   104 O3A     -5.9091   2.4488   9.1506   O.2       2 RES2   0.0000
@<TRIPOS>BOND
     1     1     2    1
     2     2     5    2
     3     3     1    1
     4     4     1    1
     5     5     6    1
     6     6    43    1
     7     7     3    1
     8     8     7    1
     9     9     8    1
    10    10     8    2
    11    11    10    1
    12    12     3    1
    13    13    12    2
    14    14     4    2
    15    15    14    1
    16    16    15    1
    17    17    15    2
    18    18    17    1
    19    19     4    1
    20    20    19    2
    21    21    13    1
    22    22    21   ar
    23    23    22    1
    24    24    22   ar
    25    25    24    1
    26    26    24   ar
    27    27    26    1
    28    28    26   ar
    29    29    28    1
    30    30    21   ar
    31    31    30    1
    32    32    20    1
    33    33    32   ar
    34    34    33    1
    35    35    33   ar
    36    36    35    1
    37    37    35   ar
    38    38    37    1
    39    39    37   ar
    40    40    39    1
    41    41    32   ar
    42    42    41    1
    43    43    44    1
    44    45    43    1
    45    46    43    1
    46    47     6    1
    47    48    47    1
    48    49    47    1
    49    50    47    1
    50    51     1    1
    51    52     1    1
    52    53     1    1
    53    54    51    2
    54    55    54    1
    55    56    20    1
    56    57    56    2
    57    58    57    1
    58    59    57    1
    59    60    59    1
    60    61    52    1
    61    62    61    1
    62    63    53    1
    63    64    63    1
    64    65    64    1
    65    66    64    2
    66    67    66    1
    67    68    53    2
    68    69     7    2
    69    70    62    1
    70    71    70   ar
    71    72    71    1
    72    73    71   ar
    73    74    73    1
    74    75    73   ar
    75    76    75    1
    76    77    75   ar
    77    78    77    1
    78    79    70   ar
    79    80    79    1
    80    81    69    1
    81    82    81   ar
    82    83    82    1
    83    84    82   ar
    84    85    84    1
    85    86    84   ar
    86    87    86    1
    87    88    86   ar
    88    89    88    1
    89    90    81   ar
    90    91    90    1
    91    92    55    1
    92    93    92    1
    93    94    92    1
    94    95    92    1
    95    96    55    1
    96    97    96    1
    97    98    96    1
    98    99    96    1
    99    10    12    1
   100    13    14    1
   101    17    19    1
   102    28    30   ar
   103    39    41   ar
   104    52    56    1
   105    59    61    2
   106    62    63    2
   107    66    68    1
   108    68    69    1
   109    77    79   ar
   110    88    90   ar
   111   100   101    1
   112   102   100    2
   113   103   100    2
   114   104   100    2
@<TRIPOS>SUBSTRUCTURE
     1 RES1        1 GROUP             0 ****  ****    0  
     2 RES2      100 GROUP             0 ****  ****    0  
@<TRIPOS>CRYSIN
   17.5350   17.6250   15.7926   90.0000  119.3150   90.0000    15     1
