@<TRIPOS>MOLECULE
RALVUV01
   142   150     1     0     0
SMALL
NO_CHARGES
****
Generated from the CSD

@<TRIPOS>ATOM
     1 Fe1      6.9247  17.3276  18.2971   Fe        1 RES1   0.0000
     2 O1       8.4753  18.5959  18.5795   O.3       1 RES1   0.0000
     3 N1       6.0377  18.9343  19.3673   N.2       1 RES1   0.0000
     4 O2       7.1992  16.4784  20.0879   O.3       1 RES1   0.0000
     5 N2       8.4097  15.9207  17.8795   N.2       1 RES1   0.0000
     6 O3       6.3555  18.0729  16.5186   O.3       1 RES1   0.0000
     7 N3       5.2127  16.2627  17.9033   N.2       1 RES1   0.0000
     8 C1       8.2996  19.5198  19.4629   C.2       1 RES1   0.0000
     9 C2       9.3712  20.2558  20.0677   C.2       1 RES1   0.0000
    10 C3       9.0218  21.2411  20.9640   C.2       1 RES1   0.0000
    11 H1       9.7223  21.7332  21.3764   H         1 RES1   0.0000
    12 C4       7.6779  21.5742  21.3170   C.2       1 RES1   0.0000
    13 C5       6.6614  20.8452  20.7796   C.2       1 RES1   0.0000
    14 H2       5.7613  21.0526  21.0030   H         1 RES1   0.0000
    15 C6       6.9394  19.7794  19.8889   C.2       1 RES1   0.0000
    16 C7       4.7221  18.8962  19.8882   C.ar      1 RES1   0.0000
    17 C8       4.5164  18.6193  21.2346   C.ar      1 RES1   0.0000
    18 H3       5.2571  18.5624  21.8274   H         1 RES1   0.0000
    19 C9       3.2282  18.4258  21.7102   C.ar      1 RES1   0.0000
    20 H4       3.0900  18.2274  22.6283   H         1 RES1   0.0000
    21 C10      2.1447  18.5202  20.8585   C.ar      1 RES1   0.0000
    22 H5       1.2637  18.3844  21.1885   H         1 RES1   0.0000
    23 C11      2.3471  18.8109  19.5390   C.ar      1 RES1   0.0000
    24 H6       1.5994  18.8853  18.9572   H         1 RES1   0.0000
    25 C12      3.6310  19.0001  19.0316   C.ar      1 RES1   0.0000
    26 H7       3.7601  19.1976  18.1116   H         1 RES1   0.0000
    27 C13     10.8268  19.8941  19.7558   C.3       1 RES1   0.0000
    28 C14     11.1231  20.0534  18.2734   C.3       1 RES1   0.0000
    29 H8      10.9459  20.9776  18.0036   H         1 RES1   0.0000
    30 H9      10.5506  19.4472  17.7593   H         1 RES1   0.0000
    31 H10     12.0645  19.8381  18.1046   H         1 RES1   0.0000
    32 C15     11.1034  18.4485  20.1872   C.3       1 RES1   0.0000
    33 H11     10.9057  18.3495  21.1415   H         1 RES1   0.0000
    34 H12     12.0450  18.2326  20.0235   H         1 RES1   0.0000
    35 H13     10.5350  17.8382  19.6712   H         1 RES1   0.0000
    36 C16     11.8027  20.7996  20.5154   C.3       1 RES1   0.0000
    37 H14     11.6354  20.7246  21.4774   H         1 RES1   0.0000
    38 H15     11.6730  21.7297  20.2326   H         1 RES1   0.0000
    39 H16     12.7229  20.5239  20.3218   H         1 RES1   0.0000
    40 C17      7.4436  22.7003  22.3209   C.3       1 RES1   0.0000
    41 C18      5.9624  23.0098  22.4999   C.3       1 RES1   0.0000
    42 H17      5.5799  23.2829  21.6395   H         1 RES1   0.0000
    43 H18      5.8560  23.7348  23.1498   H         1 RES1   0.0000
    44 H19      5.4982  22.2096  22.8256   H         1 RES1   0.0000
    45 C19      8.0053  22.2709  23.6766   C.3       1 RES1   0.0000
    46 H20      7.5682  21.4418  23.9648   H         1 RES1   0.0000
    47 H21      7.8378  22.9757  24.3383   H         1 RES1   0.0000
    48 H22      8.9706  22.1189  23.5984   H         1 RES1   0.0000
    49 C20      8.1398  23.9779  21.8553   C.3       1 RES1   0.0000
    50 H23      7.7807  24.2461  20.9842   H         1 RES1   0.0000
    51 H24      9.1028  23.8151  21.7757   H         1 RES1   0.0000
    52 H25      7.9816  24.6929  22.5086   H         1 RES1   0.0000
    53 C21      8.3137  15.8352  20.2112   C.2       1 RES1   0.0000
    54 C22      8.8787  15.4984  21.4744   C.2       1 RES1   0.0000
    55 C23     10.1092  14.8890  21.4657   C.2       1 RES1   0.0000
    56 H26     10.4948  14.6604  22.3042   H         1 RES1   0.0000
    57 C24     10.8509  14.5751  20.2838   C.2       1 RES1   0.0000
    58 C25     10.2898  14.8512  19.0748   C.2       1 RES1   0.0000
    59 H27     10.7515  14.6185  18.2784   H         1 RES1   0.0000
    60 C26      9.0159  15.4869  18.9922   C.2       1 RES1   0.0000
    61 C27      8.9476  15.6272  16.6203   C.ar      1 RES1   0.0000
    62 C28      9.2656  14.3224  16.2236   C.ar      1 RES1   0.0000
    63 H28      9.1054  13.5942  16.8127   H         1 RES1   0.0000
    64 C29      9.8115  14.0934  14.9757   C.ar      1 RES1   0.0000
    65 H29     10.0412  13.2085  14.7176   H         1 RES1   0.0000
    66 C30     10.0249  15.1428  14.1017   C.ar      1 RES1   0.0000
    67 H30     10.4093  14.9815  13.2472   H         1 RES1   0.0000
    68 C31      9.6774  16.4296  14.4749   C.ar      1 RES1   0.0000
    69 H31      9.8092  17.1489  13.8697   H         1 RES1   0.0000
    70 C32      9.1386  16.6728  15.7243   C.ar      1 RES1   0.0000
    71 H32      8.8980  17.5572  15.9718   H         1 RES1   0.0000
    72 C33      8.1770  15.9022  22.7641   C.3       1 RES1   0.0000
    73 C34      6.7255  15.3756  22.7822   C.3       1 RES1   0.0000
    74 H33      6.2889  15.6499  23.6148   H         1 RES1   0.0000
    75 H34      6.7322  14.3969  22.7223   H         1 RES1   0.0000
    76 H35      6.2344  15.7459  22.0200   H         1 RES1   0.0000
    77 C35      8.8937  15.3375  23.9928   C.3       1 RES1   0.0000
    78 H36      8.4210  15.6185  24.8033   H         1 RES1   0.0000
    79 H37      9.8131  15.6743  24.0188   H         1 RES1   0.0000
    80 H38      8.9058  14.3585  23.9437   H         1 RES1   0.0000
    81 C36      8.1745  17.4391  22.8667   C.3       1 RES1   0.0000
    82 H39      7.7237  17.7108  23.6923   H         1 RES1   0.0000
    83 H40      7.7017  17.8173  22.0975   H         1 RES1   0.0000
    84 H41      9.0976  17.7667  22.8750   H         1 RES1   0.0000
    85 C37     12.2774  14.0465  20.4256   C.3       1 RES1   0.0000
    86 C38     12.4002  13.0549  21.5617   C.3       1 RES1   0.0000
    87 H42     12.0800  13.4668  22.3911   H         1 RES1   0.0000
    88 H43     13.3399  12.7949  21.6677   H         1 RES1   0.0000
    89 H44     11.8623  12.2609  21.3623   H         1 RES1   0.0000
    90 C39     12.7592  13.3579  19.1688   C.3       1 RES1   0.0000
    91 H45     12.6957  13.9763  18.4122   H         1 RES1   0.0000
    92 H46     12.2032  12.5698  18.9947   H         1 RES1   0.0000
    93 H47     13.6924  13.0794  19.2860   H         1 RES1   0.0000
    94 C40     13.1833  15.2496  20.7023   C.3       1 RES1   0.0000
    95 H48     12.8810  15.7057  21.5150   H         1 RES1   0.0000
    96 H49     13.1416  15.8698  19.9460   H         1 RES1   0.0000
    97 H50     14.1059  14.9431  20.8221   H         1 RES1   0.0000
    98 C41      5.1689  17.7633  16.1290   C.2       1 RES1   0.0000
    99 C42      4.4813  18.3827  15.0351   C.2       1 RES1   0.0000
   100 C43      3.1917  17.9789  14.8050   C.2       1 RES1   0.0000
   101 H51      2.7284  18.3844  14.0811   H         1 RES1   0.0000
   102 C44      2.4900  16.9955  15.5683   C.2       1 RES1   0.0000
   103 C45      3.1503  16.3523  16.5684   C.2       1 RES1   0.0000
   104 H52      2.7206  15.6586  17.0546   H         1 RES1   0.0000
   105 C46      4.4883  16.7215  16.8829   C.2       1 RES1   0.0000
   106 C47      4.7541  15.1106  18.6189   C.ar      1 RES1   0.0000
   107 C48      4.2749  15.2325  19.9082   C.ar      1 RES1   0.0000
   108 H53      4.2086  16.0896  20.3124   H         1 RES1   0.0000
   109 C49      3.8896  14.0983  20.6128   C.ar      1 RES1   0.0000
   110 H54      3.5540  14.1840  21.4962   H         1 RES1   0.0000
   111 C50      3.9917  12.8480  20.0374   C.ar      1 RES1   0.0000
   112 H55      3.7303  12.0760  20.5238   H         1 RES1   0.0000
   113 C51      4.4748  12.7243  18.7519   C.ar      1 RES1   0.0000
   114 H56      4.5520  11.8631  18.3559   H         1 RES1   0.0000
   115 C52      4.8500  13.8512  18.0324   C.ar      1 RES1   0.0000
   116 H57      5.1716  13.7634  17.1415   H         1 RES1   0.0000
   117 C53      5.1568  19.4974  14.2267   C.3       1 RES1   0.0000
   118 C54      6.5257  19.0451  13.7102   C.3       1 RES1   0.0000
   119 H58      6.9369  19.7718  13.1979   H         1 RES1   0.0000
   120 H59      6.4146  18.2605  13.1345   H         1 RES1   0.0000
   121 H60      7.1016  18.8137  14.4686   H         1 RES1   0.0000
   122 C55      4.3221  19.9121  13.0149   C.3       1 RES1   0.0000
   123 H61      4.7853  20.6251  12.5285   H         1 RES1   0.0000
   124 H62      3.4477  20.2377  13.3153   H         1 RES1   0.0000
   125 H63      4.1969  19.1400  12.4252   H         1 RES1   0.0000
   126 C56      5.3212  20.7251  15.1434   C.3       1 RES1   0.0000
   127 H64      5.7497  21.4505  14.6448   H         1 RES1   0.0000
   128 H65      5.8780  20.4855  15.9131   H         1 RES1   0.0000
   129 H66      4.4406  21.0195  15.4551   H         1 RES1   0.0000
   130 C57      1.0176  16.7240  15.2400   C.3       1 RES1   0.0000
   131 C58      0.3544  15.8026  16.2645   C.3       1 RES1   0.0000
   132 H67      0.8256  14.9431  16.2842   H         1 RES1   0.0000
   133 H68     -0.5820  15.6551  16.0141   H         1 RES1   0.0000
   134 H69      0.3940  16.2170  17.1509   H         1 RES1   0.0000
   135 C59      0.9225  16.0834  13.8516   C.3       1 RES1   0.0000
   136 H70      1.3350  16.6760  13.1885   H         1 RES1   0.0000
   137 H71     -0.0194  15.9413  13.6207   H         1 RES1   0.0000
   138 H72      1.3908  15.2223  13.8556   H         1 RES1   0.0000
   139 C60      0.2337  18.0488  15.2442   C.3       1 RES1   0.0000
   140 H73      0.6312  18.6654  14.5931   H         1 RES1   0.0000
   141 H74      0.2722  18.4472  16.1386   H         1 RES1   0.0000
   142 H75     -0.6999  17.8766  15.0018   H         1 RES1   0.0000
@<TRIPOS>BOND
     1     1     2    1
     2     2     8    1
     3     3     1    1
     4     4     1    1
     5     5     1    1
     6     6     1    1
     7     7     1    1
     8     8     9    1
     9     9    10    2
    10    10    11    1
    11    12    10    1
    12    13    12    2
    13    14    13    1
    14    15     3    2
    15    16     3    1
    16    17    16   ar
    17    18    17    1
    18    19    17   ar
    19    20    19    1
    20    21    19   ar
    21    22    21    1
    22    23    21   ar
    23    24    23    1
    24    25    16   ar
    25    26    25    1
    26    27     9    1
    27    28    27    1
    28    29    28    1
    29    30    28    1
    30    31    28    1
    31    32    27    1
    32    33    32    1
    33    34    32    1
    34    35    32    1
    35    36    27    1
    36    37    36    1
    37    38    36    1
    38    39    36    1
    39    40    12    1
    40    41    40    1
    41    42    41    1
    42    43    41    1
    43    44    41    1
    44    45    40    1
    45    46    45    1
    46    47    45    1
    47    48    45    1
    48    49    40    1
    49    50    49    1
    50    51    49    1
    51    52    49    1
    52    53     4    1
    53    54    53    1
    54    55    54    2
    55    56    55    1
    56    57    55    1
    57    58    57    2
    58    59    58    1
    59    60     5    2
    60    61     5    1
    61    62    61   ar
    62    63    62    1
    63    64    62   ar
    64    65    64    1
    65    66    64   ar
    66    67    66    1
    67    68    66   ar
    68    69    68    1
    69    70    61   ar
    70    71    70    1
    71    72    54    1
    72    73    72    1
    73    74    73    1
    74    75    73    1
    75    76    73    1
    76    77    72    1
    77    78    77    1
    78    79    77    1
    79    80    77    1
    80    81    72    1
    81    82    81    1
    82    83    81    1
    83    84    81    1
    84    85    57    1
    85    86    85    1
    86    87    86    1
    87    88    86    1
    88    89    86    1
    89    90    85    1
    90    91    90    1
    91    92    90    1
    92    93    90    1
    93    94    85    1
    94    95    94    1
    95    96    94    1
    96    97    94    1
    97    98     6    1
    98    99    98    1
    99   100    99    2
   100   101   100    1
   101   102   100    1
   102   103   102    2
   103   104   103    1
   104   105     7    2
   105   106     7    1
   106   107   106   ar
   107   108   107    1
   108   109   107   ar
   109   110   109    1
   110   111   109   ar
   111   112   111    1
   112   113   111   ar
   113   114   113    1
   114   115   106   ar
   115   116   115    1
   116   117    99    1
   117   118   117    1
   118   119   118    1
   119   120   118    1
   120   121   118    1
   121   122   117    1
   122   123   122    1
   123   124   122    1
   124   125   122    1
   125   126   117    1
   126   127   126    1
   127   128   126    1
   128   129   126    1
   129   130   102    1
   130   131   130    1
   131   132   131    1
   132   133   131    1
   133   134   131    1
   134   135   130    1
   135   136   135    1
   136   137   135    1
   137   138   135    1
   138   139   130    1
   139   140   139    1
   140   141   139    1
   141   142   139    1
   142     8    15    1
   143    13    15    1
   144    23    25   ar
   145    53    60    1
   146    58    60    1
   147    68    70   ar
   148    98   105    1
   149   103   105    1
   150   113   115   ar
@<TRIPOS>SUBSTRUCTURE
     1 RES1        1 GROUP             0 ****  ****    0  
@<TRIPOS>CRYSIN
   12.9614   17.4508   23.4880   90.0000   90.0000   90.0000    19     1
