@<TRIPOS>MOLECULE
RALVUV
   142   150     1     0     0
SMALL
NO_CHARGES
****
Generated from the CSD

@<TRIPOS>ATOM
     1 Fe1      6.9486  17.3561  18.4012   Fe        1 RES1   0.0000
     2 O1       8.4888  18.6281  18.6817   O.3       1 RES1   0.0000
     3 N1       6.0403  18.9900  19.4602   N.2       1 RES1   0.0000
     4 O2       7.2210  16.5109  20.2031   O.3       1 RES1   0.0000
     5 N2       8.4317  15.9427  17.9831   N.2       1 RES1   0.0000
     6 O3       6.3741  18.1019  16.6194   O.3       1 RES1   0.0000
     7 N3       5.2297  16.2977  18.0091   N.2       1 RES1   0.0000
     8 C1       8.3200  19.5617  19.5808   C.2       1 RES1   0.0000
     9 C2       9.3929  20.2873  20.1929   C.2       1 RES1   0.0000
    10 C3       9.0370  21.2768  21.0957   C.2       1 RES1   0.0000
    11 H1       9.7372  21.7663  21.5117   H         1 RES1   0.0000
    12 C4       7.6965  21.6090  21.4431   C.2       1 RES1   0.0000
    13 C5       6.6820  20.8799  20.8972   C.2       1 RES1   0.0000
    14 H2       5.7818  21.0793  21.1241   H         1 RES1   0.0000
    15 C6       6.9599  19.8345  20.0038   C.2       1 RES1   0.0000
    16 C7       4.7400  18.9376  20.0109   C.ar      1 RES1   0.0000
    17 C8       4.5360  18.6596  21.3510   C.ar      1 RES1   0.0000
    18 H3       5.2791  18.6159  21.9394   H         1 RES1   0.0000
    19 C9       3.2669  18.4463  21.8355   C.ar      1 RES1   0.0000
    20 H4       3.1344  18.2365  22.7525   H         1 RES1   0.0000
    21 C10      2.1823  18.5390  20.9799   C.ar      1 RES1   0.0000
    22 H5       1.3055  18.4009  21.3179   H         1 RES1   0.0000
    23 C11      2.3551  18.8239  19.6588   C.ar      1 RES1   0.0000
    24 H6       1.6029  18.8816  19.0821   H         1 RES1   0.0000
    25 C12      3.6242  19.0302  19.1601   C.ar      1 RES1   0.0000
    26 H7       3.7450  19.2330  18.2407   H         1 RES1   0.0000
    27 C13     10.8504  19.9254  19.8620   C.3       1 RES1   0.0000
    28 C14     11.1543  20.0827  18.3802   C.3       1 RES1   0.0000
    29 H8      10.9764  21.0058  18.1060   H         1 RES1   0.0000
    30 H9      10.5854  19.4726  17.8626   H         1 RES1   0.0000
    31 H10     12.0961  19.8677  18.2147   H         1 RES1   0.0000
    32 C15     11.1245  18.4813  20.3016   C.3       1 RES1   0.0000
    33 H11     10.9270  18.3869  21.2564   H         1 RES1   0.0000
    34 H12     12.0662  18.2627  20.1385   H         1 RES1   0.0000
    35 H13     10.5555  17.8694  19.7887   H         1 RES1   0.0000
    36 C16     11.8246  20.8415  20.6348   C.3       1 RES1   0.0000
    37 H14     11.6544  20.7628  21.5967   H         1 RES1   0.0000
    38 H15     11.6908  21.7698  20.3536   H         1 RES1   0.0000
    39 H16     12.7469  20.5705  20.4434   H         1 RES1   0.0000
    40 C17      7.4743  22.7366  22.4499   C.3       1 RES1   0.0000
    41 C18      5.9844  23.0548  22.6414   C.3       1 RES1   0.0000
    42 H17      5.5973  23.3276  21.7835   H         1 RES1   0.0000
    43 H18      5.8870  23.7821  23.2889   H         1 RES1   0.0000
    44 H19      5.5194  22.2576  22.9699   H         1 RES1   0.0000
    45 C19      8.0290  22.3188  23.8089   C.3       1 RES1   0.0000
    46 H20      7.5925  21.4901  24.0996   H         1 RES1   0.0000
    47 H21      7.8575  23.0269  24.4636   H         1 RES1   0.0000
    48 H22      8.9954  22.1702  23.7333   H         1 RES1   0.0000
    49 C20      8.1433  24.0251  21.9820   C.3       1 RES1   0.0000
    50 H23      7.7783  24.2839  21.1099   H         1 RES1   0.0000
    51 H24      9.1097  23.8818  21.9016   H         1 RES1   0.0000
    52 H25      7.9705  24.7384  22.6319   H         1 RES1   0.0000
    53 C21      8.3472  15.8676  20.3418   C.2       1 RES1   0.0000
    54 C22      8.8993  15.5371  21.6157   C.2       1 RES1   0.0000
    55 C23     10.1230  14.9200  21.5944   C.2       1 RES1   0.0000
    56 H26     10.5074  14.6787  22.4287   H         1 RES1   0.0000
    57 C24     10.8725  14.6123  20.4032   C.2       1 RES1   0.0000
    58 C25     10.3113  14.8780  19.1932   C.2       1 RES1   0.0000
    59 H27     10.7724  14.6385  18.3991   H         1 RES1   0.0000
    60 C26      9.0357  15.5109  19.1034   C.2       1 RES1   0.0000
    61 C27      8.9630  15.6420  16.7305   C.ar      1 RES1   0.0000
    62 C28      9.2994  14.3448  16.3240   C.ar      1 RES1   0.0000
    63 H28      9.1643  13.6158  16.9196   H         1 RES1   0.0000
    64 C29      9.8281  14.1105  15.0667   C.ar      1 RES1   0.0000
    65 H29     10.0476  13.2259  14.8043   H         1 RES1   0.0000
    66 C30     10.0333  15.1508  14.2017   C.ar      1 RES1   0.0000
    67 H30     10.4074  14.9899  13.3438   H         1 RES1   0.0000
    68 C31      9.6969  16.4358  14.5775   C.ar      1 RES1   0.0000
    69 H31      9.8359  17.1543  13.9724   H         1 RES1   0.0000
    70 C32      9.1669  16.6823  15.8064   C.ar      1 RES1   0.0000
    71 H32      8.9305  17.5722  16.0451   H         1 RES1   0.0000
    72 C33      8.1966  15.9497  22.9061   C.3       1 RES1   0.0000
    73 C34      6.7456  15.4218  22.9250   C.3       1 RES1   0.0000
    74 H33      6.3091  15.6945  23.7593   H         1 RES1   0.0000
    75 H34      6.7534  14.4445  22.8635   H         1 RES1   0.0000
    76 H35      6.2546  15.7941  22.1616   H         1 RES1   0.0000
    77 C35      8.9136  15.3850  24.1327   C.3       1 RES1   0.0000
    78 H36      8.4421  15.6648  24.9457   H         1 RES1   0.0000
    79 H37      9.8333  15.7225  24.1563   H         1 RES1   0.0000
    80 H38      8.9266  14.4060  24.0830   H         1 RES1   0.0000
    81 C36      8.1992  17.4743  23.0006   C.3       1 RES1   0.0000
    82 H39      7.7497  17.7505  23.8278   H         1 RES1   0.0000
    83 H40      7.7250  17.8501  22.2301   H         1 RES1   0.0000
    84 H41      9.1240  17.7994  23.0077   H         1 RES1   0.0000
    85 C37     12.2961  14.0668  20.5592   C.3       1 RES1   0.0000
    86 C38     12.4131  13.0825  21.6913   C.3       1 RES1   0.0000
    87 H42     12.0935  13.4969  22.5208   H         1 RES1   0.0000
    88 H43     13.3509  12.8185  21.8000   H         1 RES1   0.0000
    89 H44     11.8714  12.2905  21.4928   H         1 RES1   0.0000
    90 C39     12.7924  13.4042  19.3090   C.3       1 RES1   0.0000
    91 H45     12.7248  14.0301  18.5598   H         1 RES1   0.0000
    92 H46     12.2494  12.6105  19.1223   H         1 RES1   0.0000
    93 H47     13.7276  13.1385  19.4295   H         1 RES1   0.0000
    94 C40     13.2054  15.2627  20.8617   C.3       1 RES1   0.0000
    95 H48     12.8976  15.7102  21.6771   H         1 RES1   0.0000
    96 H49     13.1769  15.8920  20.1125   H         1 RES1   0.0000
    97 H50     14.1251  14.9480  20.9894   H         1 RES1   0.0000
    98 C41      5.1790  17.7872  16.2224   C.2       1 RES1   0.0000
    99 C42      4.5010  18.4218  15.1258   C.2       1 RES1   0.0000
   100 C43      3.2059  17.9987  14.8965   C.2       1 RES1   0.0000
   101 H51      2.7408  18.3939  14.1686   H         1 RES1   0.0000
   102 C44      2.5096  17.0145  15.6646   C.2       1 RES1   0.0000
   103 C45      3.1630  16.3921  16.6667   C.2       1 RES1   0.0000
   104 H52      2.7240  15.7120  17.1654   H         1 RES1   0.0000
   105 C46      4.5192  16.7470  16.9858   C.2       1 RES1   0.0000
   106 C47      4.7686  15.1455  18.7347   C.ar      1 RES1   0.0000
   107 C48      4.2879  15.2574  20.0275   C.ar      1 RES1   0.0000
   108 H53      4.2204  16.1123  20.4340   H         1 RES1   0.0000
   109 C49      3.8995  14.1193  20.7341   C.ar      1 RES1   0.0000
   110 H54      3.5631  14.2049  21.6180   H         1 RES1   0.0000
   111 C50      4.0022  12.8710  20.1598   C.ar      1 RES1   0.0000
   112 H55      3.7489  12.0947  20.6443   H         1 RES1   0.0000
   113 C51      4.4776  12.7626  18.8765   C.ar      1 RES1   0.0000
   114 H56      4.5464  11.9042  18.4771   H         1 RES1   0.0000
   115 C52      4.8569  13.8798  18.1438   C.ar      1 RES1   0.0000
   116 H57      5.1738  13.7853  17.2528   H         1 RES1   0.0000
   117 C53      5.1673  19.5268  14.3222   C.3       1 RES1   0.0000
   118 C54      6.5352  19.0757  13.7928   C.3       1 RES1   0.0000
   119 H58      6.9430  19.8047  13.2799   H         1 RES1   0.0000
   120 H59      6.4209  18.2925  13.2161   H         1 RES1   0.0000
   121 H60      7.1171  18.8432  14.5467   H         1 RES1   0.0000
   122 C55      4.3308  19.9324  13.1051   C.3       1 RES1   0.0000
   123 H61      4.7932  20.6439  12.6158   H         1 RES1   0.0000
   124 H62      3.4553  20.2558  13.4052   H         1 RES1   0.0000
   125 H63      4.2100  19.1579  12.5189   H         1 RES1   0.0000
   126 C56      5.3232  20.7436  15.2345   C.3       1 RES1   0.0000
   127 H64      5.7519  21.4709  14.7358   H         1 RES1   0.0000
   128 H65      5.8792  20.5041  16.0049   H         1 RES1   0.0000
   129 H66      4.4412  21.0355  15.5441   H         1 RES1   0.0000
   130 C57      1.0106  16.7540  15.3385   C.3       1 RES1   0.0000
   131 C58      0.3676  15.8256  16.3595   C.3       1 RES1   0.0000
   132 H67      0.8469  14.9707  16.3713   H         1 RES1   0.0000
   133 H68     -0.5690  15.6718  16.1160   H         1 RES1   0.0000
   134 H69      0.4118  16.2382  17.2481   H         1 RES1   0.0000
   135 C59      0.9236  16.1141  13.9417   C.3       1 RES1   0.0000
   136 H70      1.3379  16.7103  13.2847   H         1 RES1   0.0000
   137 H71     -0.0169  15.9690  13.7054   H         1 RES1   0.0000
   138 H72      1.3951  15.2557  13.9464   H         1 RES1   0.0000
   139 C60      0.2351  18.0774  15.3503   C.3       1 RES1   0.0000
   140 H73      0.6313  18.6928  14.6980   H         1 RES1   0.0000
   141 H74      0.2793  18.4743  16.2436   H         1 RES1   0.0000
   142 H75     -0.7014  17.9096  15.1139   H         1 RES1   0.0000
@<TRIPOS>BOND
     1     1     2    1
     2     2     8    1
     3     3     1    1
     4     4     1    1
     5     5     1    1
     6     6     1    1
     7     7     1    1
     8     8     9    1
     9     9    10    2
    10    10    11    1
    11    12    10    1
    12    13    12    2
    13    14    13    1
    14    15     3    2
    15    16     3    1
    16    17    16   ar
    17    18    17    1
    18    19    17   ar
    19    20    19    1
    20    21    19   ar
    21    22    21    1
    22    23    21   ar
    23    24    23    1
    24    25    16   ar
    25    26    25    1
    26    27     9    1
    27    28    27    1
    28    29    28    1
    29    30    28    1
    30    31    28    1
    31    32    27    1
    32    33    32    1
    33    34    32    1
    34    35    32    1
    35    36    27    1
    36    37    36    1
    37    38    36    1
    38    39    36    1
    39    40    12    1
    40    41    40    1
    41    42    41    1
    42    43    41    1
    43    44    41    1
    44    45    40    1
    45    46    45    1
    46    47    45    1
    47    48    45    1
    48    49    40    1
    49    50    49    1
    50    51    49    1
    51    52    49    1
    52    53     4    1
    53    54    53    1
    54    55    54    2
    55    56    55    1
    56    57    55    1
    57    58    57    2
    58    59    58    1
    59    60     5    2
    60    61     5    1
    61    62    61   ar
    62    63    62    1
    63    64    62   ar
    64    65    64    1
    65    66    64   ar
    66    67    66    1
    67    68    66   ar
    68    69    68    1
    69    70    61   ar
    70    71    70    1
    71    72    54    1
    72    73    72    1
    73    74    73    1
    74    75    73    1
    75    76    73    1
    76    77    72    1
    77    78    77    1
    78    79    77    1
    79    80    77    1
    80    81    72    1
    81    82    81    1
    82    83    81    1
    83    84    81    1
    84    85    57    1
    85    86    85    1
    86    87    86    1
    87    88    86    1
    88    89    86    1
    89    90    85    1
    90    91    90    1
    91    92    90    1
    92    93    90    1
    93    94    85    1
    94    95    94    1
    95    96    94    1
    96    97    94    1
    97    98     6    1
    98    99    98    1
    99   100    99    2
   100   101   100    1
   101   102   100    1
   102   103   102    2
   103   104   103    1
   104   105     7    2
   105   106     7    1
   106   107   106   ar
   107   108   107    1
   108   109   107   ar
   109   110   109    1
   110   111   109   ar
   111   112   111    1
   112   113   111   ar
   113   114   113    1
   114   115   106   ar
   115   116   115    1
   116   117    99    1
   117   118   117    1
   118   119   118    1
   119   120   118    1
   120   121   118    1
   121   122   117    1
   122   123   122    1
   123   124   122    1
   124   125   122    1
   125   126   117    1
   126   127   126    1
   127   128   126    1
   128   129   126    1
   129   130   102    1
   130   131   130    1
   131   132   131    1
   132   133   131    1
   133   134   131    1
   134   135   130    1
   135   136   135    1
   136   137   135    1
   137   138   135    1
   138   139   130    1
   139   140   139    1
   140   141   139    1
   141   142   139    1
   142     8    15    1
   143    13    15    1
   144    23    25   ar
   145    53    60    1
   146    58    60    1
   147    68    70   ar
   148    98   105    1
   149   103   105    1
   150   113   115   ar
@<TRIPOS>SUBSTRUCTURE
     1 RES1        1 GROUP             0 ****  ****    0  
@<TRIPOS>CRYSIN
   12.9898   17.4830   23.6340   90.0000   90.0000   90.0000    19     1
