@<TRIPOS>MOLECULE
RAMZOX
   120   125     3     0     0
SMALL
NO_CHARGES
****
Generated from the CSD

@<TRIPOS>ATOM
     1 Fe1      5.7894   6.1662   3.7089   Fe        1 RES1   0.0000
     2 N1       5.9110   5.4503   5.6289   N.2       1 RES1   0.0000
     3 N2       3.7585   5.9390   3.7209   N.2       1 RES1   0.0000
     4 N3       5.6953   6.8095   1.7646   N.2       1 RES1   0.0000
     5 N4       7.8330   6.4985   3.7148   N.2       1 RES1   0.0000
     6 N5       2.5580   4.2616   6.7685   N.pl3     1 RES1   0.0000
     7 N6       2.2405   6.9056   0.4852   N.pl3     1 RES1   0.0000
     8 N7       9.0050   7.6962   0.4118   N.pl3     1 RES1   0.0000
     9 N8       9.3891   5.5564   6.9060   N.pl3     1 RES1   0.0000
    10 N9       6.9980   2.2260   2.8800   N.am      1 RES1   0.0000
    11 O1       2.3441   4.7376   7.8677   O.2       1 RES1   0.0000
    12 O2       2.0029   3.2778   6.2972   O.2       1 RES1   0.0000
    13 O3       1.5603   5.9599   0.1346   O.2       1 RES1   0.0000
    14 O4       2.1333   8.0589   0.0613   O.2       1 RES1   0.0000
    15 O5       8.8154   8.8206  -0.0308   O.2       1 RES1   0.0000
    16 O6       9.9386   6.9690   0.0838   O.2       1 RES1   0.0000
    17 O7       9.4161   6.2319   7.9293   O.2       1 RES1   0.0000
    18 O8      10.2463   4.7304   6.5960   O.2       1 RES1   0.0000
    19 O9       5.5183   8.1768   4.2897   O.3       1 RES1   0.0000
    20 O10      6.5205   8.4298   6.4115   O.2       1 RES1   0.0000
    21 O11      5.2770  10.1870   5.4676   O.2       1 RES1   0.0000
    22 O12      4.1842   8.2457   6.2314   O.2       1 RES1   0.0000
    23 O13      6.0484   4.2797   2.9515   O.2       1 RES1   0.0000
    24 C1       7.0640   5.1683   6.3118   C.2       1 RES1   0.0000
    25 C2       6.7953   4.2162   7.3780   C.2       1 RES1   0.0000
    26 C3       5.4542   3.9596   7.3409   C.2       1 RES1   0.0000
    27 C4       4.8972   4.7567   6.2743   C.2       1 RES1   0.0000
    28 C5       3.5617   4.9271   5.9034   C.2       1 RES1   0.0000
    29 C6       3.0006   5.6044   4.8136   C.2       1 RES1   0.0000
    30 C7       1.6189   5.9834   4.6092   C.2       1 RES1   0.0000
    31 C8       1.5297   6.4713   3.3354   C.2       1 RES1   0.0000
    32 C9       2.8756   6.4087   2.7783   C.2       1 RES1   0.0000
    33 C10      3.3018   6.6671   1.4816   C.2       1 RES1   0.0000
    34 C11      4.5954   6.6916   0.9503   C.2       1 RES1   0.0000
    35 C12      5.0030   6.6336  -0.4498   C.2       1 RES1   0.0000
    36 C13      6.3640   6.7669  -0.4590   C.2       1 RES1   0.0000
    37 C14      6.7794   6.9165   0.9242   C.2       1 RES1   0.0000
    38 C15      8.0535   7.1912   1.4164   C.2       1 RES1   0.0000
    39 C16      8.5659   7.1060   2.7070   C.2       1 RES1   0.0000
    40 C17      9.8403   7.5666   3.2323   C.2       1 RES1   0.0000
    41 C18      9.8798   7.1912   4.5528   C.2       1 RES1   0.0000
    42 C19      8.6402   6.4885   4.8188   C.2       1 RES1   0.0000
    43 C20      8.2805   5.7631   5.9645   C.2       1 RES1   0.0000
    44 C21      7.7766   3.4800   8.2535   C.3       1 RES1   0.0000
    45 H1       7.3127   3.1617   9.0692   H         1 RES1   0.0000
    46 H2       8.4946   4.1011   8.5345   H         1 RES1   0.0000
    47 C22      8.3969   2.2840   7.5229   C.3       1 RES1   0.0000
    48 H3       9.0031   1.8098   8.1301   H         1 RES1   0.0000
    49 H4       8.8984   2.6014   6.7440   H         1 RES1   0.0000
    50 H5       7.6867   1.6765   7.2293   H         1 RES1   0.0000
    51 C23      4.7784   2.9441   8.2368   C.3       1 RES1   0.0000
    52 H6       5.3549   2.1399   8.2986   H         1 RES1   0.0000
    53 H7       3.9221   2.6694   7.8201   H         1 RES1   0.0000
    54 C24      4.4954   3.4628   9.6568   C.3       1 RES1   0.0000
    55 H8       4.1263   2.7365  10.2014   H         1 RES1   0.0000
    56 H9       3.8497   4.1981   9.6128   H         1 RES1   0.0000
    57 H10      5.3305   3.7837  10.0599   H         1 RES1   0.0000
    58 C25      0.5177   6.0886   5.6277   C.3       1 RES1   0.0000
    59 H11      0.4898   5.2626   6.1734   H         1 RES1   0.0000
    60 H12     -0.3530   6.1802   5.1647   H         1 RES1   0.0000
    61 C26      0.7418   7.2955   6.5400   C.3       1 RES1   0.0000
    62 H13     -0.0235   7.3952   7.1439   H         1 RES1   0.0000
    63 H14      0.8339   8.1052   5.9937   H         1 RES1   0.0000
    64 H15      1.5585   7.1613   7.0653   H         1 RES1   0.0000
    65 C27      0.2809   7.0452   2.7243   C.3       1 RES1   0.0000
    66 H16      0.5327   7.5902   1.9365   H         1 RES1   0.0000
    67 H17     -0.1508   7.6464   3.3810   H         1 RES1   0.0000
    68 C28     -0.7339   5.9807   2.2878   C.3       1 RES1   0.0000
    69 H18     -1.5343   6.4187   1.9320   H         1 RES1   0.0000
    70 H19     -0.9790   5.4285   3.0597   H         1 RES1   0.0000
    71 H20     -0.3364   5.4140   1.5950   H         1 RES1   0.0000
    72 C29      4.1561   6.2917  -1.6512   C.3       1 RES1   0.0000
    73 H21      4.6044   6.6172  -2.4712   H         1 RES1   0.0000
    74 H22      3.2818   6.7505  -1.5770   H         1 RES1   0.0000
    75 C30      3.9282   4.7902  -1.7649   C.3       1 RES1   0.0000
    76 H23      3.3754   4.6025  -2.5520   H         1 RES1   0.0000
    77 H24      3.4712   4.4674  -0.9593   H         1 RES1   0.0000
    78 H25      4.7914   4.3350  -1.8556   H         1 RES1   0.0000
    79 C31      7.2452   6.5574  -1.6550   C.3       1 RES1   0.0000
    80 H26      7.9455   7.2565  -1.6692   H         1 RES1   0.0000
    81 H27      6.7038   6.6535  -2.4779   H         1 RES1   0.0000
    82 C32      7.9110   5.1765  -1.6476   C.3       1 RES1   0.0000
    83 H28      8.5107   5.0994  -2.4195   H         1 RES1   0.0000
    84 H29      7.2225   4.4819  -1.6984   H         1 RES1   0.0000
    85 H30      8.4245   5.0668  -0.8200   H         1 RES1   0.0000
    86 C33     10.9281   8.3863   2.5720   C.3       1 RES1   0.0000
    87 H31     11.2120   9.0998   3.1968   H         1 RES1   0.0000
    88 H32     10.5543   8.8242   1.7680   H         1 RES1   0.0000
    89 C34     12.1631   7.5675   2.1602   C.3       1 RES1   0.0000
    90 H33     12.8662   8.1723   1.8421   H         1 RES1   0.0000
    91 H34     11.9186   6.9455   1.4445   H         1 RES1   0.0000
    92 H35     12.4927   7.0624   2.9317   H         1 RES1   0.0000
    93 C35     10.9429   7.6446   5.5118   C.3       1 RES1   0.0000
    94 H36     11.7936   7.7860   5.0232   H         1 RES1   0.0000
    95 H37     11.0924   6.9446   6.1959   H         1 RES1   0.0000
    96 C36     10.5181   8.9511   6.1961   C.3       1 RES1   0.0000
    97 H38     11.1888   9.2032   6.8631   H         1 RES1   0.0000
    98 H39      9.6519   8.8224   6.6362   H         1 RES1   0.0000
    99 H40     10.4412   9.6611   5.5264   H         1 RES1   0.0000
   100 C37      6.3849   1.8443   1.6301   C.3       1 RES1   0.0000
   101 H41      5.9522   2.6259   1.2266   H         1 RES1   0.0000
   102 H42      5.7167   1.1479   1.7927   H         1 RES1   0.0000
   103 H43      7.0709   1.5015   1.0199   H         1 RES1   0.0000
   104 C38      7.8887   1.2576   3.5003   C.3       1 RES1   0.0000
   105 H44      8.1455   1.5732   4.3919   H         1 RES1   0.0000
   106 H45      8.6915   1.1506   2.9474   H         1 RES1   0.0000
   107 H46      7.4294   0.3953   3.5787   H         1 RES1   0.0000
   108 C39      6.7690   3.3757   3.4358   C.2       1 RES1   0.0000
   109 H47      7.1808   3.5462   4.2751   H         1 RES1   0.0000
   110 Cl1      5.3622   8.7768   5.6479   Cl        1 RES1   0.0000
   111 C40      2.2816   1.5414   2.0749   C.3       2 RES2   0.0000
   112 H48      2.8098   0.9648   1.4512   H         2 RES2   0.0000
   113 Cl2      3.0464   3.1170   2.1526   Cl        2 RES2   0.0000
   114 Cl3      2.2983   0.7956   3.6742   Cl        2 RES2   0.0000
   115 Cl4      0.6618   1.6611   1.4710   Cl        2 RES2   0.0000
   116 C41     13.7576   5.1801  -1.5685   C.3       3 RES3   0.0000
   117 H49     13.8753   4.2688  -1.1727   H         3 RES3   0.0000
   118 Cl5     14.3347   5.1454  -3.2235   Cl        3 RES3   0.0000
   119 Cl6     12.0557   5.5797  -1.5355   Cl        3 RES3   0.0000
   120 Cl7     14.6655   6.3336  -0.5960   Cl        3 RES3   0.0000
@<TRIPOS>BOND
     1     1     2    1
     2     2    24    1
     3     3     1    1
     4     4     1    1
     5     5     1    1
     6     6    11    2
     7     7    13    2
     8     8    15    2
     9     9    17    2
    10    10   100    1
    11    12     6    2
    12    14     7    2
    13    16     8    2
    14    18     9    2
    15    19     1    1
    16    20   110    2
    17    21   110    2
    18    22   110    2
    19    23     1    1
    20    24    25    1
    21    25    26    2
    22    26    27    1
    23    27     2    2
    24    28     6    1
    25    29     3    1
    26    30    29    1
    27    31    30    2
    28    32     3    1
    29    33     7    1
    30    34     4    2
    31    35    34    1
    32    36    35    2
    33    37     4    1
    34    38     8    1
    35    39     5    1
    36    40    39    2
    37    41    40    1
    38    42     5    1
    39    43     9    1
    40    44    25    1
    41    45    44    1
    42    46    44    1
    43    47    44    1
    44    48    47    1
    45    49    47    1
    46    50    47    1
    47    51    26    1
    48    52    51    1
    49    53    51    1
    50    54    51    1
    51    55    54    1
    52    56    54    1
    53    57    54    1
    54    58    30    1
    55    59    58    1
    56    60    58    1
    57    61    58    1
    58    62    61    1
    59    63    61    1
    60    64    61    1
    61    65    31    1
    62    66    65    1
    63    67    65    1
    64    68    65    1
    65    69    68    1
    66    70    68    1
    67    71    68    1
    68    72    35    1
    69    73    72    1
    70    74    72    1
    71    75    72    1
    72    76    75    1
    73    77    75    1
    74    78    75    1
    75    79    36    1
    76    80    79    1
    77    81    79    1
    78    82    79    1
    79    83    82    1
    80    84    82    1
    81    85    82    1
    82    86    40    1
    83    87    86    1
    84    88    86    1
    85    89    86    1
    86    90    89    1
    87    91    89    1
    88    92    89    1
    89    93    41    1
    90    94    93    1
    91    95    93    1
    92    96    93    1
    93    97    96    1
    94    98    96    1
    95    99    96    1
    96   100   101    1
    97   102   100    1
    98   103   100    1
    99   104    10    1
   100   105   104    1
   101   106   104    1
   102   107   104    1
   103   108    10   am
   104   109   108    1
   105   110    19    1
   106    23   108    2
   107    24    43    2
   108    27    28    1
   109    28    29    2
   110    31    32    1
   111    32    33    2
   112    33    34    1
   113    36    37    1
   114    37    38    2
   115    38    39    1
   116    41    42    2
   117    42    43    1
   118   111   112    1
   119   113   111    1
   120   114   111    1
   121   115   111    1
   122   116   117    1
   123   118   116    1
   124   119   116    1
   125   120   116    1
@<TRIPOS>SUBSTRUCTURE
     1 RES1        1 GROUP             0 ****  ****    0  
     2 RES2      111 GROUP             0 ****  ****    0  
     3 RES3      116 GROUP             0 ****  ****    0  
@<TRIPOS>CRYSIN
   24.5510    9.0672   22.4860   90.0000   92.4710   90.0000    14     1
