@<TRIPOS>MOLECULE
RANPED
   129   130    10     0     0
SMALL
USER_CHARGES
****
Generated from the CSD

@<TRIPOS>ATOM
     1 C1       9.1041   1.7070  -0.2384   C.3       1 RES1   0.0000
     2 C2      10.5512   1.7538   0.3200   C.ar      1 RES1   0.0000
     3 C3      11.6660   1.6496  -0.4980   C.ar      1 RES1   0.0000
     4 H1      11.5690   1.5137  -1.4336   H         1 RES1   0.0000
     5 C4      12.9366   1.7458   0.0833   C.ar      1 RES1   0.0000
     6 H2      13.7189   1.6678  -0.4490   H         1 RES1   0.0000
     7 C5      13.0354   1.9594   1.4597   C.ar      1 RES1   0.0000
     8 H3      13.8855   2.0398   1.8745   H         1 RES1   0.0000
     9 C6      11.8749   2.0519   2.2108   C.ar      1 RES1   0.0000
    10 C7      11.7698   2.2164   3.6950   C.2       1 RES1   0.0000
    11 C8      12.8690   2.4676   5.8519   C.3       1 RES1   0.0000
    12 H4      12.0100   2.8662   6.1410   H         1 RES1   0.0000
    13 H5      13.5950   3.0735   6.1410   H         1 RES1   0.0000
    14 C9      13.0423   1.1444   6.5263   C.ar      1 RES1   0.0000
    15 C10     12.2373   0.8551   7.5452   C.ar      1 RES1   0.0000
    16 H6      11.5329   1.4492   7.7787   H         1 RES1   0.0000
    17 C11     12.4201  -0.2673   8.2375   C.ar      1 RES1   0.0000
    18 H7      11.8414  -0.4423   8.9706   H         1 RES1   0.0000
    19 C12     13.4098  -1.1900   7.9468   C.ar      1 RES1   0.0000
    20 H8      13.5163  -1.9782   8.4661   H         1 RES1   0.0000
    21 C13     14.2329  -0.9232   6.8790   C.ar      1 RES1   0.0000
    22 H9      14.9149  -1.5393   6.6390   H         1 RES1   0.0000
    23 C14      8.3486   0.5394   0.4180   C.ar      1 RES1   0.0000
    24 C15      7.9196  -0.5609  -0.3053   C.ar      1 RES1   0.0000
    25 H10      8.1128  -0.6389  -1.2311   H         1 RES1   0.0000
    26 C16      7.2040  -1.5435   0.3543   C.ar      1 RES1   0.0000
    27 H11      6.9012  -2.3080  -0.1208   H         1 RES1   0.0000
    28 C17      6.9261  -1.4150   1.7193   C.ar      1 RES1   0.0000
    29 H12      6.4234  -2.0745   2.1831   H         1 RES1   0.0000
    30 C18      7.4076  -0.2950   2.3643   C.ar      1 RES1   0.0000
    31 C19      7.2252   0.0313   3.8354   C.2       1 RES1   0.0000
    32 C20      6.0639  -0.3358   5.9107   C.3       1 RES1   0.0000
    33 H13      5.1897  -0.7460   6.1279   H         1 RES1   0.0000
    34 H14      5.9389   0.6464   5.9075   H         1 RES1   0.0000
    35 C21      7.0408  -0.6882   6.9998   C.ar      1 RES1   0.0000
    36 C22      8.2582  -1.3312   6.7990   C.ar      1 RES1   0.0000
    37 H15      8.5129  -1.6145   5.9287   H         1 RES1   0.0000
    38 C23      9.0866  -1.5509   7.8685   C.ar      1 RES1   0.0000
    39 H16      9.9159  -1.9981   7.7427   H         1 RES1   0.0000
    40 C24      8.7169  -1.1206   9.1388   C.ar      1 RES1   0.0000
    41 H17      9.2835  -1.2640   9.8882   H         1 RES1   0.0000
    42 C25      7.5104  -0.4846   9.2776   C.ar      1 RES1   0.0000
    43 H18      7.2531  -0.1699  10.1364   H         1 RES1   0.0000
    44 C26      8.4109   3.0457   0.0261   C.ar      1 RES1   0.0000
    45 C27      7.9351   3.8721  -1.0025   C.ar      1 RES1   0.0000
    46 H19      8.0264   3.6128  -1.9120   H         1 RES1   0.0000
    47 C28      7.3288   5.0679  -0.6694   C.ar      1 RES1   0.0000
    48 H20      6.9853   5.6257  -1.3569   H         1 RES1   0.0000
    49 C29      7.2155   5.4670   0.6515   C.ar      1 RES1   0.0000
    50 H21      6.8131   6.2951   0.8833   H         1 RES1   0.0000
    51 C30      7.7076   4.6108   1.6165   C.ar      1 RES1   0.0000
    52 C31      7.7008   4.8110   3.1154   C.2       1 RES1   0.0000
    53 C32      7.0865   6.1926   5.0078   C.3       1 RES1   0.0000
    54 H22      6.5339   5.4610   5.3850   H         1 RES1   0.0000
    55 H23      6.5867   7.0379   5.1384   H         1 RES1   0.0000
    56 C33      8.3586   6.2718   5.7915   C.ar      1 RES1   0.0000
    57 C34      8.3389   6.3804   7.1696   C.ar      1 RES1   0.0000
    58 H24      7.5108   6.4406   7.6317   H         1 RES1   0.0000
    59 C35      9.5348   6.3993   7.8717   C.ar      1 RES1   0.0000
    60 H25      9.5272   6.4768   8.8187   H         1 RES1   0.0000
    61 C36     10.7427   6.3051   7.1941   C.ar      1 RES1   0.0000
    62 H26     11.5662   6.2954   7.6660   H         1 RES1   0.0000
    63 C37     10.7176   6.2288   5.8389   C.ar      1 RES1   0.0000
    64 H27     11.5352   6.1765   5.3588   H         1 RES1   0.0000
    65 N1      10.6717   1.9468   1.6393   N.ar      1 RES1   0.0000
    66 N2      12.8815   2.3720   4.4004   N.am      1 RES1   0.0000
    67 H37     13.6520   2.4170   3.9775   H         1 RES1   0.0000
    68 N3      14.0647   0.2407   6.1524   N.ar      1 RES1   1.0000
    69 N4       8.1081   0.6397   1.7340   N.ar      1 RES1   0.0000
    70 N5       6.4527  -0.7571   4.5686   N.am      1 RES1   0.0000
    71 H38      6.1778  -1.5296   4.2502   H         1 RES1   0.0000
    72 N6       6.6772  -0.2916   8.2358   N.ar      1 RES1   1.0000
    73 N7       8.2871   3.4207   1.3095   N.ar      1 RES1   0.0000
    74 N8       7.2348   5.9635   3.5807   N.am      1 RES1   0.0000
    75 H39      7.0129   6.6003   3.0158   H         1 RES1   0.0000
    76 N9       9.5386   6.2265   5.1580   N.ar      1 RES1   0.0000
    77 O1       9.1131   1.4138  -1.6165   O.3       1 RES1   0.0000
    78 H40      9.7201   1.8543  -1.9936   H         1 RES1   0.0000
    79 O2      10.6412   2.2030   4.2224   O.2       1 RES1   0.0000
    80 O3       7.7846   1.0437   4.2926   O.2       1 RES1   0.0000
    81 O4       8.1743   3.9441   3.8697   O.2       1 RES1   0.0000
    82 Fe1      8.9615   2.1960   2.9472   Fe        1 RES1   2.0000
    83 C38     14.4848   5.9840   5.6560   C.1       2 RES2   0.0000
    84 C39     15.2020   6.4954   4.5278   C.3       2 RES2   0.0000
    85 H28     15.2856   7.4684   4.6078   H         2 RES2   0.0000
    86 H29     14.7167   6.2755   3.7048   H         2 RES2   0.0000
    87 H30     16.0951   6.0917   4.4984   H         2 RES2   0.0000
    88 N10     13.9363   5.5790   6.5671   N.1       2 RES2   0.0000
    89 C40     12.8936   9.4139   4.9278   C.1       3 RES3   0.0000
    90 C41     12.3738   9.6456   3.5464   C.3       3 RES3   0.0000
    91 H31     11.4299   9.9063   3.5922   H         3 RES3   0.0000
    92 H32     12.4616   8.8231   3.0223   H         3 RES3   0.0000
    93 H33     12.8899  10.3619   3.1203   H         3 RES3   0.0000
    94 N11     13.2696   9.2741   5.9760   N.1       3 RES3   0.0000
    95 C42      4.4269   6.2964   8.5134   C.1       4 RES4   0.0000
    96 C43      3.6764   6.4174   9.7478   C.3       4 RES4   0.0000
    97 H34      2.7674   6.0785   9.6123   H         4 RES4   0.0000
    98 H35      3.6373   7.3589  10.0156   H         4 RES4   0.0000
    99 H36      4.1169   5.8953  10.4499   H         4 RES4   0.0000
   100 N12      4.9929   6.1707   7.5288   N.1       4 RES4   0.0000
   101 O5       5.3051   3.0011   2.6745   O.3       5 RES5  -1.0000
   102 O6       4.2488   1.3533   3.8991   O.2       5 RES5   0.0000
   103 O7       4.9935   3.2699   4.9637   O.2       5 RES5   0.0000
   104 O8       3.1566   3.3445   3.5105   O.2       5 RES5   0.0000
   105 Cl1      4.4458   2.7582   3.7580   Cl        5 RES5   0.0000
   106 O9       9.8184  -1.4049   3.5497   O.3       6 RES6  -1.0000
   107 O10     11.1129  -1.3914   5.4601   O.2       6 RES6   0.0000
   108 O11     12.0318  -0.6755   3.4697   O.2       6 RES6   0.0000
   109 O12     11.5271  -2.9304   3.7473   O.2       6 RES6   0.0000
   110 Cl2     11.1034  -1.5647   4.0737   Cl        6 RES6   0.0000
   111 O13     11.0711   4.9785   0.9307   O.3       7 RES7  -1.0000
   112 O14     12.0447   5.2858   2.9929   O.2       7 RES7   0.0000
   113 O15     10.1343   6.4988   2.4639   O.2       7 RES7   0.0000
   114 O16     12.1139   6.9806   1.3634   O.2       7 RES7   0.0000
   115 Cl3     11.3774   5.9298   1.9350   Cl        7 RES7   0.0000
   116 O17      9.6722   9.2044   5.4797   O.3       8 RES8  -1.0000
   117 O18      7.4790   9.4106   4.8478   O.2       8 RES8   0.0000
   118 O19      8.4065  10.9533   6.3271   O.2       8 RES8   0.0000
   119 O20      9.0209  10.9822   4.0967   O.2       8 RES8   0.0000
   120 Cl4      8.6505  10.1360   5.1797   Cl        8 RES8   0.0000
   121 O21     10.4100   3.2444  -3.1366   O.3       9 RES9   0.0000
   122 H41      9.9599   2.5454  -2.9243   H         9 RES9   0.0000
   123 H42     10.5352   3.6758  -2.4018   H         9 RES9   0.0000
   124 N13      5.5519   7.9253   2.3708   N.1      10 RES10   0.0000
   125 C44      2.9602   8.6367   1.4189   C.3      10 RES10   0.0000
   126 H43      3.0382   8.8817   0.4735   H        10 RES10   0.0000
   127 H44      2.5613   9.3797   1.9169   H        10 RES10   0.0000
   128 H45      2.3914   7.8426   1.5038   H        10 RES10   0.0000
   129 C45      4.5546   8.2859   2.0655   C.1      10 RES10   0.0000
@<TRIPOS>BOND
     1     1     2    1
     2     2     3   ar
     3     3     4    1
     4     5     3   ar
     5     6     5    1
     6     7     5   ar
     7     8     7    1
     8     9     7   ar
     9    10     9    1
    10    11    12    1
    11    13    11    1
    12    14    11    1
    13    15    14   ar
    14    16    15    1
    15    17    15   ar
    16    18    17    1
    17    19    17   ar
    18    20    19    1
    19    21    19   ar
    20    22    21    1
    21    23     1    1
    22    24    23   ar
    23    25    24    1
    24    26    24   ar
    25    27    26    1
    26    28    26   ar
    27    29    28    1
    28    30    28   ar
    29    31    30    1
    30    32    33    1
    31    34    32    1
    32    35    32    1
    33    36    35   ar
    34    37    36    1
    35    38    36   ar
    36    39    38    1
    37    40    38   ar
    38    41    40    1
    39    42    40   ar
    40    43    42    1
    41    44     1    1
    42    45    44   ar
    43    46    45    1
    44    47    45   ar
    45    48    47    1
    46    49    47   ar
    47    50    49    1
    48    51    49   ar
    49    52    51    1
    50    53    54    1
    51    55    53    1
    52    56    53    1
    53    57    56   ar
    54    58    57    1
    55    59    57   ar
    56    60    59    1
    57    61    59   ar
    58    62    61    1
    59    63    61   ar
    60    64    63    1
    61    65     2   ar
    62    66    10   am
    63    67    66    1
    64    68    14   ar
    65    69    23   ar
    66    70    31   am
    67    71    70    1
    68    72    35   ar
    69    73    44   ar
    70    74    52   am
    71    75    74    1
    72    76    56   ar
    73    77     1    1
    74    78    77    1
    75    79    10    2
    76    80    31    2
    77    81    52    2
    78    82    65    1
    79     9    65   ar
    80    11    66    1
    81    21    68   ar
    82    30    69   ar
    83    32    70    1
    84    42    72   ar
    85    51    73   ar
    86    53    74    1
    87    63    76   ar
    88    69    82    1
    89    73    82    1
    90    79    82    1
    91    80    82    1
    92    81    82    1
    93    83    84    1
    94    84    85    1
    95    86    84    1
    96    87    84    1
    97    88    83    3
    98    89    90    1
    99    90    91    1
   100    92    90    1
   101    93    90    1
   102    94    89    3
   103    95    96    1
   104    96    97    1
   105    98    96    1
   106    99    96    1
   107   100    95    3
   108   101   105    1
   109   102   105    2
   110   103   105    2
   111   104   105    2
   112   106   110    1
   113   107   110    2
   114   108   110    2
   115   109   110    2
   116   111   115    1
   117   112   115    2
   118   113   115    2
   119   114   115    2
   120   116   120    1
   121   117   120    2
   122   118   120    2
   123   119   120    2
   124   121   122    1
   125   123   121    1
   126   124   129    3
   127   125   126    1
   128   127   125    1
   129   128   125    1
   130   129   125    1
@<TRIPOS>SUBSTRUCTURE
     1 RES1        1 GROUP             0 ****  ****    0  
     2 RES2       83 GROUP             0 ****  ****    0  
     3 RES3       89 GROUP             0 ****  ****    0  
     4 RES4       95 GROUP             0 ****  ****    0  
     5 RES5      101 GROUP             0 ****  ****    0  
     6 RES6      106 GROUP             0 ****  ****    0  
     7 RES7      111 GROUP             0 ****  ****    0  
     8 RES8      116 GROUP             0 ****  ****    0  
     9 RES9      121 GROUP             0 ****  ****    0  
    10 RES10     124 GROUP             0 ****  ****    0  
@<TRIPOS>CRYSIN
   12.2980   14.7370   16.9800   80.1410   75.3740   74.4670     2     1
