@<TRIPOS>MOLECULE
RAVHEF01
   101   110     5     0     0
SMALL
USER_CHARGES
****
Generated from the CSD

@<TRIPOS>ATOM
     1 Fe1      1.2056  13.6615  15.1792   Fe        1 RES1   2.0000
     2 N1       0.0484  12.1956  14.2812   N.2       1 RES1   0.0000
     3 N2       0.4336  13.6071  17.0369   N.ar      1 RES1   0.0000
     4 N3       1.9906  13.5370  13.3312   N.ar      1 RES1   0.0000
     5 N4       2.4047  12.2449  16.1461   N.2       1 RES1   0.0000
     6 N5      -0.3041  15.0925  15.0883   N.2       1 RES1   0.0000
     7 N6       2.6940  15.0944  15.2012   N.2       1 RES1   0.0000
     8 N7      -0.9620  11.3544  14.5957   N.pl3     1 RES1   0.0000
     9 H1      -1.3681  11.3430  15.3538   H         1 RES1   0.0000
    10 C1       0.4050  11.8659  13.0179   C.2       1 RES1   0.0000
    11 C2       0.9287  12.7545  17.9469   C.ar      1 RES1   0.0000
    12 N8       3.4133  11.3980  15.8592   N.pl3     1 RES1   0.0000
    13 H2       3.8389  11.3809  15.1125   H         1 RES1   0.0000
    14 C3       3.0089  14.3460  12.9792   C.ar      1 RES1   0.0000
    15 N9       3.2540  15.9507  16.0709   N.pl3     1 RES1   0.0000
    16 H3       2.9713  16.0909  16.8700   H         1 RES1   0.0000
    17 C4       1.4842  12.6503  12.4510   C.ar      1 RES1   0.0000
    18 N10     -0.8442  15.9469  14.2154   N.pl3     1 RES1   0.0000
    19 H4      -0.5775  16.0417  13.4027   H         1 RES1   0.0000
    20 C5       3.4256  15.1986  14.0743   C.2       1 RES1   0.0000
    21 C6      -0.9940  15.2573  16.2303   C.2       1 RES1   0.0000
    22 C7       2.0213  11.9512  17.4005   C.2       1 RES1   0.0000
    23 C8      -0.5862  14.4275  17.3527   C.ar      1 RES1   0.0000
    24 C9       2.0065  12.5291  11.1761   C.ar      1 RES1   0.0000
    25 H5       1.6771  11.8963  10.5796   H         1 RES1   0.0000
    26 C10      0.4225  12.6996  19.2355   C.ar      1 RES1   0.0000
    27 H6       0.7664  12.1028  19.8616   H         1 RES1   0.0000
    28 C11      3.5496  14.2967  11.7066   C.ar      1 RES1   0.0000
    29 H7       4.2420  14.8670  11.4630   H         1 RES1   0.0000
    30 C12     -1.1193  14.4218  18.6322   C.ar      1 RES1   0.0000
    31 H8      -1.8161  14.9958  18.8576   H         1 RES1   0.0000
    32 C13     -0.3970  10.8372  12.5558   C.2       1 RES1   0.0000
    33 H9      -0.3565  10.4317  11.7202   H         1 RES1   0.0000
    34 C14      3.0399  13.3873  10.8073   C.ar      1 RES1   0.0000
    35 H10      3.3896  13.3456   9.9467   H         1 RES1   0.0000
    36 C15     -0.6065  13.5578  19.5610   C.ar      1 RES1   0.0000
    37 H11     -0.9554  13.5503  20.4239   H         1 RES1   0.0000
    38 C16     -1.2512  10.5340  13.5620   C.2       1 RES1   0.0000
    39 H12     -1.9142   9.8823  13.5461   H         1 RES1   0.0000
    40 C17      2.7810  10.8902  17.8831   C.2       1 RES1   0.0000
    41 H13      2.7024  10.4715  18.7096   H         1 RES1   0.0000
    42 C18      3.6616  10.5928  16.8905   C.2       1 RES1   0.0000
    43 H14      4.3226   9.9410  16.9269   H         1 RES1   0.0000
    44 C19      4.4538  16.1288  14.2542   C.2       1 RES1   0.0000
    45 H15      5.0930  16.3960  13.6326   H         1 RES1   0.0000
    46 C20      4.3133  16.5532  15.5177   C.2       1 RES1   0.0000
    47 H16      4.8646  17.1690  15.9457   H         1 RES1   0.0000
    48 C21     -1.9768  16.2141  16.0595   C.2       1 RES1   0.0000
    49 H17     -2.5930  16.5115  16.6879   H         1 RES1   0.0000
    50 C22     -1.8383  16.6252  14.7550   C.2       1 RES1   0.0000
    51 H18     -2.3569  17.2675  14.3293   H         1 RES1   0.0000
    52 F1       1.1960  10.6685   8.6782   F         2 RES2   0.0000
    53 F2       1.8940  10.4412   6.5545   F         2 RES2   0.0000
    54 F3       1.7908  12.4438   7.4902   F         2 RES2   0.0000
    55 F4       3.3152  10.9906   8.1436   F         2 RES2   0.0000
    56 B1       2.0419  11.1403   7.6928   B         2 RES2  -1.0000
    57 F5       6.7707  17.8093  12.3896   F         3 RES3   0.0000
    58 F6       7.4197  17.7335  10.2609   F         3 RES3   0.0000
    59 F7       6.8038  15.8920  11.2717   F         3 RES3   0.0000
    60 F8       5.3579  17.3433  10.8187   F         3 RES3   0.0000
    61 B2       6.5866  17.2182  11.1920   B         3 RES3  -1.0000
    62 N11      5.1571  11.5931  13.5279   N.ar      4 RES4   0.0000
    63 C23      7.1182  11.7220   9.7441   C.ar      4 RES4   0.0000
    64 C24      6.4632  11.6708  11.0691   C.ar      4 RES4   0.0000
    65 N12      8.3223  11.9190   7.2261   N.ar      4 RES4   0.0000
    66 C25      8.3084  12.4324   9.5437   C.ar      4 RES4   0.0000
    67 H19      8.7271  12.8625  10.2541   H         4 RES4   0.0000
    68 C26      6.5908  11.0929   8.6445   C.ar      4 RES4   0.0000
    69 H20      5.8142  10.5890   8.7242   H         4 RES4   0.0000
    70 C27      5.7026  10.5852  11.4470   C.ar      4 RES4   0.0000
    71 H21      5.6107   9.8501  10.8824   H         4 RES4   0.0000
    72 C28      6.6110  12.6806  11.9957   C.ar      4 RES4   0.0000
    73 H22      7.1629  13.4044  11.8090   H         4 RES4   0.0000
    74 C29      5.0845  10.6060  12.6719   C.ar      4 RES4   0.0000
    75 H23      4.5756   9.8652  12.9109   H         4 RES4   0.0000
    76 C30      8.8441  12.4874   8.2893   C.ar      4 RES4   0.0000
    77 H24      9.6364  12.9610   8.1778   H         4 RES4   0.0000
    78 C31      7.2202  11.2123   7.4105   C.ar      4 RES4   0.0000
    79 H25      6.8488  10.7728   6.6797   H         4 RES4   0.0000
    80 C32      5.9369  12.6143  13.2046   C.ar      4 RES4   0.0000
    81 H26      6.0357  13.3134  13.8125   H         4 RES4   0.0000
    82 N13      0.3150  16.2747  11.6838   N.ar      5 RES5   0.0000
    83 N14      3.8023  16.8488   5.5937   N.ar      5 RES5   0.0000
    84 C33      1.6568  16.5684   9.2683   C.ar      5 RES5   0.0000
    85 C34      2.3861  16.6915   7.9615   C.ar      5 RES5   0.0000
    86 C35      0.4457  15.8996   9.3502   C.ar      5 RES5   0.0000
    87 H27      0.0449  15.5566   8.5853   H         5 RES5   0.0000
    88 C36      2.1529  15.7992   6.9438   C.ar      5 RES5   0.0000
    89 H28      1.5118  15.1304   7.0258   H         5 RES5   0.0000
    90 C37      2.9089  15.9356   5.7895   C.ar      5 RES5   0.0000
    91 H29      2.7621  15.3217   5.1065   H         5 RES5   0.0000
    92 C38      2.1166  17.1746  10.3952   C.ar      5 RES5   0.0000
    93 H30      2.8842  17.6994  10.3747   H         5 RES5   0.0000
    94 C39      1.4111  16.9890  11.5791   C.ar      5 RES5   0.0000
    95 H31      1.7374  17.3982  12.3486   H         5 RES5   0.0000
    96 C40     -0.1577  15.7537  10.5819   C.ar      5 RES5   0.0000
    97 H32     -0.9426  15.2573  10.6320   H         5 RES5   0.0000
    98 C41      3.9965  17.7241   6.5704   C.ar      5 RES5   0.0000
    99 H33      4.6111  18.4080   6.4452   H         5 RES5   0.0000
   100 C42      3.3181  17.6521   7.7702   C.ar      5 RES5   0.0000
   101 H34      3.5016  18.2640   8.4464   H         5 RES5   0.0000
@<TRIPOS>BOND
     1     1     2    1
     2     2     8    1
     3     3     1    1
     4     4     1    1
     5     5     1    1
     6     6     1    1
     7     7     1    1
     8     8     9    1
     9    10     2    2
    10    11     3   ar
    11    12     5    1
    12    13    12    1
    13    14     4   ar
    14    15     7    1
    15    16    15    1
    16    17     4   ar
    17    18     6    1
    18    19    18    1
    19    20     7    2
    20    21     6    2
    21    22     5    2
    22    23     3   ar
    23    24    17   ar
    24    25    24    1
    25    26    11   ar
    26    27    26    1
    27    28    14   ar
    28    29    28    1
    29    30    23   ar
    30    31    30    1
    31    32    10    1
    32    33    32    1
    33    34    24   ar
    34    35    34    1
    35    36    26   ar
    36    37    36    1
    37    38     8    1
    38    39    38    1
    39    40    22    1
    40    41    40    1
    41    42    12    1
    42    43    42    1
    43    44    20    1
    44    45    44    1
    45    46    15    1
    46    47    46    1
    47    48    21    1
    48    49    48    1
    49    50    18    1
    50    51    50    1
    51    10    17    1
    52    11    22    1
    53    14    20    1
    54    21    23    1
    55    28    34   ar
    56    30    36   ar
    57    32    38    2
    58    40    42    2
    59    44    46    2
    60    48    50    2
    61    52    56    1
    62    53    56    1
    63    54    56    1
    64    55    56    1
    65    57    61    1
    66    58    61    1
    67    59    61    1
    68    60    61    1
    69    62    74   ar
    70    63    64    1
    71    64    70   ar
    72    65    76   ar
    73    66    63   ar
    74    67    66    1
    75    68    63   ar
    76    69    68    1
    77    70    71    1
    78    72    64   ar
    79    73    72    1
    80    74    70   ar
    81    75    74    1
    82    76    66   ar
    83    77    76    1
    84    78    65   ar
    85    79    78    1
    86    80    62   ar
    87    81    80    1
    88    68    78   ar
    89    72    80   ar
    90    82    94   ar
    91    83    90   ar
    92    84    85    1
    93    85    88   ar
    94    86    84   ar
    95    87    86    1
    96    88    89    1
    97    90    88   ar
    98    91    90    1
    99    92    84   ar
   100    93    92    1
   101    94    92   ar
   102    95    94    1
   103    96    82   ar
   104    97    96    1
   105    98    83   ar
   106    99    98    1
   107   100    85   ar
   108   101   100    1
   109    86    96   ar
   110    98   100   ar
@<TRIPOS>SUBSTRUCTURE
     1 RES1        1 GROUP             0 ****  ****    0  
     2 RES2       52 GROUP             0 ****  ****    0  
     3 RES3       57 GROUP             0 ****  ****    0  
     4 RES4       62 GROUP             0 ****  ****    0  
     5 RES5       82 GROUP             0 ****  ****    0  
@<TRIPOS>CRYSIN
   10.2889   18.9461   22.8834   90.0000   95.7920   90.0000   231     1
