@<TRIPOS>MOLECULE
RAVHEF02
   101   110     5     0     0
SMALL
USER_CHARGES
****
Generated from the CSD

@<TRIPOS>ATOM
     1 Fe1      0.4369  -0.1399  16.3618   Fe        1 RES1   2.0000
     2 N1      -0.2927   0.4333  18.0612   N.ar      1 RES1   0.0000
     3 N2       1.1905  -0.8182  14.7090   N.ar      1 RES1   0.0000
     4 N3       1.5692  -1.1813  17.6386   N.2       1 RES1   0.0000
     5 N4      -0.7334  -1.7188  16.0212   N.2       1 RES1   0.0000
     6 N5      -0.9511   1.1599  15.7604   N.2       1 RES1   0.0000
     7 N6       1.8843   1.1774  16.0411   N.2       1 RES1   0.0000
     8 N7       2.5722  -2.0707  17.5946   N.pl3     1 RES1   0.0000
     9 H1       2.9638  -2.3290  16.8731   H         1 RES1   0.0000
    10 N8      -1.7490  -2.3653  16.6319   N.pl3     1 RES1   0.0000
    11 H2      -2.1512  -2.0872  17.3390   H         1 RES1   0.0000
    12 N9      -1.4279   1.6527  14.6072   N.pl3     1 RES1   0.0000
    13 H3      -1.1383   1.4369  13.8272   H         1 RES1   0.0000
    14 N10      2.4082   2.2547  16.6392   N.pl3     1 RES1   0.0000
    15 H4       2.1128   2.5990  17.3692   H         1 RES1   0.0000
    16 C1       0.6946  -1.9511  14.1620   C.ar      1 RES1   0.0000
    17 C2      -1.3001   1.3419  18.0884   C.ar      1 RES1   0.0000
    18 C3       1.2504  -1.0459  18.9364   C.2       1 RES1   0.0000
    19 C4      -1.6658   1.7426  16.7462   C.2       1 RES1   0.0000
    20 C5       2.6332   0.9718  14.9342   C.2       1 RES1   0.0000
    21 C6       0.1770  -0.0879  19.2058   C.ar      1 RES1   0.0000
    22 C7      -0.3962  -2.4777  14.9664   C.2       1 RES1   0.0000
    23 C8       2.2313  -0.1813  14.1380   C.ar      1 RES1   0.0000
    24 C9       2.7860  -0.6310  12.9525   C.ar      1 RES1   0.0000
    25 H5       3.4902  -0.1754  12.5523   H         1 RES1   0.0000
    26 C10      2.2608  -1.7845  12.3742   C.ar      1 RES1   0.0000
    27 H6       2.6122  -2.1055  11.5752   H         1 RES1   0.0000
    28 C11      1.2152  -2.4559  12.9889   C.ar      1 RES1   0.0000
    29 H7       0.8697  -3.2344  12.6149   H         1 RES1   0.0000
    30 C12     -0.3219   0.2958  20.4351   C.ar      1 RES1   0.0000
    31 H8       0.0138  -0.0696  21.2218   H         1 RES1   0.0000
    32 C13      2.0530  -1.8668  19.7278   C.2       1 RES1   0.0000
    33 H9       2.0359  -1.9658  20.6524   H         1 RES1   0.0000
    34 C14     -1.2007  -3.6204  14.9144   C.2       1 RES1   0.0000
    35 H10     -1.1691  -4.3099  14.2931   H         1 RES1   0.0000
    36 C15     -1.8394   1.7711  19.2925   C.ar      1 RES1   0.0000
    37 H11     -2.5222   2.4024  19.3085   H         1 RES1   0.0000
    38 C16      2.8804  -2.5008  18.8166   C.2       1 RES1   0.0000
    39 H12      3.5414  -3.1219  19.0237   H         1 RES1   0.0000
    40 C17     -1.3412   1.2427  20.4640   C.ar      1 RES1   0.0000
    41 H13     -1.6887   1.5212  21.2801   H         1 RES1   0.0000
    42 C18     -2.0456  -3.4975  15.9843   C.2       1 RES1   0.0000
    43 H14     -2.7137  -4.1000  16.2216   H         1 RES1   0.0000
    44 C19     -2.6114   2.6168  16.1979   C.2       1 RES1   0.0000
    45 H15     -3.2314   3.1408  16.6509   H         1 RES1   0.0000
    46 C20      3.6394   1.9298  14.8432   C.2       1 RES1   0.0000
    47 H16      4.2900   2.0116  14.1853   H         1 RES1   0.0000
    48 C21     -2.4191   2.5288  14.8411   C.2       1 RES1   0.0000
    49 H17     -2.8951   2.9973  14.1939   H         1 RES1   0.0000
    50 C22      3.4541   2.7264  15.9477   C.2       1 RES1   0.0000
    51 H18      3.9677   3.4676  16.1742   H         1 RES1   0.0000
    52 F1       4.4090   5.4330  19.6659   F         2 RES2   0.0000
    53 F2       4.9873   5.0438  17.5483   F         2 RES2   0.0000
    54 F3       4.9990   3.3555  19.0367   F         2 RES2   0.0000
    55 F4       6.5477   4.9837  19.1553   F         2 RES2   0.0000
    56 B1       5.2428   4.6972  18.8533   B         2 RES2  -1.0000
    57 N11      7.2107   6.3079   9.4355   N.ar      3 RES3   0.0000
    58 N12      3.5315   7.4932  15.3812   N.ar      3 RES3   0.0000
    59 C23      5.8170   6.7161  11.8299   C.ar      3 RES3   0.0000
    60 C24      5.0471   6.9653  13.0826   C.ar      3 RES3   0.0000
    61 C25      5.3326   5.8434  10.8547   C.ar      3 RES3   0.0000
    62 H19      4.5360   5.3786  10.9820   H         3 RES3   0.0000
    63 C26      5.1719   8.1765  13.7646   C.ar      3 RES3   0.0000
    64 H20      5.7595   8.8334  13.4691   H         3 RES3   0.0000
    65 C27      6.0742   5.6875   9.6870   C.ar      3 RES3   0.0000
    66 H21      5.7465   5.1053   9.0405   H         3 RES3   0.0000
    67 C28      7.0296   7.3325  11.5859   C.ar      3 RES3   0.0000
    68 H22      7.4008   7.8974  12.2245   H         3 RES3   0.0000
    69 C29      7.6836   7.1127  10.4017   C.ar      3 RES3   0.0000
    70 H23      8.4952   7.5426  10.2615   H         3 RES3   0.0000
    71 C30      4.1562   6.0326  13.5856   C.ar      3 RES3   0.0000
    72 H24      4.0522   5.2099  13.1650   H         3 RES3   0.0000
    73 C31      4.3972   8.3728  14.8907   C.ar      3 RES3   0.0000
    74 H25      4.4896   9.1807  15.3415   H         3 RES3   0.0000
    75 C32      3.4233   6.3304  14.7181   C.ar      3 RES3   0.0000
    76 H26      2.8246   5.6939  15.0374   H         3 RES3   0.0000
    77 N13      6.6224  -1.3467  18.6700   N.ar      4 RES4   0.0000
    78 N14      3.3999   1.3185  24.3605   N.ar      4 RES4   0.0000
    79 C33      4.5790   0.1532  22.1149   C.ar      4 RES4   0.0000
    80 C34      5.2439  -0.3961  20.9155   C.ar      4 RES4   0.0000
    81 C35      6.0348  -1.5304  20.9803   C.ar      4 RES4   0.0000
    82 H27      6.1230  -1.9985  21.7784   H         4 RES4   0.0000
    83 C36      5.1333   0.2283  19.6773   C.ar      4 RES4   0.0000
    84 H28      4.5954   0.9798  19.5760   H         4 RES4   0.0000
    85 C37      3.3793   0.8308  22.0221   C.ar      4 RES4   0.0000
    86 H29      2.9455   0.9134  21.2024   H         4 RES4   0.0000
    87 C38      2.8336   1.3857  23.1654   C.ar      4 RES4   0.0000
    88 H30      2.0214   1.8320  23.0921   H         4 RES4   0.0000
    89 C39      5.1476   0.0330  23.3811   C.ar      4 RES4   0.0000
    90 H31      5.9353  -0.4473  23.5019   H         4 RES4   0.0000
    91 C40      6.6977  -1.9602  19.8327   C.ar      4 RES4   0.0000
    92 H32      7.2225  -2.7259  19.8909   H         4 RES4   0.0000
    93 C41      5.8307  -0.2796  18.5988   C.ar      4 RES4   0.0000
    94 H33      5.7419   0.1488  17.7769   H         4 RES4   0.0000
    95 C42      4.5260   0.6366  24.4468   C.ar      4 RES4   0.0000
    96 H34      4.9252   0.5591  25.2837   H         4 RES4   0.0000
    97 F5       5.8106   0.9946  12.0303   F         5 RES5   0.0000
    98 F6       5.3895   3.1422  12.4184   F         5 RES5   0.0000
    99 F7       5.1922   2.3520  10.3499   F         5 RES5   0.0000
   100 B2       5.7701   2.2507  11.5342   B         5 RES5  -1.0000
   101 F8       6.9945   2.5756  11.2192   F         5 RES5   0.0000
@<TRIPOS>BOND
     1     1     2    1
     2     2    17   ar
     3     3     1    1
     4     4     1    1
     5     5     1    1
     6     6     1    1
     7     7     1    1
     8     8     4    1
     9     9     8    1
    10    10     5    1
    11    11    10    1
    12    12     6    1
    13    13    12    1
    14    14     7    1
    15    15    14    1
    16    16     3   ar
    17    17    19    1
    18    18     4    2
    19    19     6    2
    20    20     7    2
    21    21     2   ar
    22    22     5    2
    23    23     3   ar
    24    24    23   ar
    25    25    24    1
    26    26    24   ar
    27    27    26    1
    28    28    16   ar
    29    29    28    1
    30    30    21   ar
    31    31    30    1
    32    32    18    1
    33    33    32    1
    34    34    22    1
    35    35    34    1
    36    36    17   ar
    37    37    36    1
    38    38     8    1
    39    39    38    1
    40    40    30   ar
    41    41    40    1
    42    42    10    1
    43    43    42    1
    44    44    19    1
    45    45    44    1
    46    46    20    1
    47    47    46    1
    48    48    12    1
    49    49    48    1
    50    50    14    1
    51    51    50    1
    52    16    22    1
    53    18    21    1
    54    20    23    1
    55    26    28   ar
    56    32    38    2
    57    34    42    2
    58    36    40   ar
    59    44    48    2
    60    46    50    2
    61    52    56    1
    62    53    56    1
    63    54    56    1
    64    55    56    1
    65    57    65   ar
    66    58    73   ar
    67    59    60    1
    68    60    63   ar
    69    61    59   ar
    70    62    61    1
    71    63    64    1
    72    65    61   ar
    73    66    65    1
    74    67    59   ar
    75    68    67    1
    76    69    57   ar
    77    70    69    1
    78    71    60   ar
    79    72    71    1
    80    73    63   ar
    81    74    73    1
    82    75    58   ar
    83    76    75    1
    84    67    69   ar
    85    71    75   ar
    86    77    91   ar
    87    78    87   ar
    88    79    80    1
    89    80    81   ar
    90    81    82    1
    91    83    80   ar
    92    84    83    1
    93    85    79   ar
    94    86    85    1
    95    87    85   ar
    96    88    87    1
    97    89    79   ar
    98    90    89    1
    99    91    81   ar
   100    92    91    1
   101    93    77   ar
   102    94    93    1
   103    95    78   ar
   104    96    95    1
   105    83    93   ar
   106    89    95   ar
   107    97   100    1
   108    98   100    1
   109    99   100    1
   110   100   101    1
@<TRIPOS>SUBSTRUCTURE
     1 RES1        1 GROUP             0 ****  ****    0  
     2 RES2       52 GROUP             0 ****  ****    0  
     3 RES3       57 GROUP             0 ****  ****    0  
     4 RES4       77 GROUP             0 ****  ****    0  
     5 RES5       97 GROUP             0 ****  ****    0  
@<TRIPOS>CRYSIN
   10.0861   10.1542   21.8490   96.2620   96.2000   93.8520     2     1
