@<TRIPOS>MOLECULE
RAVHEF
   101   110     5     0     0
SMALL
USER_CHARGES
****
Generated from the CSD

@<TRIPOS>ATOM
     1 Fe1      1.0345  13.5622  15.4404   Fe        1 RES1   2.0000
     2 N1      -0.1271  12.1182  14.5404   N.2       1 RES1   0.0000
     3 N2       0.2679  13.4945  17.2873   N.ar      1 RES1   0.0000
     4 N3       1.7924  13.4695  13.5902   N.ar      1 RES1   0.0000
     5 N4       2.2265  12.1600  16.3801   N.2       1 RES1   0.0000
     6 N5      -0.4485  14.9749  15.3481   N.2       1 RES1   0.0000
     7 N6       2.5006  14.9901  15.4924   N.2       1 RES1   0.0000
     8 N7      -1.1390  11.2806  14.8798   N.pl3     1 RES1   0.0000
     9 H1      -1.5360  11.2730  15.6433   H         1 RES1   0.0000
    10 C1       0.2111  11.7991  13.2821   C.2       1 RES1   0.0000
    11 C2       0.7608  12.6330  18.1798   C.ar      1 RES1   0.0000
    12 N8       3.2353  11.3281  16.0681   N.pl3     1 RES1   0.0000
    13 H2       3.6542  11.3300  15.3183   H         1 RES1   0.0000
    14 C3       2.8046  14.2912  13.2480   C.ar      1 RES1   0.0000
    15 N9       3.0432  15.8354  16.3703   N.pl3     1 RES1   0.0000
    16 H3       2.7676  15.9417  17.1792   H         1 RES1   0.0000
    17 C4       1.2947  12.5969  12.7125   C.ar      1 RES1   0.0000
    18 N10     -0.9941  15.8069  14.4436   N.pl3     1 RES1   0.0000
    19 H4      -0.7194  15.8905  13.6325   H         1 RES1   0.0000
    20 C5       3.2155  15.1326  14.3618   C.2       1 RES1   0.0000
    21 C6      -1.1672  15.1326  16.4771   C.2       1 RES1   0.0000
    22 C7       1.8418  11.8352  17.6245   C.2       1 RES1   0.0000
    23 C8      -0.7549  14.3102  17.6054   C.ar      1 RES1   0.0000
    24 C9       1.7946  12.5209  11.4149   C.ar      1 RES1   0.0000
    25 H5       1.4485  11.9112  10.8060   H         1 RES1   0.0000
    26 C10      0.2463  12.5665  19.4626   C.ar      1 RES1   0.0000
    27 H6       0.5878  11.9568  20.0761   H         1 RES1   0.0000
    28 C11      3.3360  14.2646  11.9693   C.ar      1 RES1   0.0000
    29 H7       4.0301  14.8382  11.7330   H         1 RES1   0.0000
    30 C12     -1.2992  14.3026  18.8810   C.ar      1 RES1   0.0000
    31 H8      -1.9958  14.8781  19.1036   H         1 RES1   0.0000
    32 C13     -0.5844  10.7602  12.8213   C.2       1 RES1   0.0000
    33 H9      -0.5511  10.3499  11.9875   H         1 RES1   0.0000
    34 C14      2.8181  13.3775  11.0537   C.ar      1 RES1   0.0000
    35 H10      3.1582  13.3529  10.1880   H         1 RES1   0.0000
    36 C15     -0.7795  13.4174  19.8171   C.ar      1 RES1   0.0000
    37 H11     -1.1227  13.3984  20.6827   H         1 RES1   0.0000
    38 C16     -1.4288  10.4657  13.8597   C.2       1 RES1   0.0000
    39 H12     -2.0905   9.8143  13.8529   H         1 RES1   0.0000
    40 C17      2.6294  10.7678  18.1016   C.2       1 RES1   0.0000
    41 H13      2.5767  10.3404  18.9264   H         1 RES1   0.0000
    42 C18      3.4962  10.5094  17.0633   C.2       1 RES1   0.0000
    43 H14      4.1615   9.8579  17.0656   H         1 RES1   0.0000
    44 C19      4.2143  16.0861  14.5299   C.2       1 RES1   0.0000
    45 H15      4.8384  16.3805  13.9074   H         1 RES1   0.0000
    46 C20      4.0631  16.4926  15.8318   C.2       1 RES1   0.0000
    47 H16      4.5891  17.1232  16.2658   H         1 RES1   0.0000
    48 C21     -2.1755  16.0823  16.2658   C.2       1 RES1   0.0000
    49 H17     -2.8137  16.3767  16.8770   H         1 RES1   0.0000
    50 C22     -2.0176  16.4831  14.9684   C.2       1 RES1   0.0000
    51 H18     -2.5334  17.1194  14.5254   H         1 RES1   0.0000
    52 F1       1.1501  10.7820   8.8527   F         2 RES2   0.0000
    53 F2       1.8275  10.4392   6.7551   F         2 RES2   0.0000
    54 F3       1.7187  12.5228   7.5615   F         2 RES2   0.0000
    55 F4       3.2782  11.1286   8.3090   F         2 RES2   0.0000
    56 B1       2.0048  11.2160   7.8591   B         2 RES2  -1.0000
    57 F5       6.5000  17.9323  12.7541   F         3 RES3   0.0000
    58 F6       7.2025  17.8108  10.6424   F         3 RES3   0.0000
    59 F7       6.5914  15.9778  11.6853   F         3 RES3   0.0000
    60 F8       5.1204  17.4271  11.1309   F         3 RES3   0.0000
    61 B2       6.3408  17.3074  11.5626   B         3 RES3  -1.0000
    62 N11      4.9285  11.6339  13.7688   N.ar      4 RES4   0.0000
    63 C23      6.9776  11.8561  10.0176   C.ar      4 RES4   0.0000
    64 C24      6.3012  11.7744  11.3331   C.ar      4 RES4   0.0000
    65 N12      8.2370  12.1410   7.5456   N.ar      4 RES4   0.0000
    66 C25      8.2004  12.5076   9.8904   C.ar      4 RES4   0.0000
    67 H19      8.6208  12.8666  10.6379   H         4 RES4   0.0000
    68 C26      6.4375  11.2977   8.8634   C.ar      4 RES4   0.0000
    69 H20      5.6390  10.8228   8.9020   H         4 RES4   0.0000
    70 C27      5.4706  10.7051  11.6580   C.ar      4 RES4   0.0000
    71 H21      5.3585  10.0042  11.0559   H         4 RES4   0.0000
    72 C28      6.4531  12.7450  12.2988   C.ar      4 RES4   0.0000
    73 H22      7.0281  13.4611  12.1511   H         4 RES4   0.0000
    74 C29      4.8215  10.6861  12.8577   C.ar      4 RES4   0.0000
    75 H23      4.2706   9.9624  13.0463   H         4 RES4   0.0000
    76 C30      8.7804  12.6197   8.6521   C.ar      4 RES4   0.0000
    77 H24      9.5990  13.0546   8.5885   H         4 RES4   0.0000
    78 C31      7.0884  11.4515   7.6660   C.ar      4 RES4   0.0000
    79 H25      6.7206  11.0622   6.9048   H         4 RES4   0.0000
    80 C32      5.7507  12.6596  13.4916   C.ar      4 RES4   0.0000
    81 H26      5.8536  13.3358  14.1210   H         4 RES4   0.0000
    82 N13      0.1445  16.2722  11.9375   N.ar      5 RES5   0.0000
    83 N14      3.6937  17.0054   5.8801   N.ar      5 RES5   0.0000
    84 C33      1.4864  16.6350   9.5223   C.ar      5 RES5   0.0000
    85 C34      2.2245  16.7851   8.2567   C.ar      5 RES5   0.0000
    86 C35      0.2660  15.9797   9.5814   C.ar      5 RES5   0.0000
    87 H27     -0.1250  15.6416   8.8088   H         5 RES5   0.0000
    88 C36      2.0509  15.8867   7.1934   C.ar      5 RES5   0.0000
    89 H28      1.4287  15.1991   7.2706   H         5 RES5   0.0000
    90 C37      2.7860  16.0063   6.0369   C.ar      5 RES5   0.0000
    91 H29      2.6591  15.3928   5.3485   H         5 RES5   0.0000
    92 C38      1.9874  17.1441  10.6879   C.ar      5 RES5   0.0000
    93 H30      2.7897  17.6132  10.6879   H         5 RES5   0.0000
    94 C39      1.2906  16.9522  11.8762   C.ar      5 RES5   0.0000
    95 H31      1.6375  17.3150  12.6600   H         5 RES5   0.0000
    96 C40     -0.3588  15.8335  10.7924   C.ar      5 RES5   0.0000
    97 H32     -1.1828  15.4023  10.8128   H         5 RES5   0.0000
    98 C41      3.8336  17.8431   6.8617   C.ar      5 RES5   0.0000
    99 H33      4.4593  18.5230   6.7617   H         5 RES5   0.0000
   100 C42      3.1251  17.8051   8.0454   C.ar      5 RES5   0.0000
   101 H34      3.2545  18.4604   8.6930   H         5 RES5   0.0000
@<TRIPOS>BOND
     1     1     2    1
     2     2     8    1
     3     3     1    1
     4     4     1    1
     5     5     1    1
     6     6     1    1
     7     7     1    1
     8     8     9    1
     9    10     2    2
    10    11     3   ar
    11    12     5    1
    12    13    12    1
    13    14     4   ar
    14    15     7    1
    15    16    15    1
    16    17     4   ar
    17    18     6    1
    18    19    18    1
    19    20     7    2
    20    21     6    2
    21    22     5    2
    22    23     3   ar
    23    24    17   ar
    24    25    24    1
    25    26    11   ar
    26    27    26    1
    27    28    14   ar
    28    29    28    1
    29    30    23   ar
    30    31    30    1
    31    32    10    1
    32    33    32    1
    33    34    24   ar
    34    35    34    1
    35    36    26   ar
    36    37    36    1
    37    38     8    1
    38    39    38    1
    39    40    22    1
    40    41    40    1
    41    42    12    1
    42    43    42    1
    43    44    20    1
    44    45    44    1
    45    46    15    1
    46    47    46    1
    47    48    21    1
    48    49    48    1
    49    50    18    1
    50    51    50    1
    51    10    17    1
    52    11    22    1
    53    14    20    1
    54    21    23    1
    55    28    34   ar
    56    30    36   ar
    57    32    38    2
    58    40    42    2
    59    44    46    2
    60    48    50    2
    61    52    56    1
    62    53    56    1
    63    54    56    1
    64    55    56    1
    65    57    61    1
    66    58    61    1
    67    59    61    1
    68    60    61    1
    69    62    74   ar
    70    63    64    1
    71    64    70   ar
    72    65    76   ar
    73    66    63   ar
    74    67    66    1
    75    68    63   ar
    76    69    68    1
    77    70    71    1
    78    72    64   ar
    79    73    72    1
    80    74    70   ar
    81    75    74    1
    82    76    66   ar
    83    77    76    1
    84    78    65   ar
    85    79    78    1
    86    80    62   ar
    87    81    80    1
    88    68    78   ar
    89    72    80   ar
    90    82    94   ar
    91    83    90   ar
    92    84    85    1
    93    85    88   ar
    94    86    84   ar
    95    87    86    1
    96    88    89    1
    97    90    88   ar
    98    91    90    1
    99    92    84   ar
   100    93    92    1
   101    94    92   ar
   102    95    94    1
   103    96    82   ar
   104    97    96    1
   105    98    83   ar
   106    99    98    1
   107   100    85   ar
   108   101   100    1
   109    86    96   ar
   110    98   100   ar
@<TRIPOS>SUBSTRUCTURE
     1 RES1        1 GROUP             0 ****  ****    0  
     2 RES2       52 GROUP             0 ****  ****    0  
     3 RES3       57 GROUP             0 ****  ****    0  
     4 RES4       62 GROUP             0 ****  ****    0  
     5 RES5       82 GROUP             0 ****  ****    0  
@<TRIPOS>CRYSIN
   10.2076   18.9941   22.8634   90.0000   96.4030   90.0000   231     1
