@<TRIPOS>MOLECULE
RAVHEF03
   101   110     5     0     0
SMALL
USER_CHARGES
****
Generated from the CSD

@<TRIPOS>ATOM
     1 Fe1      0.9541  -0.0067  16.2136   Fe        1 RES1   2.0000
     2 N1       0.2163   0.5776  17.9841   N.ar      1 RES1   0.0000
     3 N2       1.7420  -0.7223  14.5226   N.ar      1 RES1   0.0000
     4 N3       2.1275  -1.0474  17.5663   N.2       1 RES1   0.0000
     5 N4      -0.2286  -1.6549  15.8226   N.2       1 RES1   0.0000
     6 N5      -0.4990   1.3324  15.6755   N.2       1 RES1   0.0000
     7 N6       2.4557   1.3335  15.8177   N.2       1 RES1   0.0000
     8 N7       3.1395  -1.9272  17.5569   N.pl3     1 RES1   0.0000
     9 H1       3.5380  -2.2007  16.8463   H         1 RES1   0.0000
    10 N8      -1.2410  -2.3264  16.4032   N.pl3     1 RES1   0.0000
    11 H2      -1.6673  -2.0659  17.1031   H         1 RES1   0.0000
    12 N9      -1.0307   1.8490  14.5527   N.pl3     1 RES1   0.0000
    13 H3      -0.7654   1.6613  13.7557   H         1 RES1   0.0000
    14 N10      3.0178   2.4118  16.3776   N.pl3     1 RES1   0.0000
    15 H4       2.7339   2.7896  17.0967   H         1 RES1   0.0000
    16 C1       1.2464  -1.8541  13.9695   C.ar      1 RES1   0.0000
    17 C2      -0.7789   1.4820  18.0269   C.ar      1 RES1   0.0000
    18 C3       1.7996  -0.8789  18.8614   C.2       1 RES1   0.0000
    19 C4      -1.1923   1.8811  16.6907   C.2       1 RES1   0.0000
    20 C5       3.1929   1.0794  14.7229   C.2       1 RES1   0.0000
    21 C6       0.7202   0.0701  19.1257   C.ar      1 RES1   0.0000
    22 C7       0.1484  -2.3963  14.7663   C.2       1 RES1   0.0000
    23 C8       2.7774  -0.0906  13.9447   C.ar      1 RES1   0.0000
    24 C9       3.3202  -0.5336  12.7581   C.ar      1 RES1   0.0000
    25 H5       4.0219  -0.0766  12.3538   H         1 RES1   0.0000
    26 C10      2.7931  -1.6724  12.1860   C.ar      1 RES1   0.0000
    27 H6       3.1391  -1.9838  11.3821   H         1 RES1   0.0000
    28 C11      1.7680  -2.3481  12.7861   C.ar      1 RES1   0.0000
    29 H7       1.4275  -3.1261  12.4073   H         1 RES1   0.0000
    30 C12      0.2295   0.4631  20.3512   C.ar      1 RES1   0.0000
    31 H8       0.5777   0.1064  21.1376   H         1 RES1   0.0000
    32 C13      2.6093  -1.6763  19.6672   C.2       1 RES1   0.0000
    33 H9       2.5885  -1.7572  20.5918   H         1 RES1   0.0000
    34 C14     -0.6289  -3.5419  14.6996   C.2       1 RES1   0.0000
    35 H10     -0.5723  -4.2269  14.0725   H         1 RES1   0.0000
    36 C15     -1.2963   1.9123  19.2361   C.ar      1 RES1   0.0000
    37 H11     -1.9793   2.5424  19.2605   H         1 RES1   0.0000
    38 C16      3.4467  -2.3189  18.7833   C.2       1 RES1   0.0000
    39 H12      4.1151  -2.9256  19.0080   H         1 RES1   0.0000
    40 C17     -0.7889   1.3951  20.3917   C.ar      1 RES1   0.0000
    41 H13     -1.1298   1.6725  21.2104   H         1 RES1   0.0000
    42 C18     -1.4867  -3.4525  15.7376   C.2       1 RES1   0.0000
    43 H14     -2.1425  -4.0752  15.9516   H         1 RES1   0.0000
    44 C19     -2.1647   2.7588  16.2021   C.2       1 RES1   0.0000
    45 H15     -2.7686   3.2713  16.6900   H         1 RES1   0.0000
    46 C20      4.2252   1.9901  14.6033   C.2       1 RES1   0.0000
    47 H16      4.8785   2.0296  13.9440   H         1 RES1   0.0000
    48 C21     -2.0229   2.6900  14.8408   C.2       1 RES1   0.0000
    49 H17     -2.5353   3.1537  14.2180   H         1 RES1   0.0000
    50 C22      4.0676   2.8218  15.6841   C.2       1 RES1   0.0000
    51 H18      4.6077   3.5502  15.8939   H         1 RES1   0.0000
    52 F1       5.0014   5.5922  19.4626   F         2 RES2   0.0000
    53 F2       5.6183   5.1296  17.3715   F         2 RES2   0.0000
    54 F3       5.5936   3.5125  18.8946   F         2 RES2   0.0000
    55 F4       7.1360   5.0954  18.9973   F         2 RES2   0.0000
    56 B1       5.8348   4.8274  18.6741   B         2 RES2  -1.0000
    57 N11      7.6132   6.2929   9.3287   N.ar      3 RES3   0.0000
    58 N12      4.0227   7.5668  15.2967   N.ar      3 RES3   0.0000
    59 C23      6.2472   6.7325  11.7203   C.ar      3 RES3   0.0000
    60 C24      5.5002   7.0067  12.9766   C.ar      3 RES3   0.0000
    61 C25      5.7574   5.8482  10.7721   C.ar      3 RES3   0.0000
    62 H19      4.9639   5.3844  10.9155   H         3 RES3   0.0000
    63 C26      5.6554   8.2113  13.6551   C.ar      3 RES3   0.0000
    64 H20      6.2578   8.8557  13.3576   H         3 RES3   0.0000
    65 C27      6.4883   5.6742   9.6057   C.ar      3 RES3   0.0000
    66 H21      6.1568   5.0778   8.9743   H         3 RES3   0.0000
    67 C28      7.4588   7.3403  11.4420   C.ar      3 RES3   0.0000
    68 H22      7.8449   7.9134  12.0649   H         3 RES3   0.0000
    69 C29      8.0848   7.1040  10.2627   C.ar      3 RES3   0.0000
    70 H23      8.8925   7.5356  10.1001   H         3 RES3   0.0000
    71 C30      4.6079   6.0917  13.4903   C.ar      3 RES3   0.0000
    72 H24      4.4833   5.2680  13.0772   H         3 RES3   0.0000
    73 C31      4.8890   8.4183  14.7809   C.ar      3 RES3   0.0000
    74 H25      4.9906   9.2332  15.2175   H         3 RES3   0.0000
    75 C32      3.9010   6.4203  14.6332   C.ar      3 RES3   0.0000
    76 H26      3.2965   5.7945  14.9628   H         3 RES3   0.0000
    77 N13      7.3154  -1.2457  18.4815   N.ar      4 RES4   0.0000
    78 N14      4.2118   1.4036  24.2581   N.ar      4 RES4   0.0000
    79 C33      5.3651   0.2673  21.9744   C.ar      4 RES4   0.0000
    80 C34      6.0089  -0.2864  20.7630   C.ar      4 RES4   0.0000
    81 C35      6.8034  -1.4110  20.8144   C.ar      4 RES4   0.0000
    82 H27      6.9222  -1.8696  21.6149   H         4 RES4   0.0000
    83 C36      5.8533   0.3202  19.5259   C.ar      4 RES4   0.0000
    84 H28      5.3036   1.0647  19.4339   H         4 RES4   0.0000
    85 C37      4.1649   0.9608  21.9124   C.ar      4 RES4   0.0000
    86 H29      3.7210   1.0620  21.1033   H         4 RES4   0.0000
    87 C38      3.6399   1.4965  23.0681   C.ar      4 RES4   0.0000
    88 H30      2.8313   1.9518  23.0082   H         4 RES4   0.0000
    89 C39      5.9440   0.1227  23.2180   C.ar      4 RES4   0.0000
    90 H31      6.7372  -0.3522  23.3164   H         4 RES4   0.0000
    91 C40      7.4170  -1.8439  19.6629   C.ar      4 RES4   0.0000
    92 H32      7.9402  -2.6101  19.7143   H         4 RES4   0.0000
    93 C41      6.5184  -0.1871  18.4408   C.ar      4 RES4   0.0000
    94 H33      6.4035   0.2393  17.6211   H         4 RES4   0.0000
    95 C42      5.3212   0.6982  24.3266   C.ar      4 RES4   0.0000
    96 H34      5.7131   0.5779  25.1613   H         4 RES4   0.0000
    97 F5       6.5677   1.0945  11.9835   F         5 RES5   0.0000
    98 F6       6.3613   3.2770  12.3431   F         5 RES5   0.0000
    99 F7       5.2313   2.2623  10.8235   F         5 RES5   0.0000
   100 B2       6.3446   2.3060  11.4442   B         5 RES5  -1.0000
   101 F8       7.2477   2.5156  10.4661   F         5 RES5   0.0000
@<TRIPOS>BOND
     1     1     2    1
     2     2    17   ar
     3     3     1    1
     4     4     1    1
     5     5     1    1
     6     6     1    1
     7     7     1    1
     8     8     4    1
     9     9     8    1
    10    10     5    1
    11    11    10    1
    12    12     6    1
    13    13    12    1
    14    14     7    1
    15    15    14    1
    16    16     3   ar
    17    17    19    1
    18    18     4    2
    19    19     6    2
    20    20     7    2
    21    21     2   ar
    22    22     5    2
    23    23     3   ar
    24    24    23   ar
    25    25    24    1
    26    26    24   ar
    27    27    26    1
    28    28    16   ar
    29    29    28    1
    30    30    21   ar
    31    31    30    1
    32    32    18    1
    33    33    32    1
    34    34    22    1
    35    35    34    1
    36    36    17   ar
    37    37    36    1
    38    38     8    1
    39    39    38    1
    40    40    30   ar
    41    41    40    1
    42    42    10    1
    43    43    42    1
    44    44    19    1
    45    45    44    1
    46    46    20    1
    47    47    46    1
    48    48    12    1
    49    49    48    1
    50    50    14    1
    51    51    50    1
    52    16    22    1
    53    18    21    1
    54    20    23    1
    55    26    28   ar
    56    32    38    2
    57    34    42    2
    58    36    40   ar
    59    44    48    2
    60    46    50    2
    61    52    56    1
    62    53    56    1
    63    54    56    1
    64    55    56    1
    65    57    65   ar
    66    58    73   ar
    67    59    60    1
    68    60    63   ar
    69    61    59   ar
    70    62    61    1
    71    63    64    1
    72    65    61   ar
    73    66    65    1
    74    67    59   ar
    75    68    67    1
    76    69    57   ar
    77    70    69    1
    78    71    60   ar
    79    72    71    1
    80    73    63   ar
    81    74    73    1
    82    75    58   ar
    83    76    75    1
    84    67    69   ar
    85    71    75   ar
    86    77    91   ar
    87    78    87   ar
    88    79    80    1
    89    80    81   ar
    90    81    82    1
    91    83    80   ar
    92    84    83    1
    93    85    79   ar
    94    86    85    1
    95    87    85   ar
    96    88    87    1
    97    89    79   ar
    98    90    89    1
    99    91    81   ar
   100    92    91    1
   101    93    77   ar
   102    94    93    1
   103    95    78   ar
   104    96    95    1
   105    83    93   ar
   106    89    95   ar
   107    97   100    1
   108    98   100    1
   109    99   100    1
   110   100   101    1
@<TRIPOS>SUBSTRUCTURE
     1 RES1        1 GROUP             0 ****  ****    0  
     2 RES2       52 GROUP             0 ****  ****    0  
     3 RES3       57 GROUP             0 ****  ****    0  
     4 RES4       77 GROUP             0 ****  ****    0  
     5 RES5       97 GROUP             0 ****  ****    0  
@<TRIPOS>CRYSIN
   10.2254   10.1492   21.6116   96.1330   94.6280   93.9790     2     1
