@<TRIPOS>MOLECULE
RAVQOY03
   105   114     5     0     0
SMALL
USER_CHARGES
****
Generated from the CSD

@<TRIPOS>ATOM
     1 Fe1      1.4099   6.7465  16.6577   Fe        1 RES1   2.0000
     2 N1       2.1593   6.0764  18.3305   N.ar      1 RES1   0.0000
     3 N2      -0.0415   5.4409  16.2119   N.2       1 RES1   0.0000
     4 N3       2.5470   8.3819  16.4507   N.2       1 RES1   0.0000
     5 N4       3.5600   8.9733  17.0980   N.pl3     1 RES1   0.0000
     6 H1       4.0052   8.6122  17.7382   H         1 RES1   0.0000
     7 N5      -0.7194   8.5978  18.0019   N.pl3     1 RES1   0.0000
     8 H2      -1.1263   8.8736  17.2972   H         1 RES1   0.0000
     9 N6       2.8239   5.5023  15.9825   N.2       1 RES1   0.0000
    10 N7       0.2876   7.6959  18.0067   N.2       1 RES1   0.0000
    11 N8       0.6151   7.5749  15.0742   N.ar      1 RES1   0.0000
    12 N9      -0.5758   4.3299  16.7373   N.pl3     1 RES1   0.0000
    13 H3      -0.2992   3.9470  17.4545   H         1 RES1   0.0000
    14 N10      3.3325   5.1135  14.8072   N.pl3     1 RES1   0.0000
    15 H4       3.0598   5.3911  14.0399   H         1 RES1   0.0000
    16 C1       2.1101   9.2769  15.5393   C.2       1 RES1   0.0000
    17 C2       3.1585   5.1569  18.3105   C.ar      1 RES1   0.0000
    18 C3       0.6442   7.5399  19.2897   C.2       1 RES1   0.0000
    19 C4       3.5244   4.8431  16.9447   C.2       1 RES1   0.0000
    20 C5       1.7207   6.5785  19.5087   C.ar      1 RES1   0.0000
    21 C6      -0.7575   5.7171  15.1110   C.2       1 RES1   0.0000
    22 C7       1.0119   8.8111  14.6975   C.ar      1 RES1   0.0000
    23 C8      -0.4049   6.9577  14.4389   C.ar      1 RES1   0.0000
    24 C9       2.2766   6.1688  20.7050   C.ar      1 RES1   0.0000
    25 H5       1.9911   6.5417  21.5074   H         1 RES1   0.0000
    26 C10      2.8701  10.4526  15.6216   C.2       1 RES1   0.0000
    27 H6       2.7744  11.2279  15.1168   H         1 RES1   0.0000
    28 C11      3.7185   4.6784  19.4827   C.ar      1 RES1   0.0000
    29 H7       4.3820   4.0274  19.4577   H         1 RES1   0.0000
    30 C12      4.4931   4.0234  16.3377   C.2       1 RES1   0.0000
    31 H8       5.1088   3.4642  16.7565   H         1 RES1   0.0000
    32 C13      3.7880  10.2051  16.6158   C.2       1 RES1   0.0000
    33 H9       4.4525  10.7897  16.9028   H         1 RES1   0.0000
    34 C14     -1.0253   7.5488  13.3434   C.ar      1 RES1   0.0000
    35 H10     -1.6959   7.1006  12.8809   H         1 RES1   0.0000
    36 C15     -0.9939   9.0017  19.2432   C.2       1 RES1   0.0000
    37 H11     -1.6479   9.6184  19.4821   H         1 RES1   0.0000
    38 C16      3.2729   5.1885  20.6953   C.ar      1 RES1   0.0000
    39 H12      3.6347   4.8788  21.4941   H         1 RES1   0.0000
    40 C17     -0.6248   8.8181  12.9534   C.ar      1 RES1   0.0000
    41 H13     -1.0337   9.2307  12.2273   H         1 RES1   0.0000
    42 C18     -0.1507   8.3546  20.1072   C.2       1 RES1   0.0000
    43 H14     -0.1136   8.4366  21.0332   H         1 RES1   0.0000
    44 C19      0.3890   9.4747  13.6483   C.ar      1 RES1   0.0000
    45 H15      0.6428  10.3386  13.4150   H         1 RES1   0.0000
    46 C20     -1.7542   4.7595  14.9284   C.2       1 RES1   0.0000
    47 H16     -2.3807   4.7147  14.2437   H         1 RES1   0.0000
    48 C21     -1.6043   3.8975  15.9876   C.2       1 RES1   0.0000
    49 H17     -2.1241   3.1451  16.1560   H         1 RES1   0.0000
    50 C22      4.3242   4.2335  14.9927   C.2       1 RES1   0.0000
    51 H18      4.8197   3.8286  14.3168   H         1 RES1   0.0000
    52 F1       6.6510   7.7690  11.0442   F         2 RES2   0.0000
    53 F2       4.8179   6.7364  10.2106   F         2 RES2   0.0000
    54 F3       5.6450   6.0999  12.2297   F         2 RES2   0.0000
    55 F4       6.7760   5.6238  10.3094   F         2 RES2   0.0000
    56 B1       5.9704   6.5668  10.9531   B         2 RES2  -1.0000
    57 N11      0.6455   2.8582  18.7218   N.ar      3 RES3   0.0000
    58 N12      3.0098   0.8468  21.5384   N.2       3 RES3   0.0000
    59 N13      3.0999   1.4419  22.6260   N.2       3 RES3   0.0000
    60 N14      5.5658  -0.3384  25.5215   N.ar      3 RES3   0.0000
    61 C23      2.1707   1.5335  20.6031   C.ar      3 RES3   0.0000
    62 C24      2.4235   1.3494  19.2669   C.ar      3 RES3   0.0000
    63 H19      3.0961   0.7736  18.9835   H         3 RES3   0.0000
    64 C25      1.1069   2.3380  21.0022   C.ar      3 RES3   0.0000
    65 H20      0.8981   2.4488  21.9018   H         3 RES3   0.0000
    66 C26      0.3741   2.9656  20.0161   C.ar      3 RES3   0.0000
    67 H21     -0.3491   3.4909  20.2709   H         3 RES3   0.0000
    68 C27      1.6513   2.0427  18.3542   C.ar      3 RES3   0.0000
    69 H22      1.8342   1.9403  17.4479   H         3 RES3   0.0000
    70 C28      3.9560   0.7905  23.5770   C.ar      3 RES3   0.0000
    71 C29      3.9087   1.2557  24.8645   C.ar      3 RES3   0.0000
    72 H23      3.3385   1.9510  25.0993   H         3 RES3   0.0000
    73 C30      4.7311   0.6633  25.8018   C.ar      3 RES3   0.0000
    74 H24      4.7013   0.9796  26.6748   H         3 RES3   0.0000
    75 C31      5.5850  -0.7818  24.2706   C.ar      3 RES3   0.0000
    76 H25      6.1518  -1.4899  24.0645   H         3 RES3   0.0000
    77 C32      4.8067  -0.2490  23.2579   C.ar      3 RES3   0.0000
    78 H26      4.8556  -0.5806  22.3893   H         3 RES3   0.0000
    79 N15     -0.3682   7.0940   9.3681   N.2       4 RES4   0.0000
    80 N16      2.1285   5.8568  12.4896   N.ar      4 RES4   0.0000
    81 N17     -0.5743   8.3367   9.3559   N.2       4 RES4   0.0000
    82 N18     -3.1458   9.5975   6.3051   N.ar      4 RES4   0.0000
    83 C33      0.5217   6.6987  10.4133   C.ar      4 RES4   0.0000
    84 C34     -1.4946   8.7107   8.3304   C.ar      4 RES4   0.0000
    85 C35     -2.4363   7.8578   7.8199   C.ar      4 RES4   0.0000
    86 H27     -2.5351   6.9922   8.1456   H         4 RES4   0.0000
    87 C36      0.3049   5.4626  10.9806   C.ar      4 RES4   0.0000
    88 H28     -0.3659   4.8999  10.6651   H         4 RES4   0.0000
    89 C37      2.3491   7.0189  11.8860   C.ar      4 RES4   0.0000
    90 H29      3.0669   7.5361  12.1741   H         4 RES4   0.0000
    91 C38      1.5709   7.4987  10.8534   C.ar      4 RES4   0.0000
    92 H30      1.7407   8.3269  10.4678   H         4 RES4   0.0000
    93 C39      1.1162   5.0849  12.0343   C.ar      4 RES4   0.0000
    94 H31      0.9604   4.2661  12.4466   H         4 RES4   0.0000
    95 C40     -1.4005  10.0373   7.8730   C.ar      4 RES4   0.0000
    96 H32     -0.7892  10.6339   8.2409   H         4 RES4   0.0000
    97 C41     -3.2410   8.3428   6.7850   C.ar      4 RES4   0.0000
    98 H33     -3.8714   7.7718   6.4083   H         4 RES4   0.0000
    99 C42     -2.2415  10.4129   6.8692   C.ar      4 RES4   0.0000
   100 H34     -2.1864  11.2866   6.5590   H         4 RES4   0.0000
   101 F5      -2.2413   1.2169  20.4143   F         5 RES5   0.0000
   102 F6      -4.3324   1.3342  19.5439   F         5 RES5   0.0000
   103 F7      -2.5743   1.3707  18.2458   F         5 RES5   0.0000
   104 B2      -3.0462   1.7170  19.4592   B         5 RES5  -1.0000
   105 F8      -2.9622   3.0572  19.4776   F         5 RES5   0.0000
@<TRIPOS>BOND
     1     1     2    1
     2     2    17   ar
     3     3     1    1
     4     4     1    1
     5     5     4    1
     6     6     5    1
     7     7     8    1
     8     9     1    1
     9    10     1    1
    10    11     1    1
    11    12     3    1
    12    13    12    1
    13    14     9    1
    14    15    14    1
    15    16     4    2
    16    17    19    1
    17    18    10    2
    18    19     9    2
    19    20     2   ar
    20    21     3    2
    21    22    11   ar
    22    23    11   ar
    23    24    20   ar
    24    25    24    1
    25    26    16    1
    26    27    26    1
    27    28    17   ar
    28    29    28    1
    29    30    19    1
    30    31    30    1
    31    32     5    1
    32    33    32    1
    33    34    23   ar
    34    35    34    1
    35    36     7    1
    36    37    36    1
    37    38    24   ar
    38    39    38    1
    39    40    34   ar
    40    41    40    1
    41    42    18    1
    42    43    42    1
    43    44    22   ar
    44    45    44    1
    45    46    21    1
    46    47    46    1
    47    48    12    1
    48    49    48    1
    49    50    14    1
    50    51    50    1
    51     7    10    1
    52    16    22    1
    53    18    20    1
    54    21    23    1
    55    26    32    2
    56    28    38   ar
    57    30    50    2
    58    36    42    2
    59    40    44   ar
    60    46    48    2
    61    52    56    1
    62    53    56    1
    63    54    56    1
    64    55    56    1
    65    57    66   ar
    66    58    59    2
    67    59    70    1
    68    60    73   ar
    69    61    58    1
    70    62    61   ar
    71    63    62    1
    72    64    61   ar
    73    65    64    1
    74    66    64   ar
    75    67    66    1
    76    68    57   ar
    77    69    68    1
    78    70    71   ar
    79    71    72    1
    80    73    71   ar
    81    74    73    1
    82    75    60   ar
    83    76    75    1
    84    77    70   ar
    85    78    77    1
    86    62    68   ar
    87    75    77   ar
    88    79    81    2
    89    80    89   ar
    90    81    84    1
    91    82    97   ar
    92    83    79    1
    93    84    85   ar
    94    85    86    1
    95    87    83   ar
    96    88    87    1
    97    89    90    1
    98    91    83   ar
    99    92    91    1
   100    93    80   ar
   101    94    93    1
   102    95    84   ar
   103    96    95    1
   104    97    85   ar
   105    98    97    1
   106    99    82   ar
   107   100    99    1
   108    87    93   ar
   109    89    91   ar
   110    95    99   ar
   111   101   104    1
   112   102   104    1
   113   103   104    1
   114   104   105    1
@<TRIPOS>SUBSTRUCTURE
     1 RES1        1 GROUP             0 ****  ****    0  
     2 RES2       52 GROUP             0 ****  ****    0  
     3 RES3       57 GROUP             0 ****  ****    0  
     4 RES4       79 GROUP             0 ****  ****    0  
     5 RES5      101 GROUP             0 ****  ****    0  
@<TRIPOS>CRYSIN
    9.8200   10.0724   22.5535   92.6840  100.1350   94.5670     2     1
