@<TRIPOS>MOLECULE
REBQAU02
   138   145     5     0     0
SMALL
USER_CHARGES
****
Generated from the CSD

@<TRIPOS>ATOM
     1 Fe1      7.1130   5.2993   3.8772   Fe        1 RES1   2.0000
     2 S1       5.6313   1.0233   2.6445   S.3       1 RES1   0.0000
     3 S2      10.3927   5.1968   0.5024   S.3       1 RES1   0.0000
     4 S3       7.5946   9.8860   4.1587   S.3       1 RES1   0.0000
     5 N1       5.6060   5.6982   5.4879   N.2       1 RES1   0.0000
     6 N2       5.4308   5.8336   2.4787   N.2       1 RES1   0.0000
     7 N3       8.7782   4.3471   4.9522   N.2       1 RES1   0.0000
     8 N4       8.6987   5.2385   2.3848   N.2       1 RES1   0.0000
     9 N5       6.3356   3.3867   3.2388   N.2       1 RES1   0.0000
    10 N6       7.4142   7.3473   4.3208   N.2       1 RES1   0.0000
    11 N7       8.3180   2.4291  10.2558   N.2       1 RES1   0.0000
    12 N8       2.2548   0.9334   7.7788   N.2       1 RES1   0.0000
    13 N9       8.6030   1.2709  10.4227   N.2       1 RES1   0.0000
    14 N10      1.8770   2.0743   7.6744   N.2       1 RES1   0.0000
    15 N11      3.3367  10.8793   1.1011   N.2       1 RES1   0.0000
    16 N12      2.1738  11.1046   1.4003   N.2       1 RES1   0.0000
    17 C1       5.4886   6.9454   5.7193   C.2       1 RES1   0.0000
    18 H1       4.8281   7.2535   6.2962   H         1 RES1   0.0000
    19 C2       8.3437   4.6483   7.3196   C.ar      1 RES1   0.0000
    20 H2       8.1441   5.5410   7.1514   H         1 RES1   0.0000
    21 C3       4.6842   4.7889   6.0707   C.ar      1 RES1   0.0000
    22 C4       5.2659   3.4909   2.3796   C.2       1 RES1   0.0000
    23 C5       8.7457   3.8239   6.2950   C.ar      1 RES1   0.0000
    24 C6       6.3881   7.8773   5.0792   C.2       1 RES1   0.0000
    25 C7       4.7851   4.8186   2.0456   C.2       1 RES1   0.0000
    26 H3       4.0218   4.9290   1.5270   H         1 RES1   0.0000
    27 C8       4.8767   7.1255   2.2126   C.ar      1 RES1   0.0000
    28 C9       8.3697   0.8292  11.7934   C.ar      1 RES1   0.0000
    29 C10      9.0454   2.5027   6.5438   C.ar      1 RES1   0.0000
    30 H4       9.3238   1.9467   5.8516   H         1 RES1   0.0000
    31 C11      5.0943   3.5048   6.3385   C.ar      1 RES1   0.0000
    32 H5       5.9699   3.2553   6.1502   H         1 RES1   0.0000
    33 C12      2.9161   2.9522   7.1543   C.ar      1 RES1   0.0000
    34 C13      8.9306   2.0055   7.8362   C.ar      1 RES1   0.0000
    35 H6       9.1246   1.1124   8.0104   H         1 RES1   0.0000
    36 C14      8.2388   4.1394   8.6050   C.ar      1 RES1   0.0000
    37 H7       7.9680   4.6967   9.2980   H         1 RES1   0.0000
    38 C15      3.0521   8.6670   2.2613   C.ar      1 RES1   0.0000
    39 H8       2.1775   8.8713   2.5014   H         1 RES1   0.0000
    40 C16      3.5684   7.4148   2.5639   C.ar      1 RES1   0.0000
    41 H9       3.0444   6.7803   2.9949   H         1 RES1   0.0000
    42 C17      8.5252   2.8386   8.8642   C.ar      1 RES1   0.0000
    43 C18      6.6271   2.1297   3.4528   C.2       1 RES1   0.0000
    44 H10      7.3257   1.8637   4.0059   H         1 RES1   0.0000
    45 C19      4.2304   2.5801   6.8830   C.ar      1 RES1   0.0000
    46 H11      4.5218   1.7166   7.0655   H         1 RES1   0.0000
    47 C20      1.2101   0.0527   8.3076   C.ar      1 RES1   0.0000
    48 C21      5.6715   8.0830   1.5968   C.ar      1 RES1   0.0000
    49 H12      6.5594   7.8944   1.3942   H         1 RES1   0.0000
    50 C22      8.7258  -0.4529  12.0248   C.ar      1 RES1   0.0000
    51 H13      9.0835  -0.9662  11.3372   H         1 RES1   0.0000
    52 C23      9.8115   4.5521   2.8509   C.2       1 RES1   0.0000
    53 C24      3.3653   5.1508   6.3351   C.ar      1 RES1   0.0000
    54 H14      3.0703   6.0126   6.1496   H         1 RES1   0.0000
    55 C25      8.1297   8.3124   3.8024   C.2       1 RES1   0.0000
    56 H15      8.8781   8.1499   3.2749   H         1 RES1   0.0000
    57 C26      5.1304   9.3268   1.2854   C.ar      1 RES1   0.0000
    58 H16      5.6547   9.9650   0.8584   H         1 RES1   0.0000
    59 C27     -0.0777   0.4062   8.6068   C.ar      1 RES1   0.0000
    60 H17     -0.3722   1.2725   8.4429   H         1 RES1   0.0000
    61 C28      3.8218   9.6159   1.6072   C.ar      1 RES1   0.0000
    62 C29      2.4909   4.2127   6.8778   C.ar      1 RES1   0.0000
    63 H18      1.6093   4.4514   7.0514   H         1 RES1   0.0000
    64 C30      9.7876   4.1020   4.2303   C.2       1 RES1   0.0000
    65 H19     10.5112   3.6344   4.5807   H         1 RES1   0.0000
    66 C31      8.8946   5.6306   1.1724   C.2       1 RES1   0.0000
    67 H20      8.2590   6.1173   0.6975   H         1 RES1   0.0000
    68 C32      7.8145   1.6280  12.7936   C.ar      1 RES1   0.0000
    69 H21      7.5443   2.5020  12.6257   H         1 RES1   0.0000
    70 C33      6.3444   9.2352   5.1053   C.2       1 RES1   0.0000
    71 H22      5.7183   9.7376   5.5747   H         1 RES1   0.0000
    72 C34     10.8025   4.4216   1.9464   C.2       1 RES1   0.0000
    73 H23     11.6000   3.9677   2.0971   H         1 RES1   0.0000
    74 C35      1.6590  12.2833   0.7636   C.ar      1 RES1   0.0000
    75 C36      1.6236  -1.2385   8.5198   C.ar      1 RES1   0.0000
    76 H24      2.4955  -1.4845   8.3067   H         1 RES1   0.0000
    77 C37      8.0645  -0.2139  14.2826   C.ar      1 RES1   0.0000
    78 H25      7.9894  -0.5700  15.1385   H         1 RES1   0.0000
    79 C38      4.7737   2.3034   1.9499   C.2       1 RES1   0.0000
    80 H26      4.0635   2.2063   1.3570   H         1 RES1   0.0000
    81 C39      0.7621  -2.1705   9.0434   C.ar      1 RES1   0.0000
    82 H27      1.0471  -3.0443   9.1839   H         1 RES1   0.0000
    83 C40      7.6839   1.0414  14.0825   C.ar      1 RES1   0.0000
    84 H28      7.3316   1.5381  14.7857   H         1 RES1   0.0000
    85 C41     -0.9452  -0.5267   9.1547   C.ar      1 RES1   0.0000
    86 H29     -1.8123  -0.2789   9.3813   H         1 RES1   0.0000
    87 C42      8.5594  -1.0067  13.2893   C.ar      1 RES1   0.0000
    88 H30      8.7805  -1.8946  13.4540   H         1 RES1   0.0000
    89 C43     -0.5252  -1.8059   9.3599   C.ar      1 RES1   0.0000
    90 H31     -1.1120  -2.4338   9.7162   H         1 RES1   0.0000
    91 C44      2.2394  12.9847  -0.1983   C.ar      1 RES1   0.0000
    92 H32      3.0977  12.7549  -0.4726   H         1 RES1   0.0000
    93 C45      0.4091  12.6933   1.2333   C.ar      1 RES1   0.0000
    94 H33     -0.0012  12.2320   1.9292   H         1 RES1   0.0000
    95 C46      0.3676  14.4404  -0.3635   C.ar      1 RES1   0.0000
    96 H34     -0.0733  15.1555  -0.7635   H         1 RES1   0.0000
    97 C47     -0.2105  13.7743   0.6662   C.ar      1 RES1   0.0000
    98 H35     -1.0347  14.0555   0.9913   H         1 RES1   0.0000
    99 C48      1.5943  14.0572  -0.8123   C.ar      1 RES1   0.0000
   100 H36      1.9981  14.5067  -1.5192   H         1 RES1   0.0000
   101 F1       6.5305  13.8874   4.3347   F         2 RES2   0.0000
   102 F2       6.6965  12.8367   6.1733   F         2 RES2   0.0000
   103 F3       4.8218  13.9732   5.7454   F         2 RES2   0.0000
   104 F4       5.3511  12.1299   4.6843   F         2 RES2   0.0000
   105 B1       5.7575  13.1325   5.1992   B         2 RES2  -1.0000
   106 F5       8.2953  10.1674  -0.0870   F         3 RES3   0.0000
   107 F6      10.4266  10.1597  -0.1496   F         3 RES3   0.0000
   108 F7       9.5901   9.7104   1.2924   F         3 RES3   0.0000
   109 F8       9.3253   8.3772  -0.1200   F         3 RES3   0.0000
   110 B2       9.3899   9.5231   0.0365   B         3 RES3  -1.0000
   111 O1       1.7419  10.5102   6.6203   O.3       4 RES4   0.0000
   112 O2       2.8163   8.6510   6.2481   O.2       4 RES4   0.0000
   113 C49      2.1446   9.3240   6.9386   C.2       4 RES4   0.0000
   114 C50      2.1296  11.0368   5.3018   C.3       4 RES4   0.0000
   115 H37      3.0964  11.0787   5.2398   H         4 RES4   0.0000
   116 H38      1.8086  10.4401   4.6069   H         4 RES4   0.0000
   117 C51      1.5870  12.3243   5.1053   C.3       4 RES4   0.0000
   118 H39      1.9635  12.7139   4.3137   H         4 RES4   0.0000
   119 H40      1.7930  12.8771   5.8635   H         4 RES4   0.0000
   120 H41      0.6338  12.2589   5.0083   H         4 RES4   0.0000
   121 C52      1.6133   8.8791   8.2763   C.3       4 RES4   0.0000
   122 H42      2.0734   9.3506   8.9748   H         4 RES4   0.0000
   123 H43      1.7563   7.9357   8.3790   H         4 RES4   0.0000
   124 H44      0.6742   9.0688   8.3264   H         4 RES4   0.0000
   125 O3      13.2273   0.5943   4.3016   O.3       5 RES5   0.0000
   126 O4      12.5422   2.6629   4.4478   O.2       5 RES5   0.0000
   127 C53     13.4038   1.8993   4.1851   C.2       5 RES5   0.0000
   128 C54     11.9546   0.2191   4.7487   C.3       5 RES5   0.0000
   129 H45     11.7641   0.6405   5.6003   H         5 RES5   0.0000
   130 H46     11.2814   0.5018   4.1094   H         5 RES5   0.0000
   131 C55     14.7190   2.2431   3.7450   C.3       5 RES5   0.0000
   132 H47     15.3671   1.8084   4.3052   H         5 RES5   0.0000
   133 H48     14.8363   3.1938   3.7987   H         5 RES5   0.0000
   134 H49     14.8373   1.9557   2.8371   H         5 RES5   0.0000
   135 C56     11.9300  -1.1258   4.8809   C.3       5 RES5   0.0000
   136 H50     11.9708  -1.5347   4.0133   H         5 RES5   0.0000
   137 H51     11.1173  -1.3892   5.3202   H         5 RES5   0.0000
   138 H52     12.6826  -1.4101   5.4045   H         5 RES5   0.0000
@<TRIPOS>BOND
     1     1     5    1
     2     2    43    1
     3     3    66    1
     4     4    55    1
     5     5    17    2
     6     6     1    1
     7     7     1    1
     8     8     1    1
     9     9     1    1
    10    10     1    1
    11    11    13    2
    12    12    14    2
    13    13    28    1
    14    14    33    1
    15    15    16    2
    16    16    74    1
    17    17    18    1
    18    19    20    1
    19    21     5    1
    20    22     9    1
    21    23     7    1
    22    24    10    1
    23    25     6    2
    24    26    25    1
    25    27     6    1
    26    28    50   ar
    27    29    23   ar
    28    30    29    1
    29    31    21   ar
    30    32    31    1
    31    33    45   ar
    32    34    29   ar
    33    35    34    1
    34    36    19   ar
    35    37    36    1
    36    38    39    1
    37    40    27   ar
    38    41    40    1
    39    42    11    1
    40    43     9    2
    41    44    43    1
    42    45    31   ar
    43    46    45    1
    44    47    12    1
    45    48    27   ar
    46    49    48    1
    47    50    51    1
    48    52     8    1
    49    53    21   ar
    50    54    53    1
    51    55    10    2
    52    56    55    1
    53    57    48   ar
    54    58    57    1
    55    59    47   ar
    56    60    59    1
    57    61    15    1
    58    62    33   ar
    59    63    62    1
    60    64     7    2
    61    65    64    1
    62    66     8    2
    63    67    66    1
    64    68    28   ar
    65    69    68    1
    66    70     4    1
    67    71    70    1
    68    72     3    1
    69    73    72    1
    70    74    91   ar
    71    75    47   ar
    72    76    75    1
    73    77    78    1
    74    79     2    1
    75    80    79    1
    76    81    75   ar
    77    82    81    1
    78    83    68   ar
    79    84    83    1
    80    85    59   ar
    81    86    85    1
    82    87    50   ar
    83    88    87    1
    84    89    81   ar
    85    90    89    1
    86    91    92    1
    87    93    74   ar
    88    94    93    1
    89    95    96    1
    90    97    93   ar
    91    98    97    1
    92    99    91   ar
    93   100    99    1
    94    17    24    1
    95    19    23   ar
    96    22    25    1
    97    22    79    2
    98    24    70    2
    99    34    42   ar
   100    36    42   ar
   101    38    40   ar
   102    38    61   ar
   103    52    64    1
   104    52    72    2
   105    53    62   ar
   106    57    61   ar
   107    77    83   ar
   108    77    87   ar
   109    85    89   ar
   110    95    97   ar
   111    95    99   ar
   112   101   105    1
   113   102   105    1
   114   103   105    1
   115   104   105    1
   116   106   110    1
   117   107   110    1
   118   108   110    1
   119   109   110    1
   120   111   113    1
   121   112   113    2
   122   113   121    1
   123   114   111    1
   124   115   114    1
   125   116   114    1
   126   117   114    1
   127   118   117    1
   128   119   117    1
   129   120   117    1
   130   121   122    1
   131   123   121    1
   132   124   121    1
   133   125   127    1
   134   126   127    2
   135   127   131    1
   136   128   125    1
   137   129   128    1
   138   130   128    1
   139   131   132    1
   140   133   131    1
   141   134   131    1
   142   135   128    1
   143   136   135    1
   144   137   135    1
   145   138   135    1
@<TRIPOS>SUBSTRUCTURE
     1 RES1        1 GROUP             0 ****  ****    0  
     2 RES2      101 GROUP             0 ****  ****    0  
     3 RES3      106 GROUP             0 ****  ****    0  
     4 RES4      111 GROUP             0 ****  ****    0  
     5 RES5      125 GROUP             0 ****  ****    0  
@<TRIPOS>CRYSIN
   12.8311   14.0706   18.6133  105.7310  100.9360   98.1720     2     1
