@<TRIPOS>MOLECULE
RECCUY
   118   126     2     0     0
SMALL
NO_CHARGES
****
Generated from the CSD

@<TRIPOS>ATOM
     1 Fe1     -3.5537  10.8555  10.7625   Fe        1 RES1   0.0000
     2 S1      -1.8408  10.8258   8.0403   S.o2      1 RES1   0.0000
     3 O1      -2.7609  10.1883   8.9791   O.3       1 RES1   0.0000
     4 O2      -2.4686  11.1636   6.8019   O.2       1 RES1   0.0000
     5 O3      -0.5639  10.1786   7.9793   O.2       1 RES1   0.0000
     6 N1      -3.6921  12.8405   9.8767   N.2       1 RES1   0.0000
     7 N2      -2.6919  13.2376   9.0189   N.pl3     1 RES1   0.0000
     8 N3      -1.5512  11.6054  11.1897   N.2       1 RES1   0.0000
     9 N4      -0.8434  12.2020  10.1619   N.pl3     1 RES1   0.0000
    10 N5      -0.1414  14.4491   8.5056   N.2       1 RES1   0.0000
    11 N6      -0.5493  13.2122   8.0546   N.pl3     1 RES1   0.0000
    12 C1      -1.4586  12.4567   8.8640   C.3       1 RES1   0.0000
    13 C2      -3.0250  14.3718   8.3764   C.2       1 RES1   0.0000
    14 H1      -2.5013  14.8286   7.7296   H         1 RES1   0.0000
    15 C3      -4.2568  14.7444   8.8295   C.2       1 RES1   0.0000
    16 H2      -4.7566  15.5060   8.5594   H         1 RES1   0.0000
    17 C4      -4.6354  13.7861   9.7680   C.2       1 RES1   0.0000
    18 C5      -5.8566  13.7858  10.6365   C.3       1 RES1   0.0000
    19 H3      -6.1120  12.8377  10.8303   H         1 RES1   0.0000
    20 C6      -5.5653  14.4975  11.9636   C.3       1 RES1   0.0000
    21 H4      -5.3218  15.4300  11.7871   H         1 RES1   0.0000
    22 H5      -4.8252  14.0470  12.4199   H         1 RES1   0.0000
    23 H6      -6.3645  14.4704  12.5307   H         1 RES1   0.0000
    24 C7      -7.0269  14.4736   9.9230   C.3       1 RES1   0.0000
    25 H7      -6.8015  15.4126   9.7573   H         1 RES1   0.0000
    26 H8      -7.8267  14.4248  10.4859   H         1 RES1   0.0000
    27 H9      -7.1987  14.0231   9.0695   H         1 RES1   0.0000
    28 C8       0.4497  12.3757  10.5095   C.2       1 RES1   0.0000
    29 H10      1.1350  12.7378   9.9596   H         1 RES1   0.0000
    30 C9       0.5923  11.9397  11.7827   C.2       1 RES1   0.0000
    31 H11      1.3870  11.9519  12.3036   H         1 RES1   0.0000
    32 C10     -0.6714  11.4654  12.1810   C.2       1 RES1   0.0000
    33 C11     -1.0822  10.9326  13.5134   C.3       1 RES1   0.0000
    34 H12     -1.8071  10.2584  13.3734   H         1 RES1   0.0000
    35 C12     -1.6365  12.0626  14.3948   C.3       1 RES1   0.0000
    36 H13     -1.9277  11.6914  15.2547   H         1 RES1   0.0000
    37 H14     -2.3988  12.4838  13.9460   H         1 RES1   0.0000
    38 H15     -0.9367  12.7313  14.5476   H         1 RES1   0.0000
    39 C13      0.0896  10.2432  14.2129   C.3       1 RES1   0.0000
    40 H16      0.7764  10.9076  14.4303   H         1 RES1   0.0000
    41 H17      0.4706   9.5637  13.6199   H         1 RES1   0.0000
    42 H18     -0.2267   9.8199  15.0384   H         1 RES1   0.0000
    43 C14     -0.1042  12.9756   6.7793   C.2       1 RES1   0.0000
    44 H19     -0.2686  12.2016   6.2530   H         1 RES1   0.0000
    45 C15      0.6145  14.0609   6.4209   C.2       1 RES1   0.0000
    46 H20      1.0758  14.1903   5.6008   H         1 RES1   0.0000
    47 C16      0.5450  14.9630   7.5014   C.2       1 RES1   0.0000
    48 C17      1.0609  16.3712   7.5649   C.3       1 RES1   0.0000
    49 H21      1.1761  16.6176   8.5271   H         1 RES1   0.0000
    50 C18      2.4071  16.5394   6.8665   C.3       1 RES1   0.0000
    51 H22      3.0419  15.8794   7.2162   H         1 RES1   0.0000
    52 H23      2.7506  17.4426   7.0333   H         1 RES1   0.0000
    53 H24      2.2947  16.4070   5.9021   H         1 RES1   0.0000
    54 C19      0.0390  17.3102   6.9569   C.3       1 RES1   0.0000
    55 H25     -0.1138  17.0627   6.0205   H         1 RES1   0.0000
    56 H26      0.3727  18.2286   7.0021   H         1 RES1   0.0000
    57 H27     -0.8015  17.2429   7.4541   H         1 RES1   0.0000
    58 S1B     -5.2666  10.8852  13.4846   S.o2      1 RES1   0.0000
    59 O1B     -4.3465  11.5227  12.5458   O.3       1 RES1   0.0000
    60 O2B     -4.6388  10.5474  14.7231   O.2       1 RES1   0.0000
    61 O3B     -6.5435  11.5324  13.5456   O.2       1 RES1   0.0000
    62 N1B     -3.4154   8.8705  11.6482   N.2       1 RES1   0.0000
    63 N2B     -4.4156   8.4734  12.5060   N.pl3     1 RES1   0.0000
    64 N3B     -5.5563  10.1056  10.3352   N.2       1 RES1   0.0000
    65 N4B     -6.2640   9.5090  11.3630   N.pl3     1 RES1   0.0000
    66 N5B     -6.9660   7.2619  13.0194   N.2       1 RES1   0.0000
    67 N6B     -6.5582   8.4988  13.4703   N.pl3     1 RES1   0.0000
    68 C1B     -5.6489   9.2543  12.6610   C.3       1 RES1   0.0000
    69 C2B     -4.0825   7.3392  13.1485   C.2       1 RES1   0.0000
    70 H1B     -4.6061   6.8824  13.7953   H         1 RES1   0.0000
    71 C3B     -2.8506   6.9666  12.6954   C.2       1 RES1   0.0000
    72 H2B     -2.3509   6.2050  12.9655   H         1 RES1   0.0000
    73 C4B     -2.4721   7.9249  11.7569   C.2       1 RES1   0.0000
    74 C5B     -1.2508   7.9252  10.8884   C.3       1 RES1   0.0000
    75 H3B     -0.9954   8.8733  10.6947   H         1 RES1   0.0000
    76 C6B     -1.5421   7.2135   9.5614   C.3       1 RES1   0.0000
    77 H4B     -1.7856   6.2810   9.7379   H         1 RES1   0.0000
    78 H5B     -2.2822   7.6640   9.1050   H         1 RES1   0.0000
    79 H6B     -0.7430   7.2406   8.9942   H         1 RES1   0.0000
    80 C7B     -0.0806   7.2374  11.6019   C.3       1 RES1   0.0000
    81 H7B     -0.3060   6.2984  11.7677   H         1 RES1   0.0000
    82 H8B      0.7192   7.2862  11.0391   H         1 RES1   0.0000
    83 H9B      0.0913   7.6879  12.4554   H         1 RES1   0.0000
    84 C8B     -7.5572   9.3353  11.0154   C.2       1 RES1   0.0000
    85 H10B    -8.2424   8.9732  11.5653   H         1 RES1   0.0000
    86 C9B     -7.6997   9.7713   9.7422   C.2       1 RES1   0.0000
    87 H11B    -8.4944   9.7591   9.2213   H         1 RES1   0.0000
    88 C10B    -6.4361  10.2456   9.3440   C.2       1 RES1   0.0000
    89 C11B    -6.0253  10.7784   8.0116   C.3       1 RES1   0.0000
    90 H12B    -5.3004  11.4526   8.1515   H         1 RES1   0.0000
    91 C12B    -5.4709   9.6484   7.1301   C.3       1 RES1   0.0000
    92 H13B    -5.1797  10.0196   6.2702   H         1 RES1   0.0000
    93 H14B    -4.7086   9.2272   7.5789   H         1 RES1   0.0000
    94 H15B    -6.1707   8.9797   6.9773   H         1 RES1   0.0000
    95 C13B    -7.1970  11.4678   7.3120   C.3       1 RES1   0.0000
    96 H16B    -7.8838  10.8034   7.0946   H         1 RES1   0.0000
    97 H17B    -7.5780  12.1473   7.9050   H         1 RES1   0.0000
    98 H18B    -6.8807  11.8911   6.4865   H         1 RES1   0.0000
    99 C14B    -7.0032   8.7354  14.7457   C.2       1 RES1   0.0000
   100 H19B    -6.8388   9.5094  15.2719   H         1 RES1   0.0000
   101 C15B    -7.7220   7.6501  15.1040   C.2       1 RES1   0.0000
   102 H20B    -8.1832   7.5207  15.9241   H         1 RES1   0.0000
   103 C16B    -7.6524   6.7480  14.0235   C.2       1 RES1   0.0000
   104 C17B    -8.1684   5.3398  13.9600   C.3       1 RES1   0.0000
   105 H21B    -8.2836   5.0934  12.9978   H         1 RES1   0.0000
   106 C18B    -9.5145   5.1716  14.6585   C.3       1 RES1   0.0000
   107 H22B   -10.1493   5.8316  14.3087   H         1 RES1   0.0000
   108 H23B    -9.8580   4.2684  14.4917   H         1 RES1   0.0000
   109 H24B    -9.4021   5.3040  15.6228   H         1 RES1   0.0000
   110 C19B    -7.1465   4.4008  14.5681   C.3       1 RES1   0.0000
   111 H25B    -6.9936   4.6483  15.5044   H         1 RES1   0.0000
   112 H26B    -7.4801   3.4824  14.5229   H         1 RES1   0.0000
   113 H27B    -6.3059   4.4681  14.0708   H         1 RES1   0.0000
   114 Cl1      4.8502  14.2272   5.1089   Cl        2 RES2   0.0000
   115 Cl2      7.7230  14.5134   4.8532   Cl        2 RES2   0.0000
   116 C20      6.3847  13.4022   5.0971   C.3       2 RES2   0.0000
   117 H28      6.3856  12.7270   4.3728   H         2 RES2   0.0000
   118 H29      6.5066  12.9289   5.9570   H         2 RES2   0.0000
@<TRIPOS>BOND
     1     1     3    1
     2     2     3    1
     3     4     2    2
     4     5     2    2
     5     6     1    1
     6     7     6    1
     7     8     1    1
     8     9     8    1
     9    10    11    1
    10    11    12    1
    11    12     2    1
    12    13     7    1
    13    14    13    1
    14    15    13    2
    15    16    15    1
    16    17     6    2
    17    18    17    1
    18    19    18    1
    19    20    18    1
    20    21    20    1
    21    22    20    1
    22    23    20    1
    23    24    18    1
    24    25    24    1
    25    26    24    1
    26    27    24    1
    27    28     9    1
    28    29    28    1
    29    30    28    2
    30    31    30    1
    31    32     8    2
    32    33    32    1
    33    34    33    1
    34    35    33    1
    35    36    35    1
    36    37    35    1
    37    38    35    1
    38    39    33    1
    39    40    39    1
    40    41    39    1
    41    42    39    1
    42    43    11    1
    43    44    43    1
    44    45    43    2
    45    46    45    1
    46    47    10    2
    47    48    47    1
    48    49    48    1
    49    50    48    1
    50    51    50    1
    51    52    50    1
    52    53    50    1
    53    54    48    1
    54    55    54    1
    55    56    54    1
    56    57    54    1
    57    58    59    1
    58    59     1    1
    59    60    58    2
    60    61    58    2
    61    62     1    1
    62    63    62    1
    63    64     1    1
    64    65    64    1
    65    66    67    1
    66    67    68    1
    67    68    58    1
    68    69    63    1
    69    70    69    1
    70    71    69    2
    71    72    71    1
    72    73    62    2
    73    74    73    1
    74    75    74    1
    75    76    74    1
    76    77    76    1
    77    78    76    1
    78    79    76    1
    79    80    74    1
    80    81    80    1
    81    82    80    1
    82    83    80    1
    83    84    65    1
    84    85    84    1
    85    86    84    2
    86    87    86    1
    87    88    64    2
    88    89    88    1
    89    90    89    1
    90    91    89    1
    91    92    91    1
    92    93    91    1
    93    94    91    1
    94    95    89    1
    95    96    95    1
    96    97    95    1
    97    98    95    1
    98    99    67    1
    99   100    99    1
   100   101    99    2
   101   102   101    1
   102   103    66    2
   103   104   103    1
   104   105   104    1
   105   106   104    1
   106   107   106    1
   107   108   106    1
   108   109   106    1
   109   110   104    1
   110   111   110    1
   111   112   110    1
   112   113   110    1
   113     7    12    1
   114     9    12    1
   115    15    17    1
   116    30    32    1
   117    45    47    1
   118    63    68    1
   119    65    68    1
   120    71    73    1
   121    86    88    1
   122   101   103    1
   123   114   116    1
   124   115   116    1
   125   116   117    1
   126   118   116    1
@<TRIPOS>SUBSTRUCTURE
     1 RES1        1 GROUP             0 ****  ****    0  
     2 RES2      114 GROUP             0 ****  ****    0  
@<TRIPOS>CRYSIN
   10.4060   21.7110   11.3340   90.0000  108.2730   90.0000    14     1
