@<TRIPOS>MOLECULE
RENJIG
   144   163     2     0     0
SMALL
USER_CHARGES
****
Generated from the CSD

@<TRIPOS>ATOM
     1 Fe1      5.1695   3.3963   0.0000   Fe        1 RES1   0.0000
     2 N1       5.6812   4.7189   1.4027   N.2       1 RES1   0.0000
     3 N2       7.0547   2.7244  -0.0350   N.2       1 RES1   0.0000
     4 N3       4.0824   1.3596   2.1026   N.1       1 RES1   0.0000
     5 C1       4.8569   5.6370   2.0040   C.2       1 RES1   0.0000
     6 C2       6.9426   4.9852   1.8817   C.2       1 RES1   0.0000
     7 C3       8.1367   3.2431   0.6353   C.2       1 RES1   0.0000
     8 C4       7.5669   1.7448  -0.8542   C.2       1 RES1   0.0000
     9 C5       5.6146   6.4926   2.8814   C.2       1 RES1   0.0000
    10 H1       5.2734   7.1989   3.4168   H         1 RES1   0.0000
    11 C6       6.9048   6.0970   2.7941   C.2       1 RES1   0.0000
    12 H2       7.6451   6.4802   3.2498   H         1 RES1   0.0000
    13 C7       9.3390   2.5371   0.2674   C.2       1 RES1   0.0000
    14 H3      10.2116   2.6899   0.6109   H         1 RES1   0.0000
    15 C8       8.9886   1.6167  -0.6569   C.2       1 RES1   0.0000
    16 H4       9.5676   1.0026  -1.0934   H         1 RES1   0.0000
    17 C9       8.1123   4.3159   1.5274   C.2       1 RES1   0.0000
    18 C10      6.8461   1.0045  -1.7849   C.2       1 RES1   0.0000
    19 C11      9.4074   4.8308   2.0686   C.ar      1 RES1   0.0000
    20 C12      9.7198   4.7696   3.4269   C.ar      1 RES1   0.0000
    21 H5       9.1074   4.3718   4.0337   H         1 RES1   0.0000
    22 C13     10.9249   5.2888   3.8983   C.ar      1 RES1   0.0000
    23 H6      11.1268   5.2480   4.8258   H         1 RES1   0.0000
    24 C14     11.8317   5.8640   3.0217   C.ar      1 RES1   0.0000
    25 H7      12.6556   6.2085   3.3455   H         1 RES1   0.0000
    26 C15     11.5338   5.9349   1.6736   C.ar      1 RES1   0.0000
    27 H8      12.1522   6.3281   1.0690   H         1 RES1   0.0000
    28 C16     10.3237   5.4289   1.2046   C.ar      1 RES1   0.0000
    29 H9      10.1196   5.4926   0.2790   H         1 RES1   0.0000
    30 C17      7.5708   0.0058  -2.6235   C.ar      1 RES1   0.0000
    31 C18      8.0784  -1.1664  -2.0786   C.ar      1 RES1   0.0000
    32 H10      7.9949  -1.3246  -1.1464   H         1 RES1   0.0000
    33 C19      8.7074  -2.1112  -2.8814   C.ar      1 RES1   0.0000
    34 H11      9.0433  -2.9127  -2.4984   H         1 RES1   0.0000
    35 C20      8.8457  -1.8824  -4.2414   C.ar      1 RES1   0.0000
    36 H12      9.2819  -2.5255  -4.7892   H         1 RES1   0.0000
    37 C21      8.3498  -0.7170  -4.8055   C.ar      1 RES1   0.0000
    38 H13      8.4452  -0.5597  -5.7380   H         1 RES1   0.0000
    39 C22      7.7117   0.2213  -3.9979   C.ar      1 RES1   0.0000
    40 H14      7.3679   1.0175  -4.3860   H         1 RES1   0.0000
    41 C23      4.5600   2.0996   1.3610   C.1       1 RES1  -1.0000
    42 N1F      4.6578   2.0738  -1.4027   N.2       1 RES1   0.0000
    43 N2F      3.2843   4.0683   0.0350   N.2       1 RES1   0.0000
    44 C1F      5.4821   1.1557  -2.0040   C.2       1 RES1   0.0000
    45 C2F      3.3964   1.8075  -1.8817   C.2       1 RES1   0.0000
    46 C3F      2.2023   3.5496  -0.6353   C.2       1 RES1   0.0000
    47 C4F      2.7721   5.0479   0.8542   C.2       1 RES1   0.0000
    48 C5F      4.7244   0.3001  -2.8814   C.2       1 RES1   0.0000
    49 H1F      5.0656  -0.4062  -3.4168   H         1 RES1   0.0000
    50 C6F      3.4342   0.6957  -2.7941   C.2       1 RES1   0.0000
    51 H2F      2.6939   0.3125  -3.2498   H         1 RES1   0.0000
    52 C7F      1.0000   4.2556  -0.2674   C.2       1 RES1   0.0000
    53 H3F      0.1274   4.1028  -0.6109   H         1 RES1   0.0000
    54 C8F      1.3504   5.1760   0.6569   C.2       1 RES1   0.0000
    55 H4F      0.7714   5.7901   1.0934   H         1 RES1   0.0000
    56 C9F      2.2267   2.4768  -1.5274   C.2       1 RES1   0.0000
    57 C10F     3.4929   5.7882   1.7849   C.2       1 RES1   0.0000
    58 C11F     0.9316   1.9619  -2.0686   C.ar      1 RES1   0.0000
    59 C12F     0.6192   2.0231  -3.4269   C.ar      1 RES1   0.0000
    60 H5F      1.2316   2.4209  -4.0337   H         1 RES1   0.0000
    61 C13F    -0.5859   1.5039  -3.8983   C.ar      1 RES1   0.0000
    62 H6F     -0.7878   1.5447  -4.8258   H         1 RES1   0.0000
    63 C14F    -1.4927   0.9287  -3.0217   C.ar      1 RES1   0.0000
    64 H7F     -2.3166   0.5842  -3.3455   H         1 RES1   0.0000
    65 C15F    -1.1948   0.8578  -1.6736   C.ar      1 RES1   0.0000
    66 H8F     -1.8132   0.4646  -1.0690   H         1 RES1   0.0000
    67 C16F     0.0153   1.3638  -1.2046   C.ar      1 RES1   0.0000
    68 H9F      0.2194   1.3001  -0.2790   H         1 RES1   0.0000
    69 C17F     2.7682   6.7869   2.6235   C.ar      1 RES1   0.0000
    70 C18F     2.2606   7.9591   2.0786   C.ar      1 RES1   0.0000
    71 H10F     2.3441   8.1173   1.1464   H         1 RES1   0.0000
    72 C19F     1.6316   8.9039   2.8814   C.ar      1 RES1   0.0000
    73 H11F     1.2957   9.7054   2.4984   H         1 RES1   0.0000
    74 C20F     1.4933   8.6751   4.2414   C.ar      1 RES1   0.0000
    75 H12F     1.0571   9.3182   4.7892   H         1 RES1   0.0000
    76 C21F     1.9892   7.5097   4.8055   C.ar      1 RES1   0.0000
    77 H13F     1.8938   7.3524   5.7380   H         1 RES1   0.0000
    78 C22F     2.6273   6.5714   3.9979   C.ar      1 RES1   0.0000
    79 H14F     2.9711   5.7752   4.3860   H         1 RES1   0.0000
    80 N3F      6.2566   5.4331  -2.1026   N.1       1 RES1   0.0000
    81 C23F     5.7790   4.6931  -1.3610   C.1       1 RES1   0.0000
    82 K1       4.1027   2.3663  15.2716   K         2 RES2   1.0000
    83 N4       5.5744   2.3793  17.9608   N.3       2 RES2   0.0000
    84 O1       2.8973   3.5317  17.5020   O.3       2 RES2   0.0000
    85 O2       6.5981   3.7520  15.5522   O.3       2 RES2   0.0000
    86 O3       4.8787  -0.0518  16.4587   O.3       2 RES2   0.0000
    87 C24      4.6366   2.8605  18.9768   C.3       2 RES2   0.0000
    88 H15      5.1481   3.1464  19.7757   H         2 RES2   0.0000
    89 H16      4.0483   2.1125  19.2483   H         2 RES2   0.0000
    90 C25      3.7834   4.0070  18.5095   C.3       2 RES2   0.0000
    91 H17      3.2666   4.3745  19.2686   H         2 RES2   0.0000
    92 H18      4.3563   4.7277  18.1447   H         2 RES2   0.0000
    93 C26      1.8506   4.4587  17.2477   C.3       2 RES2   0.0000
    94 H19      2.2283   5.3065  16.9046   H         2 RES2   0.0000
    95 H20      1.3614   4.6530  18.0856   H         2 RES2   0.0000
    96 C27      6.0083   1.0097  18.2742   C.3       2 RES2   0.0000
    97 H21      6.1761   0.9415  19.2483   H         2 RES2   0.0000
    98 H22      6.8632   0.8301  17.8087   H         2 RES2   0.0000
    99 C28      5.0080  -0.0435  17.8785   C.3       2 RES2   0.0000
   100 H23      5.3123  -0.9320  18.1935   H         2 RES2   0.0000
   101 H24      4.1314   0.1508  18.2953   H         2 RES2   0.0000
   102 C29      4.1414  -1.1795  16.0113   C.3       2 RES2   0.0000
   103 H25      3.2269  -1.1534  16.3935   H         2 RES2   0.0000
   104 H26      4.5815  -2.0093  16.3222   H         2 RES2   0.0000
   105 C30      6.7414   3.2696  17.8826   C.3       2 RES2   0.0000
   106 H27      7.3801   3.0255  18.5987   H         2 RES2   0.0000
   107 H28      6.4462   4.2006  18.0449   H         2 RES2   0.0000
   108 C31      7.4449   3.2026  16.5548   C.3       2 RES2   0.0000
   109 H29      8.2926   3.7129  16.5971   H         2 RES2   0.0000
   110 H30      7.6596   2.2620  16.3345   H         2 RES2   0.0000
   111 C32      7.2879   3.8736  14.3042   C.3       2 RES2   0.0000
   112 H31      7.5972   2.9834  14.0010   H         2 RES2   0.0000
   113 H32      8.0785   4.4587  14.4123   H         2 RES2   0.0000
   114 N4A      2.6310   2.3793  12.5823   N.3       2 RES2   0.0000
   115 O1A      5.3082   3.5317  13.0411   O.3       2 RES2   0.0000
   116 O2A      1.6074   3.7520  14.9910   O.3       2 RES2   0.0000
   117 O3A      3.3268  -0.0518  14.0845   O.3       2 RES2   0.0000
   118 C24A     3.5689   2.8605  11.5663   C.3       2 RES2   0.0000
   119 H15A     3.0574   3.1464  10.7675   H         2 RES2   0.0000
   120 H16A     4.1572   2.1125  11.2948   H         2 RES2   0.0000
   121 C25A     4.4221   4.0070  12.0336   C.3       2 RES2   0.0000
   122 H17A     4.9389   4.3745  11.2745   H         2 RES2   0.0000
   123 H18A     3.8492   4.7277  12.3985   H         2 RES2   0.0000
   124 C26A     6.3549   4.4587  13.2954   C.3       2 RES2   0.0000
   125 H19A     5.9772   5.3065  13.6385   H         2 RES2   0.0000
   126 H20A     6.8441   4.6530  12.4575   H         2 RES2   0.0000
   127 C27A     2.1972   1.0097  12.2690   C.3       2 RES2   0.0000
   128 H21A     2.0294   0.9415  11.2948   H         2 RES2   0.0000
   129 H22A     1.3423   0.8301  12.7344   H         2 RES2   0.0000
   130 C28A     3.1975  -0.0435  12.6646   C.3       2 RES2   0.0000
   131 H23A     2.8932  -0.9320  12.3496   H         2 RES2   0.0000
   132 H24A     4.0741   0.1508  12.2478   H         2 RES2   0.0000
   133 C29A     4.0641  -1.1795  14.5318   C.3       2 RES2   0.0000
   134 H25A     4.9786  -1.1534  14.1496   H         2 RES2   0.0000
   135 H26A     3.6240  -2.0093  14.2209   H         2 RES2   0.0000
   136 C30A     1.4641   3.2696  12.6605   C.3       2 RES2   0.0000
   137 H27A     0.8254   3.0255  11.9444   H         2 RES2   0.0000
   138 H28A     1.7593   4.2006  12.4982   H         2 RES2   0.0000
   139 C31A     0.7606   3.2026  13.9883   C.3       2 RES2   0.0000
   140 H29A    -0.0871   3.7129  13.9460   H         2 RES2   0.0000
   141 H30A     0.5459   2.2620  14.2087   H         2 RES2   0.0000
   142 C32A     0.9176   3.8736  16.2390   C.3       2 RES2   0.0000
   143 H31A     0.6083   2.9834  16.5422   H         2 RES2   0.0000
   144 H32A     0.1270   4.4587  16.1308   H         2 RES2   0.0000
@<TRIPOS>BOND
     1     1     2    1
     2     2     5    1
     3     3     1    1
     4     4    41    3
     5     5     9    2
     6     6     2    1
     7     7     3    1
     8     8     3    2
     9     9    10    1
    10    11     6    2
    11    12    11    1
    12    13     7    1
    13    14    13    1
    14    15     8    1
    15    16    15    1
    16    17     6    1
    17    18     8    1
    18    19    17    1
    19    20    19   ar
    20    21    20    1
    21    22    20   ar
    22    23    22    1
    23    24    22   ar
    24    25    24    1
    25    26    24   ar
    26    27    26    1
    27    28    19   ar
    28    29    28    1
    29    30    18    1
    30    31    30   ar
    31    32    31    1
    32    33    31   ar
    33    34    33    1
    34    35    33   ar
    35    36    35    1
    36    37    35   ar
    37    38    37    1
    38    39    30   ar
    39    40    39    1
    40    41     1    1
    41    42     1    1
    42    43     1    1
    43    44    18    2
    44    45    42    1
    45    46    43    2
    46    47    43    1
    47    48    44    1
    48    49    48    1
    49    50    45    1
    50    51    50    1
    51    52    46    1
    52    53    52    1
    53    54    47    1
    54    55    54    1
    55    56    45    2
    56    57     5    1
    57    58    56    1
    58    59    58   ar
    59    60    59    1
    60    61    59   ar
    61    62    61    1
    62    63    61   ar
    63    64    63    1
    64    65    63   ar
    65    66    65    1
    66    67    58   ar
    67    68    67    1
    68    69    57    1
    69    70    69   ar
    70    71    70    1
    71    72    70   ar
    72    73    72    1
    73    74    72   ar
    74    75    74    1
    75    76    74   ar
    76    77    76    1
    77    78    69   ar
    78    79    78    1
    79    80    81    3
    80    81     1    1
    81     7    17    2
    82     9    11    1
    83    13    15    2
    84    26    28   ar
    85    37    39   ar
    86    42    44    1
    87    46    56    1
    88    47    57    2
    89    48    50    2
    90    52    54    2
    91    65    67   ar
    92    76    78   ar
    93    82    83    1
    94    83    87    1
    95    84    82    1
    96    85    82    1
    97    86    82    1
    98    87    88    1
    99    89    87    1
   100    90    84    1
   101    91    90    1
   102    92    90    1
   103    93    84    1
   104    94    93    1
   105    95    93    1
   106    96    83    1
   107    97    96    1
   108    98    96    1
   109    99    86    1
   110   100    99    1
   111   101    99    1
   112   102    86    1
   113   103   102    1
   114   104   102    1
   115   105    83    1
   116   106   105    1
   117   107   105    1
   118   108    85    1
   119   109   108    1
   120   110   108    1
   121   111    85    1
   122   112   111    1
   123   113   111    1
   124   114    82    1
   125   115    82    1
   126   116    82    1
   127   117    82    1
   128   118   114    1
   129   119   118    1
   130   120   118    1
   131   121   115    1
   132   122   121    1
   133   123   121    1
   134   124   111    1
   135   125   124    1
   136   126   124    1
   137   127   114    1
   138   128   127    1
   139   129   127    1
   140   130   117    1
   141   131   130    1
   142   132   130    1
   143   133   102    1
   144   134   133    1
   145   135   133    1
   146   136   114    1
   147   137   136    1
   148   138   136    1
   149   139   116    1
   150   140   139    1
   151   141   139    1
   152   142    93    1
   153   143   142    1
   154   144   142    1
   155    87    90    1
   156    96    99    1
   157   105   108    1
   158   115   124    1
   159   116   142    1
   160   117   133    1
   161   118   121    1
   162   127   130    1
   163   136   139    1
@<TRIPOS>SUBSTRUCTURE
     1 RES1        1 GROUP             0 ****  ****    0  
     2 RES2       82 GROUP             0 ****  ****    0  
@<TRIPOS>CRYSIN
   20.6780   13.5854   21.9944   90.0000  112.2130   90.0000    15     1
