@<TRIPOS>MOLECULE
RENJIG01
   144   163     2     0     0
SMALL
USER_CHARGES
****
Generated from the CSD

@<TRIPOS>ATOM
     1 Fe1      5.1708  10.3928   0.0000   Fe        1 RES1   0.0000
     2 N1       5.6925  11.7445   1.3692   N.2       1 RES1   0.0000
     3 N2       7.0555   9.7200  -0.0394   N.2       1 RES1   0.0000
     4 N3       4.1697   8.3966   2.1721   N.1       1 RES1   0.0000
     5 C1       4.8731  12.6704   1.9659   C.2       1 RES1   0.0000
     6 C2       6.9576  12.0040   1.8473   C.2       1 RES1   0.0000
     7 C3       8.1390  10.2349   0.6283   C.2       1 RES1   0.0000
     8 C4       7.5589   8.7217  -0.8406   C.2       1 RES1   0.0000
     9 C5       5.6443  13.5269   2.8291   C.2       1 RES1   0.0000
    10 H1       5.3186  14.2256   3.3476   H         1 RES1   0.0000
    11 C6       6.9213  13.1276   2.7442   C.2       1 RES1   0.0000
    12 H2       7.6477  13.5064   3.1843   H         1 RES1   0.0000
    13 C7       9.3293   9.5127   0.2715   C.2       1 RES1   0.0000
    14 H3      10.1850   9.6569   0.6083   H         1 RES1   0.0000
    15 C8       8.9756   8.5949  -0.6344   C.2       1 RES1   0.0000
    16 H4       9.5415   7.9872  -1.0533   H         1 RES1   0.0000
    17 C9       8.1195  11.3192   1.5052   C.2       1 RES1   0.0000
    18 C10      6.8309   7.9703  -1.7505   C.2       1 RES1   0.0000
    19 C11      9.4188  11.8261   2.0559   C.ar      1 RES1   0.0000
    20 C12      9.7284  11.7477   3.4056   C.ar      1 RES1   0.0000
    21 H5       9.1340  11.3420   3.9947   H         1 RES1   0.0000
    22 C13     10.9308  12.2773   3.8805   C.ar      1 RES1   0.0000
    23 H6      11.1274  12.2302   4.7887   H         1 RES1   0.0000
    24 C14     11.8190  12.8623   3.0265   C.ar      1 RES1   0.0000
    25 H7      12.6221  13.2016   3.3517   H         1 RES1   0.0000
    26 C15     11.5319  12.9495   1.6977   C.ar      1 RES1   0.0000
    27 H8      12.1363  13.3484   1.1145   H         1 RES1   0.0000
    28 C16     10.3314  12.4394   1.2143   C.ar      1 RES1   0.0000
    29 H9      10.1375  12.5115   0.3082   H         1 RES1   0.0000
    30 C17      7.5479   6.9580  -2.5866   C.ar      1 RES1   0.0000
    31 C18      8.0181   5.7745  -2.0571   C.ar      1 RES1   0.0000
    32 H10      7.9188   5.6093  -1.1472   H         1 RES1   0.0000
    33 C19      8.6359   4.8275  -2.8614   C.ar      1 RES1   0.0000
    34 H11      8.9410   4.0310  -2.4903   H         1 RES1   0.0000
    35 C20      8.7961   5.0651  -4.1969   C.ar      1 RES1   0.0000
    36 H12      9.2221   4.4342  -4.7315   H         1 RES1   0.0000
    37 C21      8.3323   6.2287  -4.7530   C.ar      1 RES1   0.0000
    38 H13      8.4330   6.3825  -5.6644   H         1 RES1   0.0000
    39 C22      7.7125   7.1756  -3.9493   C.ar      1 RES1   0.0000
    40 H14      7.4030   7.9664  -4.3274   H         1 RES1   0.0000
    41 C23      4.6065   9.1198   1.4035   C.1       1 RES1  -1.0000
    42 N1F      4.6490   9.0410  -1.3692   N.2       1 RES1   0.0000
    43 N2F      3.2860  11.0655   0.0394   N.2       1 RES1   0.0000
    44 C1F      5.4684   8.1151  -1.9659   C.2       1 RES1   0.0000
    45 C2F      3.3839   8.7815  -1.8473   C.2       1 RES1   0.0000
    46 C3F      2.2025  10.5506  -0.6283   C.2       1 RES1   0.0000
    47 C4F      2.7826  12.0638   0.8406   C.2       1 RES1   0.0000
    48 C5F      4.6972   7.2586  -2.8291   C.2       1 RES1   0.0000
    49 H1F      5.0229   6.5599  -3.3476   H         1 RES1   0.0000
    50 C6F      3.4202   7.6579  -2.7442   C.2       1 RES1   0.0000
    51 H2F      2.6938   7.2791  -3.1843   H         1 RES1   0.0000
    52 C7F      1.0122  11.2728  -0.2715   C.2       1 RES1   0.0000
    53 H3F      0.1565  11.1286  -0.6083   H         1 RES1   0.0000
    54 C8F      1.3659  12.1906   0.6344   C.2       1 RES1   0.0000
    55 H4F      0.8000  12.7983   1.0533   H         1 RES1   0.0000
    56 C9F      2.2220   9.4663  -1.5052   C.2       1 RES1   0.0000
    57 C10F     3.5106  12.8152   1.7505   C.2       1 RES1   0.0000
    58 C11F     0.9227   8.9594  -2.0559   C.ar      1 RES1   0.0000
    59 C12F     0.6131   9.0378  -3.4056   C.ar      1 RES1   0.0000
    60 H5F      1.2075   9.4435  -3.9947   H         1 RES1   0.0000
    61 C13F    -0.5893   8.5082  -3.8805   C.ar      1 RES1   0.0000
    62 H6F     -0.7859   8.5553  -4.7887   H         1 RES1   0.0000
    63 C14F    -1.4775   7.9232  -3.0265   C.ar      1 RES1   0.0000
    64 H7F     -2.2806   7.5839  -3.3517   H         1 RES1   0.0000
    65 C15F    -1.1904   7.8360  -1.6977   C.ar      1 RES1   0.0000
    66 H8F     -1.7948   7.4371  -1.1145   H         1 RES1   0.0000
    67 C16F     0.0101   8.3461  -1.2143   C.ar      1 RES1   0.0000
    68 H9F      0.2040   8.2740  -0.3082   H         1 RES1   0.0000
    69 C17F     2.7936  13.8275   2.5866   C.ar      1 RES1   0.0000
    70 C18F     2.3234  15.0110   2.0571   C.ar      1 RES1   0.0000
    71 H10F     2.4227  15.1762   1.1472   H         1 RES1   0.0000
    72 C19F     1.7056  15.9580   2.8614   C.ar      1 RES1   0.0000
    73 H11F     1.4005  16.7545   2.4903   H         1 RES1   0.0000
    74 C20F     1.5454  15.7204   4.1969   C.ar      1 RES1   0.0000
    75 H12F     1.1194  16.3513   4.7315   H         1 RES1   0.0000
    76 C21F     2.0092  14.5568   4.7530   C.ar      1 RES1   0.0000
    77 H13F     1.9085  14.4030   5.6644   H         1 RES1   0.0000
    78 C22F     2.6290  13.6099   3.9493   C.ar      1 RES1   0.0000
    79 H14F     2.9385  12.8191   4.3274   H         1 RES1   0.0000
    80 N3F      6.1718  12.3889  -2.1721   N.1       1 RES1   0.0000
    81 C23F     5.7350  11.6657  -1.4035   C.1       1 RES1   0.0000
    82 K1      18.6067  11.4236   5.1030   K         2 RES2   1.0000
    83 N4      17.1201  11.4083   2.4172   N.3       2 RES2   0.0000
    84 O1      19.7788  10.2155   2.8816   O.3       2 RES2   0.0000
    85 O2      16.1180  10.0438   4.8334   O.3       2 RES2   0.0000
    86 O3      17.8609  13.8300   3.9048   O.3       2 RES2   0.0000
    87 C24     18.0548  10.8888   1.4158   C.3       2 RES2   0.0000
    88 H15     18.6501  11.6039   1.1431   H         2 RES2   0.0000
    89 H16     17.5539  10.6075   0.6348   H         2 RES2   0.0000
    90 C25     18.8701   9.7442   1.9002   C.3       2 RES2   0.0000
    91 H17     18.2922   9.0652   2.2821   H         2 RES2   0.0000
    92 H18     19.3562   9.3493   1.1614   H         2 RES2   0.0000
    93 C26     20.8119   9.2911   3.1522   C.3       2 RES2   0.0000
    94 H19     21.2796   9.0722   2.3311   H         2 RES2   0.0000
    95 H20     20.4359   8.4749   3.5150   H         2 RES2   0.0000
    96 C27     15.2701  10.6297   3.8622   C.3       2 RES2   0.0000
    97 H21     15.0992  11.5567   4.0906   H         2 RES2   0.0000
    98 H22     14.4225  10.1600   3.8375   H         2 RES2   0.0000
    99 C28     15.4634   9.8814   6.0871   C.3       2 RES2   0.0000
   100 H23     14.6913   9.3022   5.9828   H         2 RES2   0.0000
   101 H24     15.1560  10.7419   6.4114   H         2 RES2   0.0000
   102 C29     18.5852  14.9408   4.3715   C.3       2 RES2   0.0000
   103 H25     18.1653  15.7568   4.0579   H         2 RES2   0.0000
   104 H26     19.4883  14.9115   4.0191   H         2 RES2   0.0000
   105 C30     17.7388  13.8071   2.4848   C.3       2 RES2   0.0000
   106 H27     18.5961  13.5909   2.0841   H         2 RES2   0.0000
   107 H28     17.4655  14.6801   2.1637   H         2 RES2   0.0000
   108 C31     16.7237  12.7829   2.0922   C.3       2 RES2   0.0000
   109 H29     15.8868  12.9826   2.5413   H         2 RES2   0.0000
   110 H30     16.5678  12.8468   1.1370   H         2 RES2   0.0000
   111 C32     15.9320  10.5507   2.5252   C.3       2 RES2   0.0000
   112 H31     16.1919   9.6306   2.3556   H         2 RES2   0.0000
   113 H32     15.2947  10.8085   1.8412   H         2 RES2   0.0000
   114 N4A     20.0933  11.4083   7.7889   N.3       2 RES2   0.0000
   115 O1A     17.4346  10.2155   7.3245   O.3       2 RES2   0.0000
   116 O2A     21.0954  10.0438   5.3727   O.3       2 RES2   0.0000
   117 O3A     19.3525  13.8300   6.3012   O.3       2 RES2   0.0000
   118 C24A    19.1587  10.8888   8.7903   C.3       2 RES2   0.0000
   119 H15A    18.5633  11.6039   9.0630   H         2 RES2   0.0000
   120 H16A    19.6595  10.6075   9.5712   H         2 RES2   0.0000
   121 C25A    18.3433   9.7442   8.3059   C.3       2 RES2   0.0000
   122 H17A    18.9212   9.0652   7.9240   H         2 RES2   0.0000
   123 H18A    17.8572   9.3493   9.0446   H         2 RES2   0.0000
   124 C26A    16.4016   9.2911   7.0538   C.3       2 RES2   0.0000
   125 H19A    15.9339   9.0722   7.8750   H         2 RES2   0.0000
   126 H20A    16.7775   8.4749   6.6911   H         2 RES2   0.0000
   127 C27A    21.9433  10.6297   6.3439   C.3       2 RES2   0.0000
   128 H21A    22.1142  11.5567   6.1155   H         2 RES2   0.0000
   129 H22A    22.7910  10.1600   6.3686   H         2 RES2   0.0000
   130 C28A    21.7501   9.8814   4.1190   C.3       2 RES2   0.0000
   131 H23A    22.5221   9.3022   4.2233   H         2 RES2   0.0000
   132 H24A    22.0575  10.7419   3.7946   H         2 RES2   0.0000
   133 C29A    18.6282  14.9408   5.8346   C.3       2 RES2   0.0000
   134 H25A    19.0481  15.7568   6.1481   H         2 RES2   0.0000
   135 H26A    17.7252  14.9115   6.1869   H         2 RES2   0.0000
   136 C30A    19.4747  13.8071   7.7213   C.3       2 RES2   0.0000
   137 H27A    18.6173  13.5909   8.1220   H         2 RES2   0.0000
   138 H28A    19.7480  14.6801   8.0424   H         2 RES2   0.0000
   139 C31A    20.4898  12.7829   8.1138   C.3       2 RES2   0.0000
   140 H29A    21.3267  12.9826   7.6648   H         2 RES2   0.0000
   141 H30A    20.6457  12.8468   9.0691   H         2 RES2   0.0000
   142 C32A    21.2814  10.5507   7.6809   C.3       2 RES2   0.0000
   143 H31A    21.0215   9.6306   7.8505   H         2 RES2   0.0000
   144 H32A    21.9188  10.8085   8.3649   H         2 RES2   0.0000
@<TRIPOS>BOND
     1     1     2    1
     2     2     5    2
     3     3     1    1
     4     4    41    3
     5     5     9    1
     6     6     2    1
     7     7     3    1
     8     8     3    1
     9     9    10    1
    10    11     6    1
    11    12    11    1
    12    13     7    2
    13    14    13    1
    14    15     8    2
    15    16    15    1
    16    17     6    2
    17    18     8    1
    18    19    17    1
    19    20    19   ar
    20    21    20    1
    21    22    20   ar
    22    23    22    1
    23    24    22   ar
    24    25    24    1
    25    26    24   ar
    26    27    26    1
    27    28    19   ar
    28    29    28    1
    29    30    18    1
    30    31    30   ar
    31    32    31    1
    32    33    31   ar
    33    34    33    1
    34    35    33   ar
    35    36    35    1
    36    37    35   ar
    37    38    37    1
    38    39    30   ar
    39    40    39    1
    40    41     1    1
    41    42     1    1
    42    43     1    1
    43    44    18    2
    44    45    42    2
    45    46    43    1
    46    47    43    1
    47    48    44    1
    48    49    48    1
    49    50    45    1
    50    51    50    1
    51    52    46    1
    52    53    52    1
    53    54    47    1
    54    55    54    1
    55    56    45    1
    56    57     5    1
    57    58    56    1
    58    59    58   ar
    59    60    59    1
    60    61    59   ar
    61    62    61    1
    62    63    61   ar
    63    64    63    1
    64    65    63   ar
    65    66    65    1
    66    67    58   ar
    67    68    67    1
    68    69    57    1
    69    70    69   ar
    70    71    70    1
    71    72    70   ar
    72    73    72    1
    73    74    72   ar
    74    75    74    1
    75    76    74   ar
    76    77    76    1
    77    78    69   ar
    78    79    78    1
    79    80    81    3
    80    81     1    1
    81     7    17    1
    82     9    11    2
    83    13    15    1
    84    26    28   ar
    85    37    39   ar
    86    42    44    1
    87    46    56    2
    88    47    57    2
    89    48    50    2
    90    52    54    2
    91    65    67   ar
    92    76    78   ar
    93    82    83    1
    94    83    87    1
    95    84    82    1
    96    85    82    1
    97    86    82    1
    98    87    88    1
    99    89    87    1
   100    90    84    1
   101    91    90    1
   102    92    90    1
   103    93    84    1
   104    94    93    1
   105    95    93    1
   106    96    85    1
   107    97    96    1
   108    98    96    1
   109    99    85    1
   110   100    99    1
   111   101    99    1
   112   102    86    1
   113   103   102    1
   114   104   102    1
   115   105    86    1
   116   106   105    1
   117   107   105    1
   118   108    83    1
   119   109   108    1
   120   110   108    1
   121   111    83    1
   122   112   111    1
   123   113   111    1
   124   114    82    1
   125   115    82    1
   126   116    82    1
   127   117    82    1
   128   118   114    1
   129   119   118    1
   130   120   118    1
   131   121   115    1
   132   122   121    1
   133   123   121    1
   134   124    99    1
   135   125   124    1
   136   126   124    1
   137   127   116    1
   138   128   127    1
   139   129   127    1
   140   130    93    1
   141   131   130    1
   142   132   130    1
   143   133   102    1
   144   134   133    1
   145   135   133    1
   146   136   117    1
   147   137   136    1
   148   138   136    1
   149   139   114    1
   150   140   139    1
   151   141   139    1
   152   142   114    1
   153   143   142    1
   154   144   142    1
   155    87    90    1
   156    96   111    1
   157   105   108    1
   158   115   124    1
   159   116   130    1
   160   117   133    1
   161   118   121    1
   162   127   142    1
   163   136   139    1
@<TRIPOS>SUBSTRUCTURE
     1 RES1        1 GROUP             0 ****  ****    0  
     2 RES2       82 GROUP             0 ****  ****    0  
@<TRIPOS>CRYSIN
   20.6830   13.8570   22.0370   90.0000  112.1400   90.0000    15     1
