@<TRIPOS>MOLECULE
RENKAZ
   161   179     3     0     0
SMALL
USER_CHARGES
****
Generated from the CSD

@<TRIPOS>ATOM
     1 Fe1      4.2667   4.1151  13.2497   Fe        1 RES1  -1.0000
     2 N1       3.5444   5.8017  12.4548   N.2       1 RES1   0.0000
     3 N2       3.8460   3.1421  11.5373   N.2       1 RES1   0.0000
     4 N3       1.2933   3.4911  13.9777   N.1       1 RES1   0.0000
     5 C1       3.5343   7.0406  13.0408   C.2       1 RES1   0.0000
     6 C2       2.8761   5.9442  11.2530   C.2       1 RES1   0.0000
     7 C3       3.1962   3.6552  10.4370   C.2       1 RES1   0.0000
     8 C4       3.9652   1.7949  11.3093   C.2       1 RES1   0.0000
     9 C5       2.8335   7.9736  12.1924   C.2       1 RES1   0.0000
    10 H1       2.6861   8.8953  12.3700   H         1 RES1   0.0000
    11 C6       2.4270   7.2925  11.1021   C.2       1 RES1   0.0000
    12 H2       1.9350   7.6443  10.3692   H         1 RES1   0.0000
    13 C7       2.9729   2.6177   9.4807   C.2       1 RES1   0.0000
    14 H3       2.5720   2.7209   8.6256   H         1 RES1   0.0000
    15 C8       3.4324   1.4696  10.0094   C.2       1 RES1   0.0000
    16 H4       3.4109   0.6107   9.6047   H         1 RES1   0.0000
    17 C9       2.7159   4.9516  10.2874   C.2       1 RES1   0.0000
    18 C10      4.4655   0.8482  12.2190   C.2       1 RES1   0.0000
    19 C11      1.9845   5.2980   9.0229   C.ar      1 RES1   0.0000
    20 C12      0.6211   5.5505   9.0390   C.ar      1 RES1   0.0000
    21 H5       0.1454   5.5225   9.8605   H         1 RES1   0.0000
    22 C13     -0.0555   5.8451   7.8611   C.ar      1 RES1   0.0000
    23 H6      -0.9889   6.0229   7.8968   H         1 RES1   0.0000
    24 C14      0.5868   5.8830   6.6381   C.ar      1 RES1   0.0000
    25 C15     -0.1713   6.1908   5.3542   C.3       1 RES1   0.0000
    26 H7       0.4523   6.5299   4.6785   H         1 RES1   0.0000
    27 H8      -0.8580   6.8673   5.5344   H         1 RES1   0.0000
    28 H9      -0.5971   5.3727   5.0230   H         1 RES1   0.0000
    29 C16      1.9457   5.6509   6.6302   C.ar      1 RES1   0.0000
    30 H10      2.4164   5.6855   5.8060   H         1 RES1   0.0000
    31 C17      2.6473   5.3683   7.7961   C.ar      1 RES1   0.0000
    32 H11      3.5860   5.2213   7.7577   H         1 RES1   0.0000
    33 C18      4.3278  -0.5988  11.8926   C.ar      1 RES1   0.0000
    34 C19      4.8028  -1.1601  10.7098   C.ar      1 RES1   0.0000
    35 H12      5.3237  -0.6304  10.1175   H         1 RES1   0.0000
    36 C20      4.5276  -2.4786  10.3825   C.ar      1 RES1   0.0000
    37 H13      4.8431  -2.8279   9.5557   H         1 RES1   0.0000
    38 C21      3.8028  -3.2984  11.2358   C.ar      1 RES1   0.0000
    39 C22      3.4909  -4.7219  10.8449   C.3       1 RES1   0.0000
    40 H14      2.6995  -4.7357  10.2685   H         1 RES1   0.0000
    41 H15      3.3174  -5.2525  11.6505   H         1 RES1   0.0000
    42 H16      4.2550  -5.1011  10.3600   H         1 RES1   0.0000
    43 C23      3.3819  -2.7580  12.4442   C.ar      1 RES1   0.0000
    44 H17      2.9196  -3.3102  13.0629   H         1 RES1   0.0000
    45 C24      3.6211  -1.4349  12.7641   C.ar      1 RES1   0.0000
    46 H18      3.3017  -1.0880  13.5889   H         1 RES1   0.0000
    47 C25      2.3977   3.6944  13.7681   C.1       1 RES1   0.0000
    48 N1F      4.9891   2.4286  14.0447   N.2       1 RES1   0.0000
    49 N2F      4.6875   5.0881  14.9621   N.2       1 RES1   0.0000
    50 C1F      4.9992   1.1896  13.4587   C.2       1 RES1   0.0000
    51 C2F      5.6574   2.2860  15.2465   C.2       1 RES1   0.0000
    52 C3F      5.3372   4.5750  16.0625   C.2       1 RES1   0.0000
    53 C4F      4.5683   6.4354  15.1902   C.2       1 RES1   0.0000
    54 C5F      5.7000   0.2566  14.3071   C.2       1 RES1   0.0000
    55 H1F      5.8474  -0.6650  14.1295   H         1 RES1   0.0000
    56 C6F      6.1064   0.9378  15.3974   C.2       1 RES1   0.0000
    57 H2F      6.5985   0.5860  16.1302   H         1 RES1   0.0000
    58 C7F      5.5606   5.6125  17.0188   C.2       1 RES1   0.0000
    59 H3F      5.9614   5.5093  17.8739   H         1 RES1   0.0000
    60 C8F      5.1011   6.7607  16.4901   C.2       1 RES1   0.0000
    61 H4F      5.1226   7.6196  16.8947   H         1 RES1   0.0000
    62 C9F      5.8176   3.2786  16.2121   C.2       1 RES1   0.0000
    63 C10F     4.0680   7.3820  14.2804   C.2       1 RES1   0.0000
    64 C11F     6.5490   2.9323  17.4765   C.ar      1 RES1   0.0000
    65 C12F     7.9124   2.6798  17.4605   C.ar      1 RES1   0.0000
    66 H5F      8.3880   2.7078  16.6390   H         1 RES1   0.0000
    67 C13F     8.5890   2.3851  18.6384   C.ar      1 RES1   0.0000
    68 H6F      9.5224   2.2074  18.6026   H         1 RES1   0.0000
    69 C14F     7.9466   2.3473  19.8614   C.ar      1 RES1   0.0000
    70 C15F     8.7048   2.0395  21.1453   C.3       1 RES1   0.0000
    71 H7F      8.0812   1.7004  21.8210   H         1 RES1   0.0000
    72 H8F      9.3914   1.3629  20.9651   H         1 RES1   0.0000
    73 H9F      9.1306   2.8575  21.4765   H         1 RES1   0.0000
    74 C16F     6.5877   2.5794  19.8693   C.ar      1 RES1   0.0000
    75 H10F     6.1171   2.5448  20.6934   H         1 RES1   0.0000
    76 C17F     5.8862   2.8620  18.7033   C.ar      1 RES1   0.0000
    77 H11F     4.9475   3.0090  18.7418   H         1 RES1   0.0000
    78 C18F     4.2056   8.8291  14.6069   C.ar      1 RES1   0.0000
    79 C19F     3.7307   9.3904  15.7897   C.ar      1 RES1   0.0000
    80 H12F     3.2098   8.8607  16.3820   H         1 RES1   0.0000
    81 C20F     4.0058  10.7089  16.1170   C.ar      1 RES1   0.0000
    82 H13F     3.6903  11.0582  16.9438   H         1 RES1   0.0000
    83 C21F     4.7307  11.5286  15.2637   C.ar      1 RES1   0.0000
    84 C22F     5.0426  12.9521  15.6546   C.3       1 RES1   0.0000
    85 H14F     5.8340  12.9659  16.2309   H         1 RES1   0.0000
    86 H15F     5.2161  13.4828  14.8490   H         1 RES1   0.0000
    87 H16F     4.2785  13.3314  16.1395   H         1 RES1   0.0000
    88 C23F     5.1516  10.9882  14.0553   C.ar      1 RES1   0.0000
    89 H17F     5.6139  11.5405  13.4366   H         1 RES1   0.0000
    90 C24F     4.9123   9.6651  13.7353   C.ar      1 RES1   0.0000
    91 H18F     5.2317   9.3183  12.9105   H         1 RES1   0.0000
    92 N3F      7.2402   4.7391  12.5218   N.1       1 RES1   0.0000
    93 C25F     6.1358   4.5359  12.7314   C.1       1 RES1   0.0000
    94 K1      -0.9256   0.6145   3.3124   K         2 RES2   1.0000
    95 N4       1.6007   0.5941   4.8580   N.3       2 RES2   0.0000
    96 O1      -0.6902   2.2176   5.6504   O.3       2 RES2   0.0000
    97 O2       1.3561   1.7702   2.1397   O.3       2 RES2   0.0000
    98 O3       0.1278  -1.8724   4.2496   O.3       2 RES2   0.0000
    99 C26      1.6108   1.6642   5.8723   C.3       2 RES2   0.0000
   100 H19      1.8414   2.5201   5.4337   H         2 RES2   0.0000
   101 H20      2.3168   1.4666   6.5387   H         2 RES2   0.0000
   102 C27      0.2950   1.8222   6.5864   C.3       2 RES2   0.0000
   103 H21      0.0341   0.9646   7.0078   H         2 RES2   0.0000
   104 H22      0.3770   2.5053   7.2980   H         2 RES2   0.0000
   105 C28     -1.9086   2.5711   6.2883   C.3       2 RES2   0.0000
   106 H23     -1.7584   3.3464   6.8859   H         2 RES2   0.0000
   107 H24     -2.2243   1.8139   6.8422   H         2 RES2   0.0000
   108 C29      2.6719   0.8164   3.8729   C.3       2 RES2   0.0000
   109 H25      2.7533   0.0049   3.3111   H         2 RES2   0.0000
   110 H26      3.5251   0.9300   4.3592   H         2 RES2   0.0000
   111 C30      2.4798   1.9934   2.9759   C.3       2 RES2   0.0000
   112 H27      2.3385   2.8098   3.5178   H         2 RES2   0.0000
   113 H28      3.2890   2.1283   2.4207   H         2 RES2   0.0000
   114 C31      1.0876   2.9135   1.3462   C.3       2 RES2   0.0000
   115 H29      1.9181   3.2114   0.8930   H         2 RES2   0.0000
   116 H30      0.7645   3.6526   1.9186   H         2 RES2   0.0000
   117 C32      1.4941  -1.8979   4.6520   C.3       2 RES2   0.0000
   118 H31      2.0787  -1.8847   3.8543   H         2 RES2   0.0000
   119 H32      1.6794  -2.7292   5.1581   H         2 RES2   0.0000
   120 C33     -0.2033  -3.0205   3.4847   C.3       2 RES2   0.0000
   121 H33      0.0135  -3.8353   4.0014   H         2 RES2   0.0000
   122 H34      0.3358  -3.0304   2.6539   H         2 RES2   0.0000
   123 C34      1.7822  -0.7045   5.5145   C.3       2 RES2   0.0000
   124 H35      1.1922  -0.7407   6.3082   H         2 RES2   0.0000
   125 H36      2.7174  -0.7671   5.8352   H         2 RES2   0.0000
   126 N4A     -3.4519   0.5941   1.7669   N.3       2 RES2   0.0000
   127 O1A     -1.1610   2.2176   0.9745   O.3       2 RES2   0.0000
   128 O2A     -3.2073   1.7702   4.4852   O.3       2 RES2   0.0000
   129 C26A    -3.4620   1.6642   0.7526   C.3       2 RES2   0.0000
   130 H19A    -3.6926   2.5201   1.1912   H         2 RES2   0.0000
   131 H20A    -4.1680   1.4666   0.0861   H         2 RES2   0.0000
   132 C27A    -2.1461   1.8222   0.0384   C.3       2 RES2   0.0000
   133 H21A    -1.8853   0.9646  -0.3829   H         2 RES2   0.0000
   134 H22A    -2.2282   2.5053  -0.6731   H         2 RES2   0.0000
   135 C28A     0.0574   2.5711   0.3365   C.3       2 RES2   0.0000
   136 H23A    -0.0928   3.3464  -0.2610   H         2 RES2   0.0000
   137 H24A     0.3731   1.8139  -0.2173   H         2 RES2   0.0000
   138 C29A    -4.5231   0.8164   2.7520   C.3       2 RES2   0.0000
   139 H25A    -4.6045   0.0049   3.3138   H         2 RES2   0.0000
   140 H26A    -5.3763   0.9300   2.2657   H         2 RES2   0.0000
   141 C30A    -4.3310   1.9934   3.6490   C.3       2 RES2   0.0000
   142 H27A    -4.1897   2.8098   3.1071   H         2 RES2   0.0000
   143 H28A    -5.1402   2.1283   4.2041   H         2 RES2   0.0000
   144 C31A    -2.9388   2.9135   5.2787   C.3       2 RES2   0.0000
   145 H29A    -3.7693   3.2114   5.7318   H         2 RES2   0.0000
   146 H30A    -2.6156   3.6526   4.7063   H         2 RES2   0.0000
   147 C34A    -3.6334  -0.7045   1.1103   C.3       2 RES2   0.0000
   148 H35A    -3.0434  -0.7407   0.3167   H         2 RES2   0.0000
   149 H36A    -4.5686  -0.7671   0.7897   H         2 RES2   0.0000
   150 O3A     -1.9790  -1.8724   2.3753   O.3       2 RES2   0.0000
   151 C32A    -3.3453  -1.8979   1.9729   C.3       2 RES2   0.0000
   152 H31A    -3.9299  -1.8847   2.7705   H         2 RES2   0.0000
   153 H32A    -3.5306  -2.7292   1.4667   H         2 RES2   0.0000
   154 C33A    -1.6479  -3.0205   3.1402   C.3       2 RES2   0.0000
   155 H33A    -1.8647  -3.8353   2.6234   H         2 RES2   0.0000
   156 H34A    -2.1870  -3.0304   3.9709   H         2 RES2   0.0000
   157 C35      1.5868   9.9685   7.2463   C.3       3 RES3   0.0000
   158 H37      2.1977  10.7454   7.3072   H         3 RES3   0.0000
   159 H38      2.1338   9.1553   7.1138   H         3 RES3   0.0000
   160 Cl1      0.6516   9.8251   8.7428   Cl        3 RES3   0.0000
   161 Cl2      0.4951  10.1775   5.8965   Cl        3 RES3   0.0000
@<TRIPOS>BOND
     1     1     2    1
     2     2     5    1
     3     3     1    1
     4     4    47    3
     5     5     9    2
     6     6     2    1
     7     7     3    1
     8     8     3    2
     9     9    10    1
    10    11     6    2
    11    12    11    1
    12    13     7    1
    13    14    13    1
    14    15     8    1
    15    16    15    1
    16    17     6    1
    17    18     8    1
    18    19    17    1
    19    20    19   ar
    20    21    20    1
    21    22    20   ar
    22    23    22    1
    23    24    22   ar
    24    25    24    1
    25    26    25    1
    26    27    25    1
    27    28    25    1
    28    29    24   ar
    29    30    29    1
    30    31    19   ar
    31    32    31    1
    32    33    18    1
    33    34    33   ar
    34    35    34    1
    35    36    34   ar
    36    37    36    1
    37    38    36   ar
    38    39    38    1
    39    40    39    1
    40    41    39    1
    41    42    39    1
    42    43    38   ar
    43    44    43    1
    44    45    33   ar
    45    46    45    1
    46    47     1    1
    47    48     1    1
    48    49     1    1
    49    50    18    2
    50    51    48    1
    51    52    49    2
    52    53    49    1
    53    54    50    1
    54    55    54    1
    55    56    51    1
    56    57    56    1
    57    58    52    1
    58    59    58    1
    59    60    53    1
    60    61    60    1
    61    62    51    2
    62    63     5    1
    63    64    62    1
    64    65    64   ar
    65    66    65    1
    66    67    65   ar
    67    68    67    1
    68    69    67   ar
    69    70    69    1
    70    71    70    1
    71    72    70    1
    72    73    70    1
    73    74    69   ar
    74    75    74    1
    75    76    64   ar
    76    77    76    1
    77    78    63    1
    78    79    78   ar
    79    80    79    1
    80    81    79   ar
    81    82    81    1
    82    83    81   ar
    83    84    83    1
    84    85    84    1
    85    86    84    1
    86    87    84    1
    87    88    83   ar
    88    89    88    1
    89    90    78   ar
    90    91    90    1
    91    92    93    3
    92    93     1    1
    93     7    17    2
    94     9    11    1
    95    13    15    2
    96    29    31   ar
    97    43    45   ar
    98    48    50    1
    99    52    62    1
   100    53    63    2
   101    54    56    2
   102    58    60    2
   103    74    76   ar
   104    88    90   ar
   105    94    95    1
   106    95    99    1
   107    96    94    1
   108    97    94    1
   109    98    94    1
   110    99   100    1
   111   101    99    1
   112   102    96    1
   113   103   102    1
   114   104   102    1
   115   105    96    1
   116   106   105    1
   117   107   105    1
   118   108    95    1
   119   109   108    1
   120   110   108    1
   121   111    97    1
   122   112   111    1
   123   113   111    1
   124   114    97    1
   125   115   114    1
   126   116   114    1
   127   117    98    1
   128   118   117    1
   129   119   117    1
   130   120    98    1
   131   121   120    1
   132   122   120    1
   133   123    95    1
   134   124   123    1
   135   125   123    1
   136   126    94    1
   137   127    94    1
   138   128    94    1
   139   129   126    1
   140   130   129    1
   141   131   129    1
   142   132   127    1
   143   133   132    1
   144   134   132    1
   145   135   114    1
   146   136   135    1
   147   137   135    1
   148   138   126    1
   149   139   138    1
   150   140   138    1
   151   141   128    1
   152   142   141    1
   153   143   141    1
   154   144   105    1
   155   145   144    1
   156   146   144    1
   157   147   126    1
   158   148   147    1
   159   149   147    1
   160   150    94    1
   161   151   147    1
   162   152   151    1
   163   153   151    1
   164   154   120    1
   165   155   154    1
   166   156   154    1
   167    99   102    1
   168   108   111    1
   169   117   123    1
   170   127   135    1
   171   128   144    1
   172   129   132    1
   173   138   141    1
   174   150   151    1
   175   150   154    1
   176   157   158    1
   177   159   157    1
   178   160   157    1
   179   161   157    1
@<TRIPOS>SUBSTRUCTURE
     1 RES1        1 GROUP             0 ****  ****    0  
     2 RES2       94 GROUP             0 ****  ****    0  
     3 RES3      157 GROUP             0 ****  ****    0  
@<TRIPOS>CRYSIN
   31.8765   16.4605   13.7573   90.0000  105.6120   90.0000    15     1
