@<TRIPOS>MOLECULE
RESWES
   107   116     1     0     0
SMALL
NO_CHARGES
****
Generated from the CSD

@<TRIPOS>ATOM
     1 Fe1     -1.5501   5.2534   4.1426   Fe        1 RES1   0.0000
     2 B1       1.6330   5.1908   3.9975   B         1 RES1   0.0000
     3 H1       2.7569   5.1090   3.9554   H         1 RES1   0.0000
     4 C1       1.9058   7.1628   5.7211   C.ar      1 RES1   0.0000
     5 C2       1.0537   8.1014   6.2703   C.ar      1 RES1   0.0000
     6 C3      -0.2100   7.7743   5.7698   C.ar      1 RES1   0.0000
     7 C4       3.3864   7.0143   5.9122   C.3       1 RES1   0.0000
     8 H2       3.5781   6.1370   6.3067   H         1 RES1   0.0000
     9 H3       3.7109   7.7198   6.5105   H         1 RES1   0.0000
    10 H4       3.8370   7.0888   5.0457   H         1 RES1   0.0000
    11 C5       1.4004   9.2387   7.1912   C.3       1 RES1   0.0000
    12 H5       2.1131   8.9580   7.8030   H         1 RES1   0.0000
    13 H6       0.6085   9.4929   7.7086   H         1 RES1   0.0000
    14 H7       1.7061  10.0059   6.6630   H         1 RES1   0.0000
    15 C6      -1.5223   8.4450   6.0471   C.3       1 RES1   0.0000
    16 H8      -2.2312   7.9971   5.5395   H         1 RES1   0.0000
    17 H9      -1.4726   9.3859   5.7781   H         1 RES1   0.0000
    18 H10     -1.7211   8.3906   7.0043   H         1 RES1   0.0000
    19 C7       1.6983   5.7251   1.4203   C.ar      1 RES1   0.0000
    20 C8       0.7468   5.7595   0.4211   C.ar      1 RES1   0.0000
    21 C9      -0.4658   5.4628   1.0494   C.ar      1 RES1   0.0000
    22 C10      3.1724   5.9506   1.3281   C.3       1 RES1   0.0000
    23 H11      3.4131   6.7480   1.8443   H         1 RES1   0.0000
    24 H12      3.4251   6.0790   0.3894   H         1 RES1   0.0000
    25 H13      3.6448   5.1725   1.6902   H         1 RES1   0.0000
    26 C11      0.9139   6.0752  -1.0252   C.3       1 RES1   0.0000
    27 H14      1.8499   6.3038  -1.2030   H         1 RES1   0.0000
    28 H15      0.3413   6.8350  -1.2627   H         1 RES1   0.0000
    29 H16      0.6594   5.2958  -1.5609   H         1 RES1   0.0000
    30 C12     -1.8052   5.3362   0.4116   C.3       1 RES1   0.0000
    31 H17     -2.4629   5.0637   1.0854   H         1 RES1   0.0000
    32 H18     -1.7673   4.6630  -0.2983   H         1 RES1   0.0000
    33 H19     -2.0680   6.2005   0.0298   H         1 RES1   0.0000
    34 C13      1.6987   2.6410   4.6215   C.ar      1 RES1   0.0000
    35 C14      0.8187   1.7535   5.2174   C.ar      1 RES1   0.0000
    36 C15     -0.3495   2.4951   5.4328   C.ar      1 RES1   0.0000
    37 C16      3.0637   2.3961   4.0651   C.3       1 RES1   0.0000
    38 H20      3.0659   2.5962   3.1053   H         1 RES1   0.0000
    39 H21      3.3092   1.4577   4.2039   H         1 RES1   0.0000
    40 H22      3.7115   2.9733   4.5204   H         1 RES1   0.0000
    41 C17      1.0534   0.3140   5.5566   C.3       1 RES1   0.0000
    42 H23      1.7701  -0.0417   4.9894   H         1 RES1   0.0000
    43 H24      0.2309  -0.1958   5.4036   H         1 RES1   0.0000
    44 H25      1.3130   0.2393   6.4989   H         1 RES1   0.0000
    45 C18     -1.6315   2.0396   6.0547   C.3       1 RES1   0.0000
    46 H26     -1.5001   1.9127   7.0176   H         1 RES1   0.0000
    47 H27     -1.9092   1.1930   5.6472   H         1 RES1   0.0000
    48 H28     -2.3254   2.7159   5.9057   H         1 RES1   0.0000
    49 N1      -0.1408   6.7106   4.9628   N.ar      1 RES1   0.0000
    50 N2       1.1821   6.3363   4.9302   N.ar      1 RES1   0.0000
    51 N3      -0.2752   5.2720   2.3611   N.ar      1 RES1   0.0000
    52 N4       1.0708   5.4298   2.5842   N.ar      1 RES1   0.0000
    53 N5      -0.1968   3.7529   4.9965   N.ar      1 RES1   0.0000
    54 N6       1.0861   3.8416   4.5232   N.ar      1 RES1   0.0000
    55 B1B     -4.7332   5.1908   4.2878   B         1 RES1   0.0000
    56 H1B     -5.8571   5.1090   4.3299   H         1 RES1   0.0000
    57 C1B     -5.0060   7.1628   2.5641   C.ar      1 RES1   0.0000
    58 C2B     -4.1539   8.1014   2.0150   C.ar      1 RES1   0.0000
    59 C3B     -2.8902   7.7743   2.5154   C.ar      1 RES1   0.0000
    60 C4B     -6.4866   7.0143   2.3731   C.3       1 RES1   0.0000
    61 H2B     -6.6783   6.1370   1.9785   H         1 RES1   0.0000
    62 H3B     -6.8111   7.7198   1.7747   H         1 RES1   0.0000
    63 H4B     -6.9372   7.0888   3.2395   H         1 RES1   0.0000
    64 C5B     -4.5006   9.2387   1.0940   C.3       1 RES1   0.0000
    65 H5B     -5.2133   8.9580   0.4822   H         1 RES1   0.0000
    66 H6B     -3.7087   9.4929   0.5767   H         1 RES1   0.0000
    67 H7B     -4.8063  10.0059   1.6222   H         1 RES1   0.0000
    68 C6B     -1.5779   8.4450   2.2382   C.3       1 RES1   0.0000
    69 H8B     -0.8690   7.9971   2.7457   H         1 RES1   0.0000
    70 H9B     -1.6276   9.3859   2.5071   H         1 RES1   0.0000
    71 H10B    -1.3791   8.3906   1.2809   H         1 RES1   0.0000
    72 C7B     -4.7985   5.7251   6.8650   C.ar      1 RES1   0.0000
    73 C8B     -3.8470   5.7595   7.8642   C.ar      1 RES1   0.0000
    74 C9B     -2.6344   5.4628   7.2358   C.ar      1 RES1   0.0000
    75 C10B    -6.2726   5.9506   6.9571   C.3       1 RES1   0.0000
    76 H11B    -6.5133   6.7480   6.4409   H         1 RES1   0.0000
    77 H12B    -6.5253   6.0790   7.8958   H         1 RES1   0.0000
    78 H13B    -6.7449   5.1725   6.5950   H         1 RES1   0.0000
    79 C11B    -4.0141   6.0752   9.3104   C.3       1 RES1   0.0000
    80 H14B    -4.9501   6.3038   9.4882   H         1 RES1   0.0000
    81 H15B    -3.4415   6.8350   9.5479   H         1 RES1   0.0000
    82 H16B    -3.7596   5.2958   9.8462   H         1 RES1   0.0000
    83 C12B    -1.2950   5.3362   7.8736   C.3       1 RES1   0.0000
    84 H17B    -0.6373   5.0637   7.1999   H         1 RES1   0.0000
    85 H18B    -1.3329   4.6630   8.5835   H         1 RES1   0.0000
    86 H19B    -1.0322   6.2005   8.2554   H         1 RES1   0.0000
    87 C13B    -4.7989   2.6410   3.6637   C.ar      1 RES1   0.0000
    88 C14B    -3.9189   1.7535   3.0679   C.ar      1 RES1   0.0000
    89 C15B    -2.7507   2.4951   2.8524   C.ar      1 RES1   0.0000
    90 C16B    -6.1639   2.3961   4.2202   C.3       1 RES1   0.0000
    91 H20B    -6.1661   2.5962   5.1799   H         1 RES1   0.0000
    92 H21B    -6.4094   1.4577   4.0813   H         1 RES1   0.0000
    93 H22B    -6.8117   2.9733   3.7648   H         1 RES1   0.0000
    94 C17B    -4.1536   0.3140   2.7287   C.3       1 RES1   0.0000
    95 H23B    -4.8703  -0.0417   3.2959   H         1 RES1   0.0000
    96 H24B    -3.3311  -0.1958   2.8816   H         1 RES1   0.0000
    97 H25B    -4.4132   0.2393   1.7863   H         1 RES1   0.0000
    98 C18B    -1.4687   2.0396   2.2305   C.3       1 RES1   0.0000
    99 H26B    -1.6001   1.9127   1.2676   H         1 RES1   0.0000
   100 H27B    -1.1910   1.1930   2.6380   H         1 RES1   0.0000
   101 H28B    -0.7748   2.7159   2.3795   H         1 RES1   0.0000
   102 N1B     -2.9594   6.7106   3.3224   N.ar      1 RES1   0.0000
   103 N2B     -4.2823   6.3363   3.3550   N.ar      1 RES1   0.0000
   104 N3B     -2.8250   5.2720   5.9241   N.ar      1 RES1   0.0000
   105 N4B     -4.1709   5.4298   5.7011   N.ar      1 RES1   0.0000
   106 N5B     -2.9034   3.7529   3.2887   N.ar      1 RES1   0.0000
   107 N6B     -4.1863   3.8416   3.7620   N.ar      1 RES1   0.0000
@<TRIPOS>BOND
     1     1    49    1
     2     2     3    1
     3     4     5   ar
     4     5     6   ar
     5     6    15    1
     6     7     4    1
     7     8     7    1
     8     9     7    1
     9    10     7    1
    10    11     5    1
    11    12    11    1
    12    13    11    1
    13    14    11    1
    14    15    16    1
    15    17    15    1
    16    18    15    1
    17    19    20   ar
    18    20    21   ar
    19    21    30    1
    20    22    19    1
    21    23    22    1
    22    24    22    1
    23    25    22    1
    24    26    20    1
    25    27    26    1
    26    28    26    1
    27    29    26    1
    28    30    31    1
    29    32    30    1
    30    33    30    1
    31    34    35   ar
    32    35    36   ar
    33    36    45    1
    34    37    34    1
    35    38    37    1
    36    39    37    1
    37    40    37    1
    38    41    35    1
    39    42    41    1
    40    43    41    1
    41    44    41    1
    42    45    46    1
    43    47    45    1
    44    48    45    1
    45    49     6   ar
    46    50     2    1
    47    51     1    1
    48    52     2    1
    49    53     1    1
    50    54     2    1
    51    55    56    1
    52    57    58   ar
    53    58    59   ar
    54    59    68    1
    55    60    57    1
    56    61    60    1
    57    62    60    1
    58    63    60    1
    59    64    58    1
    60    65    64    1
    61    66    64    1
    62    67    64    1
    63    68    69    1
    64    70    68    1
    65    71    68    1
    66    72    73   ar
    67    73    74   ar
    68    74    83    1
    69    75    72    1
    70    76    75    1
    71    77    75    1
    72    78    75    1
    73    79    73    1
    74    80    79    1
    75    81    79    1
    76    82    79    1
    77    83    84    1
    78    85    83    1
    79    86    83    1
    80    87    88   ar
    81    88    89   ar
    82    89    98    1
    83    90    87    1
    84    91    90    1
    85    92    90    1
    86    93    90    1
    87    94    88    1
    88    95    94    1
    89    96    94    1
    90    97    94    1
    91    98    99    1
    92   100    98    1
    93   101    98    1
    94   102     1    1
    95   103    55    1
    96   104     1    1
    97   105    55    1
    98   106     1    1
    99   107    55    1
   100     4    50   ar
   101    19    52   ar
   102    21    51   ar
   103    34    54   ar
   104    36    53   ar
   105    49    50   ar
   106    51    52   ar
   107    53    54   ar
   108    57   103   ar
   109    59   102   ar
   110    72   105   ar
   111    74   104   ar
   112    87   107   ar
   113    89   106   ar
   114   102   103   ar
   115   104   105   ar
   116   106   107   ar
@<TRIPOS>SUBSTRUCTURE
     1 RES1        1 GROUP             0 ****  ****    0  
@<TRIPOS>CRYSIN
   12.9848   18.1300   17.6925   90.0000  110.5150   90.0000    15     1
