@<TRIPOS>MOLECULE
REVCUS04
   117   122     7     0     0
SMALL
USER_CHARGES
****
Generated from the CSD

@<TRIPOS>ATOM
     1 C1      -1.7267   9.8403  10.1811   C.3       1 RES1   0.0000
     2 H1      -0.7934   9.5842  10.3332   H         1 RES1   0.0000
     3 H2      -2.1800   9.1354   9.6724   H         1 RES1   0.0000
     4 H3      -2.1767   9.9635  11.0412   H         1 RES1   0.0000
     5 O1      -1.2642  11.9081   9.9696   O.2       1 RES1   0.0000
     6 O2      -2.2510  11.0566   8.3823   O.2       1 RES1   0.0000
     7 N1      -1.7685  11.0557   9.4451   N.pl3     1 RES1   0.0000
     8 C2      -1.5633   3.8941  14.1757   C.2       2 RES2   0.0000
     9 H4      -1.7654   4.5821  13.5515   H         2 RES2   0.0000
    10 C3      -0.5214   3.9535  15.1265   C.2       2 RES2   0.0000
    11 H5       0.0899   4.6682  15.2629   H         2 RES2   0.0000
    12 C4      -0.5762   2.7755  15.8107   C.2       2 RES2   0.0000
    13 H6      -0.0030   2.5075  16.5198   H         2 RES2   0.0000
    14 C5      -2.0608   0.7536  15.5506   C.ar      2 RES2   0.0000
    15 C6      -1.5539  -0.1269  16.4644   C.ar      2 RES2   0.0000
    16 H7      -0.8278   0.1151  17.0267   H         2 RES2   0.0000
    17 C7      -2.1362  -1.3969  16.5455   C.ar      2 RES2   0.0000
    18 C8      -3.2312  -1.7048  15.7300   C.ar      2 RES2   0.0000
    19 H8      -3.6648  -2.5476  15.7873   H         2 RES2   0.0000
    20 C9      -3.6569  -0.7427  14.8430   C.ar      2 RES2   0.0000
    21 C10     -5.4888  -1.9238  13.5672   C.2       2 RES2   0.0000
    22 H9      -5.5082  -2.7770  13.9833   H         2 RES2   0.0000
    23 C11     -6.2469  -1.5128  12.5096   C.2       2 RES2   0.0000
    24 H10     -6.8992  -2.0231  12.0446   H         2 RES2   0.0000
    25 C12     -5.8728  -0.1927  12.2475   C.2       2 RES2   0.0000
    26 H11     -6.2422   0.3420  11.5551   H         2 RES2   0.0000
    27 C13     -1.6277  -2.4331  17.4554   C.2       2 RES2   0.0000
    28 H12     -2.0994  -3.2563  17.4952   H         2 RES2   0.0000
    29 C14     -0.5550  -2.2974  18.2258   C.2       2 RES2   0.0000
    30 H13     -0.1013  -1.4657  18.1630   H         2 RES2   0.0000
    31 C15      0.0171  -3.2673  19.1598   C.ar      2 RES2   0.0000
    32 C16      1.0479  -2.8559  19.9856   C.ar      2 RES2   0.0000
    33 H14      1.3638  -1.9617  19.9269   H         2 RES2   0.0000
    34 C17      1.6316  -3.7302  20.9023   C.ar      2 RES2   0.0000
    35 H15      2.3291  -3.4260  21.4705   H         2 RES2   0.0000
    36 C18      1.1979  -5.0314  20.9810   C.ar      2 RES2   0.0000
    37 H16      1.6060  -5.6334  21.5911   H         2 RES2   0.0000
    38 C19      0.1591  -5.4638  20.1646   C.ar      2 RES2   0.0000
    39 H17     -0.1489  -6.3607  20.2241   H         2 RES2   0.0000
    40 C20     -0.4242  -4.5924  19.2687   C.ar      2 RES2   0.0000
    41 H18     -1.1358  -4.8963  18.7172   H         2 RES2   0.0000
    42 C21     -1.7313   0.4316  11.3918   C.2       2 RES2   0.0000
    43 H19     -1.3030  -0.2336  11.9187   H         2 RES2   0.0000
    44 C22     -1.4809   0.6416  10.0238   C.2       2 RES2   0.0000
    45 H20     -0.8711   0.1656   9.4731   H         2 RES2   0.0000
    46 C23     -2.2929   1.6697   9.6530   C.2       2 RES2   0.0000
    47 H21     -2.3624   2.0491   8.7843   H         2 RES2   0.0000
    48 C24     -4.0339   2.9610  10.9380   C.ar      2 RES2   0.0000
    49 C25     -4.5924   3.7613   9.9683   C.ar      2 RES2   0.0000
    50 H22     -4.2479   3.7637   9.0833   H         2 RES2   0.0000
    51 C26     -5.6798   4.5710  10.3187   C.ar      2 RES2   0.0000
    52 C27     -6.1404   4.5472  11.6504   C.ar      2 RES2   0.0000
    53 H23     -6.8769   5.0828  11.9240   H         2 RES2   0.0000
    54 C28     -5.4929   3.7291  12.5407   C.ar      2 RES2   0.0000
    55 C29     -6.7104   4.1680  14.7072   C.2       2 RES2   0.0000
    56 H24     -7.3399   4.8333  14.4535   H         2 RES2   0.0000
    57 C30     -6.5418   3.6440  15.9550   C.2       2 RES2   0.0000
    58 H25     -7.0287   3.8724  16.7383   H         2 RES2   0.0000
    59 C31     -5.5067   2.7027  15.8529   C.2       2 RES2   0.0000
    60 H26     -5.1736   2.1858  16.5775   H         2 RES2   0.0000
    61 C32     -6.3039   5.3708   9.2682   C.2       2 RES2   0.0000
    62 H27     -5.9113   5.3294   8.4050   H         2 RES2   0.0000
    63 C33     -7.3640   6.1453   9.4086   C.2       2 RES2   0.0000
    64 H28     -7.7484   6.2046  10.2755   H         2 RES2   0.0000
    65 C34     -7.9984   6.9220   8.3351   C.ar      2 RES2   0.0000
    66 C35     -7.7181   6.7193   6.9803   C.ar      2 RES2   0.0000
    67 H29     -7.0946   6.0487   6.7250   H         2 RES2   0.0000
    68 C36     -8.3355   7.4824   6.0048   C.ar      2 RES2   0.0000
    69 H30     -8.1397   7.3263   5.0888   H         2 RES2   0.0000
    70 C37     -9.2361   8.4700   6.3597   C.ar      2 RES2   0.0000
    71 H31     -9.6552   8.9999   5.6919   H         2 RES2   0.0000
    72 C38     -9.5220   8.6812   7.7005   C.ar      2 RES2   0.0000
    73 H32    -10.1365   9.3615   7.9522   H         2 RES2   0.0000
    74 C39     -8.9187   7.9047   8.6777   C.ar      2 RES2   0.0000
    75 H33     -9.1355   8.0469   9.5902   H         2 RES2   0.0000
    76 N2      -2.2223   2.7484  14.2706   N.2       2 RES2   0.0000
    77 N3      -1.6005   2.0593  15.2909   N.pl3     2 RES2   0.0000
    78 N4      -3.0877   0.4649  14.7349   N.ar      2 RES2   0.0000
    79 N5      -4.7008  -0.8724  13.9095   N.pl3     2 RES2   0.0000
    80 N6      -4.9357   0.2143  13.0886   N.2       2 RES2   0.0000
    81 N7      -2.6394   1.2769  11.8539   N.2       2 RES2   0.0000
    82 N8      -2.9864   2.0521  10.7602   N.pl3     2 RES2   0.0000
    83 N9      -4.4618   2.9422  12.2063   N.ar      2 RES2   0.0000
    84 N10     -5.8061   3.5587  13.8941   N.pl3     2 RES2   0.0000
    85 N11     -5.0555   2.6339  14.6017   N.2       2 RES2   0.0000
    86 Fe1     -3.7213   1.7247  13.4632   Fe        2 RES2   2.0000
    87 C40     -4.0416   6.9841  15.4290   C.3       3 RES3   0.0000
    88 H34     -4.3916   7.8768  15.6352   H         3 RES3   0.0000
    89 H35     -4.7337   6.3130  15.6108   H         3 RES3   0.0000
    90 H36     -3.7880   6.9448  14.4850   H         3 RES3   0.0000
    91 N12     -2.8741   6.7162  16.2607   N.pl3     3 RES3   0.0000
    92 O3      -2.0050   7.5553  16.3710   O.2       3 RES3   0.0000
    93 O4      -2.7917   5.6371  16.8187   O.2       3 RES3   0.0000
    94 C41     -0.2580   7.5842  13.8889   C.3       4 RES4   0.0000
    95 H37     -0.9495   6.8937  13.8049   H         4 RES4   0.0000
    96 H38     -0.6654   8.4682  13.7805   H         4 RES4   0.0000
    97 H39      0.1602   7.5215  14.7734   H         4 RES4   0.0000
    98 N13      0.7646   7.3827  12.8459   N.pl3     4 RES4   0.0000
    99 O5       1.0403   8.3403  12.1427   O.2       4 RES4   0.0000
   100 O6       1.2755   6.2781  12.7569   O.2       4 RES4   0.0000
   101 C42     -6.3322   8.6935  11.8208   C.3       5 RES5   0.0000
   102 H40     -6.4969   8.3863  12.7368   H         5 RES5   0.0000
   103 H41     -5.8528   7.9986  11.3244   H         5 RES5   0.0000
   104 H42     -7.1870   8.8797  11.3785   H         5 RES5   0.0000
   105 N14     -5.5235   9.9175  11.8535   N.pl3     5 RES5   0.0000
   106 O7      -5.0078  10.3061  10.8242   O.2       5 RES5   0.0000
   107 O8      -5.4063  10.5088  12.9151   O.2       5 RES5   0.0000
   108 B1      -2.9714   7.0220  11.6268   B         6 RES6  -1.0000
   109 F1      -3.1219   8.1457  12.4269   F         6 RES6   0.0000
   110 F2      -1.6673   6.9348  11.1877   F         6 RES6   0.0000
   111 F3      -3.8257   7.1057  10.5375   F         6 RES6   0.0000
   112 F4      -3.2705   5.8959  12.3837   F         6 RES6   0.0000
   113 B2       0.3157   3.1732   1.6362   B         7 RES7  -1.0000
   114 F5      -0.4416   3.5051   2.7570   F         7 RES7   0.0000
   115 F6      -0.5367   2.8903   0.5631   F         7 RES7   0.0000
   116 F7       1.0689   2.0409   1.9299   F         7 RES7   0.0000
   117 F8       1.1484   4.2261   1.3027   F         7 RES7   0.0000
@<TRIPOS>BOND
     1     1     2    1
     2     3     1    1
     3     4     1    1
     4     5     7    2
     5     6     7    2
     6     7     1    1
     7     8     9    1
     8    10     8    1
     9    11    10    1
    10    12    10    2
    11    13    12    1
    12    14    15   ar
    13    15    16    1
    14    17    15   ar
    15    18    17   ar
    16    19    18    1
    17    20    18   ar
    18    21    22    1
    19    23    21    2
    20    24    23    1
    21    25    23    1
    22    26    25    1
    23    27    17    1
    24    28    27    1
    25    29    27    2
    26    30    29    1
    27    31    29    1
    28    32    31   ar
    29    33    32    1
    30    34    32   ar
    31    35    34    1
    32    36    34   ar
    33    37    36    1
    34    38    36   ar
    35    39    38    1
    36    40    31   ar
    37    41    40    1
    38    42    43    1
    39    44    42    1
    40    45    44    1
    41    46    44    2
    42    47    46    1
    43    48    49   ar
    44    49    50    1
    45    51    49   ar
    46    52    51   ar
    47    53    52    1
    48    54    52   ar
    49    55    56    1
    50    57    55    2
    51    58    57    1
    52    59    57    1
    53    60    59    1
    54    61    51    1
    55    62    61    1
    56    63    61    2
    57    64    63    1
    58    65    63    1
    59    66    65   ar
    60    67    66    1
    61    68    66   ar
    62    69    68    1
    63    70    68   ar
    64    71    70    1
    65    72    70   ar
    66    73    72    1
    67    74    65   ar
    68    75    74    1
    69    76     8    2
    70    77    12    1
    71    78    14   ar
    72    79    20    1
    73    80    25    2
    74    81    42    2
    75    82    46    1
    76    83    48   ar
    77    84    54    1
    78    85    59    2
    79    86    76    1
    80    14    77    1
    81    20    78   ar
    82    21    79    1
    83    38    40   ar
    84    48    82    1
    85    54    83   ar
    86    55    84    1
    87    72    74   ar
    88    76    77    1
    89    78    86    1
    90    79    80    1
    91    80    86    1
    92    81    82    1
    93    81    86    1
    94    83    86    1
    95    84    85    1
    96    85    86    1
    97    87    88    1
    98    89    87    1
    99    90    87    1
   100    91    87    1
   101    92    91    2
   102    93    91    2
   103    94    95    1
   104    96    94    1
   105    97    94    1
   106    98    94    1
   107    99    98    2
   108   100    98    2
   109   101   102    1
   110   103   101    1
   111   104   101    1
   112   105   101    1
   113   106   105    2
   114   107   105    2
   115   108   109    1
   116   110   108    1
   117   111   108    1
   118   112   108    1
   119   113   114    1
   120   115   113    1
   121   116   113    1
   122   117   113    1
@<TRIPOS>SUBSTRUCTURE
     1 RES1        1 GROUP             0 ****  ****    0  
     2 RES2        8 GROUP             0 ****  ****    0  
     3 RES3       87 GROUP             0 ****  ****    0  
     4 RES4       94 GROUP             0 ****  ****    0  
     5 RES5      101 GROUP             0 ****  ****    0  
     6 RES6      108 GROUP             0 ****  ****    0  
     7 RES7      113 GROUP             0 ****  ****    0  
@<TRIPOS>CRYSIN
   10.5450   13.5200   18.1220   94.3500  103.1120  103.8760     2     1
