@<TRIPOS>MOLECULE
REVCUS02
   117   122     7     0     0
SMALL
USER_CHARGES
****
Generated from the CSD

@<TRIPOS>ATOM
     1 C1      -1.9479  10.1532  10.2426   C.3       1 RES1   0.0000
     2 H1      -1.0465   9.8412  10.4675   H         1 RES1   0.0000
     3 H2      -2.4350   9.4400   9.7787   H         1 RES1   0.0000
     4 H3      -2.4257  10.3939  11.0632   H         1 RES1   0.0000
     5 O1      -1.1023  12.0788   9.7189   O.2       1 RES1   0.0000
     6 O2      -2.3993  10.9614   8.4274   O.2       1 RES1   0.0000
     7 N1      -1.8618  11.2264   9.4448   N.pl3     1 RES1   0.0000
     8 C2      -1.6411   4.0695  14.2883   C.2       2 RES2   0.0000
     9 H4      -1.8472   4.7603  13.6690   H         2 RES2   0.0000
    10 C3      -0.6134   4.1346  15.2347   C.2       2 RES2   0.0000
    11 H5      -0.0074   4.8530  15.3753   H         2 RES2   0.0000
    12 C4      -0.6603   2.9414  15.9235   C.2       2 RES2   0.0000
    13 H6      -0.0917   2.6752  16.6352   H         2 RES2   0.0000
    14 C5      -2.1287   0.9161  15.6455   C.ar      2 RES2   0.0000
    15 C6      -1.6032   0.0366  16.5517   C.ar      2 RES2   0.0000
    16 H7      -0.8695   0.2821  17.1026   H         2 RES2   0.0000
    17 C7      -2.1810  -1.2394  16.6431   C.ar      2 RES2   0.0000
    18 C8      -3.2699  -1.5534  15.8302   C.ar      2 RES2   0.0000
    19 H8      -3.6923  -2.4022  15.8831   H         2 RES2   0.0000
    20 C9      -3.7153  -0.5884  14.9439   C.ar      2 RES2   0.0000
    21 C10     -5.5252  -1.7964  13.6813   C.2       2 RES2   0.0000
    22 H9      -5.5292  -2.6504  14.0978   H         2 RES2   0.0000
    23 C11     -6.2896  -1.4003  12.6270   C.2       2 RES2   0.0000
    24 H10     -6.9332  -1.9230  12.1649   H         2 RES2   0.0000
    25 C12     -5.9456  -0.0801  12.3585   C.2       2 RES2   0.0000
    26 H11     -6.3303   0.4464  11.6676   H         2 RES2   0.0000
    27 C13     -1.6686  -2.2717  17.5612   C.2       2 RES2   0.0000
    28 H12     -2.1330  -3.0998  17.5963   H         2 RES2   0.0000
    29 C14     -0.6126  -2.1280  18.3382   C.2       2 RES2   0.0000
    30 H13     -0.1664  -1.2908  18.2834   H         2 RES2   0.0000
    31 C15     -0.0445  -3.1027  19.2786   C.ar      2 RES2   0.0000
    32 C16      0.9751  -2.6928  20.1231   C.ar      2 RES2   0.0000
    33 H14      1.2806  -1.7943  20.0827   H         2 RES2   0.0000
    34 C17      1.5543  -3.5650  21.0246   C.ar      2 RES2   0.0000
    35 H15      2.2477  -3.2622  21.5992   H         2 RES2   0.0000
    36 C18      1.1321  -4.8708  21.0913   C.ar      2 RES2   0.0000
    37 H16      1.5381  -5.4752  21.7028   H         2 RES2   0.0000
    38 C19      0.1145  -5.2954  20.2690   C.ar      2 RES2   0.0000
    39 H17     -0.1868  -6.1942  20.3217   H         2 RES2   0.0000
    40 C20     -0.4752  -4.4309  19.3667   C.ar      2 RES2   0.0000
    41 H18     -1.1743  -4.7405  18.8035   H         2 RES2   0.0000
    42 C21     -1.8230   0.6129  11.4392   C.2       2 RES2   0.0000
    43 H19     -1.3801  -0.0458  11.9628   H         2 RES2   0.0000
    44 C22     -1.5949   0.8160  10.0791   C.2       2 RES2   0.0000
    45 H20     -0.9858   0.3435   9.5239   H         2 RES2   0.0000
    46 C23     -2.4200   1.8258   9.7086   C.2       2 RES2   0.0000
    47 H21     -2.5092   2.1916   8.8368   H         2 RES2   0.0000
    48 C24     -4.1499   3.1257  11.0027   C.ar      2 RES2   0.0000
    49 C25     -4.7169   3.9041  10.0238   C.ar      2 RES2   0.0000
    50 H22     -4.3820   3.8919   9.1355   H         2 RES2   0.0000
    51 C26     -5.7959   4.7098  10.3731   C.ar      2 RES2   0.0000
    52 C27     -6.2482   4.7117  11.7047   C.ar      2 RES2   0.0000
    53 H23     -6.9790   5.2556  11.9734   H         2 RES2   0.0000
    54 C28     -5.5955   3.8983  12.6088   C.ar      2 RES2   0.0000
    55 C29     -6.8339   4.3264  14.7708   C.2       2 RES2   0.0000
    56 H24     -7.4677   4.9851  14.5107   H         2 RES2   0.0000
    57 C30     -6.6748   3.8102  16.0096   C.2       2 RES2   0.0000
    58 H25     -7.1714   4.0382  16.7863   H         2 RES2   0.0000
    59 C31     -5.6281   2.8658  15.9279   C.2       2 RES2   0.0000
    60 H26     -5.3031   2.3454  16.6527   H         2 RES2   0.0000
    61 C32     -6.4417   5.4957   9.3060   C.2       2 RES2   0.0000
    62 H27     -6.0569   5.4454   8.4379   H         2 RES2   0.0000
    63 C33     -7.4987   6.2588   9.4473   C.2       2 RES2   0.0000
    64 H28     -7.8721   6.3324  10.3181   H         2 RES2   0.0000
    65 C34     -8.1538   7.0118   8.3597   C.ar      2 RES2   0.0000
    66 C35     -7.8733   6.7977   7.0111   C.ar      2 RES2   0.0000
    67 H29     -7.2383   6.1366   6.7634   H         2 RES2   0.0000
    68 C36     -8.5163   7.5417   6.0236   C.ar      2 RES2   0.0000
    69 H30     -8.3168   7.3897   5.1081   H         2 RES2   0.0000
    70 C37     -9.4388   8.4925   6.3803   C.ar      2 RES2   0.0000
    71 H31     -9.8770   9.0057   5.7108   H         2 RES2   0.0000
    72 C38     -9.7259   8.7004   7.7157   C.ar      2 RES2   0.0000
    73 H32    -10.3668   9.3593   7.9600   H         2 RES2   0.0000
    74 C39     -9.0963   7.9666   8.6962   C.ar      2 RES2   0.0000
    75 H33     -9.3117   8.1162   9.6100   H         2 RES2   0.0000
    76 N2      -2.2913   2.9122  14.3702   N.2       2 RES2   0.0000
    77 N3      -1.6723   2.2234  15.3900   N.pl3     2 RES2   0.0000
    78 N4      -3.1499   0.6157  14.8369   N.ar      2 RES2   0.0000
    79 N5      -4.7568  -0.7344  14.0184   N.pl3     2 RES2   0.0000
    80 N6      -5.0102   0.3422  13.1923   N.2       2 RES2   0.0000
    81 N7      -2.7362   1.4527  11.9124   N.2       2 RES2   0.0000
    82 N8      -3.0953   2.2167  10.8159   N.pl3     2 RES2   0.0000
    83 N9      -4.5645   3.1143  12.2751   N.ar      2 RES2   0.0000
    84 N10     -5.9148   3.7257  13.9669   N.pl3     2 RES2   0.0000
    85 N11     -5.1650   2.8166  14.6789   N.2       2 RES2   0.0000
    86 Fe1     -3.8020   1.8900  13.5485   Fe        2 RES2   2.0000
    87 C40     -4.1703   7.1997  15.4473   C.3       3 RES3   0.0000
    88 H34     -4.5874   8.0266  15.7654   H         3 RES3   0.0000
    89 H35     -4.8250   6.4712  15.4754   H         3 RES3   0.0000
    90 H36     -3.8594   7.3246  14.5265   H         3 RES3   0.0000
    91 N12     -3.0433   6.8684  16.2957   N.pl3     3 RES3   0.0000
    92 O3      -2.1427   7.6468  16.4102   O.2       3 RES3   0.0000
    93 O4      -3.0266   5.8122  16.8917   O.2       3 RES3   0.0000
    94 C41     -0.3041   7.7573  13.9203   C.3       4 RES4   0.0000
    95 H37     -1.0097   7.0813  13.8483   H         4 RES4   0.0000
    96 H38     -0.6923   8.6488  13.7920   H         4 RES4   0.0000
    97 H39      0.1088   7.7051  14.8077   H         4 RES4   0.0000
    98 N13      0.7084   7.5152  12.8980   N.pl3     4 RES4   0.0000
    99 O5       1.0186   8.4563  12.1855   O.2       4 RES4   0.0000
   100 O6       1.1852   6.4161  12.8221   O.2       4 RES4   0.0000
   101 C42     -6.4515   8.8312  11.8925   C.3       5 RES5   0.0000
   102 H40     -6.6934   8.5769  12.8063   H         5 RES5   0.0000
   103 H41     -5.8977   8.1292  11.4937   H         5 RES5   0.0000
   104 H42     -7.2653   8.9479  11.3584   H         5 RES5   0.0000
   105 N14     -5.7050  10.0843  11.9171   N.pl3     5 RES5   0.0000
   106 O7      -5.2198  10.4854  10.8857   O.2       5 RES5   0.0000
   107 O8      -5.5663  10.6535  12.9627   O.2       5 RES5   0.0000
   108 B1      -3.0250   7.2092  11.6290   B         6 RES6  -1.0000
   109 F1      -3.1584   8.3239  12.4292   F         6 RES6   0.0000
   110 F2      -1.7475   7.1429  11.1570   F         6 RES6   0.0000
   111 F3      -3.9185   7.2590  10.5813   F         6 RES6   0.0000
   112 F4      -3.2868   6.1073  12.4042   F         6 RES6   0.0000
   113 B2       0.2649   3.1811   1.6078   B         7 RES7  -1.0000
   114 F5      -0.4583   3.5192   2.7417   F         7 RES7   0.0000
   115 F6      -0.6091   2.8907   0.5660   F         7 RES7   0.0000
   116 F7       1.0133   2.0491   1.8835   F         7 RES7   0.0000
   117 F8       1.0794   4.2277   1.2495   F         7 RES7   0.0000
@<TRIPOS>BOND
     1     1     2    1
     2     3     1    1
     3     4     1    1
     4     5     7    2
     5     6     7    2
     6     7     1    1
     7     8     9    1
     8    10     8    1
     9    11    10    1
    10    12    10    2
    11    13    12    1
    12    14    15   ar
    13    15    16    1
    14    17    15   ar
    15    18    17   ar
    16    19    18    1
    17    20    18   ar
    18    21    22    1
    19    23    21    2
    20    24    23    1
    21    25    23    1
    22    26    25    1
    23    27    17    1
    24    28    27    1
    25    29    27    2
    26    30    29    1
    27    31    29    1
    28    32    31   ar
    29    33    32    1
    30    34    32   ar
    31    35    34    1
    32    36    34   ar
    33    37    36    1
    34    38    36   ar
    35    39    38    1
    36    40    31   ar
    37    41    40    1
    38    42    43    1
    39    44    42    1
    40    45    44    1
    41    46    44    2
    42    47    46    1
    43    48    49   ar
    44    49    50    1
    45    51    49   ar
    46    52    51   ar
    47    53    52    1
    48    54    52   ar
    49    55    56    1
    50    57    55    2
    51    58    57    1
    52    59    57    1
    53    60    59    1
    54    61    51    1
    55    62    61    1
    56    63    61    2
    57    64    63    1
    58    65    63    1
    59    66    65   ar
    60    67    66    1
    61    68    66   ar
    62    69    68    1
    63    70    68   ar
    64    71    70    1
    65    72    70   ar
    66    73    72    1
    67    74    65   ar
    68    75    74    1
    69    76     8    2
    70    77    12    1
    71    78    14   ar
    72    79    20    1
    73    80    25    2
    74    81    42    2
    75    82    46    1
    76    83    48   ar
    77    84    54    1
    78    85    59    2
    79    86    76    1
    80    14    77    1
    81    20    78   ar
    82    21    79    1
    83    38    40   ar
    84    48    82    1
    85    54    83   ar
    86    55    84    1
    87    72    74   ar
    88    76    77    1
    89    78    86    1
    90    79    80    1
    91    80    86    1
    92    81    82    1
    93    81    86    1
    94    83    86    1
    95    84    85    1
    96    85    86    1
    97    87    88    1
    98    89    87    1
    99    90    87    1
   100    91    87    1
   101    92    91    2
   102    93    91    2
   103    94    95    1
   104    96    94    1
   105    97    94    1
   106    98    94    1
   107    99    98    2
   108   100    98    2
   109   101   102    1
   110   103   101    1
   111   104   101    1
   112   105   101    1
   113   106   105    2
   114   107   105    2
   115   108   109    1
   116   110   108    1
   117   111   108    1
   118   112   108    1
   119   113   114    1
   120   115   113    1
   121   116   113    1
   122   117   113    1
@<TRIPOS>SUBSTRUCTURE
     1 RES1        1 GROUP             0 ****  ****    0  
     2 RES2        8 GROUP             0 ****  ****    0  
     3 RES3       87 GROUP             0 ****  ****    0  
     4 RES4       94 GROUP             0 ****  ****    0  
     5 RES5      101 GROUP             0 ****  ****    0  
     6 RES6      108 GROUP             0 ****  ****    0  
     7 RES7      113 GROUP             0 ****  ****    0  
@<TRIPOS>CRYSIN
   10.6263   13.5773   18.2138   93.6820  103.3790  104.3270     2     1
