@<TRIPOS>MOLECULE
REVCOM
   108   113     7     0     0
SMALL
USER_CHARGES
****
Generated from the CSD

@<TRIPOS>ATOM
     1 C1       8.6263   5.9523  12.9639   C.2       1 RES1   0.0000
     2 H1       8.3619   6.5435  13.6588   H         1 RES1   0.0000
     3 C2       9.6549   6.2155  12.0490   C.2       1 RES1   0.0000
     4 H2      10.2042   6.9900  12.0077   H         1 RES1   0.0000
     5 C3       9.7022   5.1252  11.2304   C.2       1 RES1   0.0000
     6 H3      10.2989   4.9945  10.5032   H         1 RES1   0.0000
     7 C4       8.3822   2.9957  11.1561   C.ar      1 RES1   0.0000
     8 C5       9.0069   2.3693  10.0995   C.ar      1 RES1   0.0000
     9 H4       9.7187   2.7897   9.6330   H         1 RES1   0.0000
    10 C6       8.5594   1.0957   9.7357   C.ar      1 RES1   0.0000
    11 C7       7.4963   0.5181  10.4498   C.ar      1 RES1   0.0000
    12 H5       7.1641  -0.3433  10.2227   H         1 RES1   0.0000
    13 C8       6.9480   1.2387  11.4903   C.ar      1 RES1   0.0000
    14 C9       5.2608  -0.4291  12.2908   C.2       1 RES1   0.0000
    15 H6       5.3933  -1.1334  11.6682   H         1 RES1   0.0000
    16 C10      4.3918  -0.4291  13.3443   C.2       1 RES1   0.0000
    17 H7       3.7994  -1.1244  13.6034   H         1 RES1   0.0000
    18 C11      4.5604   0.8242  13.9643   C.2       1 RES1   0.0000
    19 H8       4.0818   1.1104  14.7327   H         1 RES1   0.0000
    20 C12      9.1631   0.3370   8.6445   C.2       1 RES1   0.0000
    21 H9       8.8377  -0.5426   8.4912   H         1 RES1   0.0000
    22 C13     10.1330   0.7780   7.8461   C.2       1 RES1   0.0000
    23 H10     10.4544   1.6561   8.0105   H         1 RES1   0.0000
    24 C14     10.7563   0.0462   6.7374   C.ar      1 RES1   0.0000
    25 C15     11.7042   0.7033   5.9492   C.ar      1 RES1   0.0000
    26 H11     11.9425   1.6019   6.1486   H         1 RES1   0.0000
    27 C16     12.3035   0.0529   4.8769   C.ar      1 RES1   0.0000
    28 H12     12.9508   0.5068   4.3492   H         1 RES1   0.0000
    29 C17     11.9600  -1.2574   4.5740   C.ar      1 RES1   0.0000
    30 H13     12.3706  -1.7013   3.8418   H         1 RES1   0.0000
    31 C18     11.0153  -1.9149   5.3449   C.ar      1 RES1   0.0000
    32 H14     10.7685  -2.8067   5.1301   H         1 RES1   0.0000
    33 C19     10.4263  -1.2784   6.4293   C.ar      1 RES1   0.0000
    34 H15      9.7954  -1.7445   6.9652   H         1 RES1   0.0000
    35 C20      7.9149   2.3527  16.1477   C.2       1 RES1   0.0000
    36 H16      8.4272   1.6517  15.7619   H         1 RES1   0.0000
    37 C21      7.9150   2.6702  17.5127   C.2       1 RES1   0.0000
    38 H17      8.4160   2.2485  18.2010   H         1 RES1   0.0000
    39 C22      7.0492   3.7084  17.6424   C.2       1 RES1   0.0000
    40 H18      6.8136   4.1476  18.4512   H         1 RES1   0.0000
    41 C23      5.5885   4.9115  15.9898   C.ar      1 RES1   0.0000
    42 C24      4.8722   5.7161  16.8610   C.ar      1 RES1   0.0000
    43 H19      5.0445   5.6995  17.7954   H         1 RES1   0.0000
    44 C25      3.8869   6.5557  16.3244   C.ar      1 RES1   0.0000
    45 C26      3.6845   6.5430  14.9339   C.ar      1 RES1   0.0000
    46 H20      3.0201   7.0911  14.5344   H         1 RES1   0.0000
    47 C27      4.4663   5.7227  14.1720   C.ar      1 RES1   0.0000
    48 C28      3.6098   6.3490  11.8871   C.2       1 RES1   0.0000
    49 H21      3.0310   7.0707  12.1024   H         1 RES1   0.0000
    50 C29      3.8519   5.8424  10.6397   C.2       1 RES1   0.0000
    51 H22      3.4735   6.1321   9.8188   H         1 RES1   0.0000
    52 C30      4.7763   4.8055  10.8279   C.2       1 RES1   0.0000
    53 H23      5.1377   4.2757  10.1262   H         1 RES1   0.0000
    54 C31      3.0670   7.3512  17.2300   C.2       1 RES1   0.0000
    55 H24      3.2463   7.2844  18.1599   H         1 RES1   0.0000
    56 C32      2.0814   8.1681  16.8458   C.2       1 RES1   0.0000
    57 H25      1.9346   8.2390  15.9102   H         1 RES1   0.0000
    58 C33      1.2050   8.9624  17.7003   C.ar      1 RES1   0.0000
    59 C34      1.2282   8.8909  19.0966   C.ar      1 RES1   0.0000
    60 H26      1.8355   8.3022  19.5304   H         1 RES1   0.0000
    61 C35      0.3692   9.6767  19.8540   C.ar      1 RES1   0.0000
    62 H27      0.3992   9.6275  20.8027   H         1 RES1   0.0000
    63 C36     -0.5281  10.5287  19.2424   C.ar      1 RES1   0.0000
    64 H28     -1.1181  11.0570  19.7663   H         1 RES1   0.0000
    65 C37     -0.5640  10.6061  17.8660   C.ar      1 RES1   0.0000
    66 H29     -1.1780  11.1925  17.4398   H         1 RES1   0.0000
    67 C38      0.2960   9.8277  17.1023   C.ar      1 RES1   0.0000
    68 H30      0.2631   9.8872  16.1550   H         1 RES1   0.0000
    69 N1       8.0661   4.7621  12.7300   N.2       1 RES1   0.0000
    70 N2       8.7450   4.2647  11.6454   N.pl3     1 RES1   0.0000
    71 N3       7.3697   2.4512  11.8449   N.ar      1 RES1   0.0000
    72 N4       5.9025   0.7710  12.3024   N.pl3     1 RES1   0.0000
    73 N5       5.4731   1.5502  13.3379   N.2       1 RES1   0.0000
    74 N6       7.1082   3.1536  15.4614   N.2       1 RES1   0.0000
    75 N7       6.5810   4.0016  16.4000   N.pl3     1 RES1   0.0000
    76 N8       5.4007   4.8996  14.6632   N.ar      1 RES1   0.0000
    77 N9       4.3561   5.6201  12.7595   N.pl3     1 RES1   0.0000
    78 N10      5.0849   4.6589  12.1133   N.2       1 RES1   0.0000
    79 Fe1      6.4217   3.5115  13.4311   Fe        1 RES1   2.0000
    80 C39      4.3407   1.9366  18.0761   C.1       2 RES2   0.0000
    81 C40      4.5924   1.8376  19.4933   C.3       2 RES2   0.0000
    82 H31      4.1042   2.5469  19.9611   H         2 RES2   0.0000
    83 H32      5.5533   1.9363  19.6627   H         2 RES2   0.0000
    84 H33      4.2905   0.9644  19.8181   H         2 RES2   0.0000
    85 N11      4.1167   2.0433  16.9588   N.1       2 RES2   0.0000
    86 C41      6.2703   9.0782  10.0225   C.1       3 RES3   0.0000
    87 C42      6.9841   7.9331  10.5879   C.3       3 RES3   0.0000
    88 H34      6.6117   7.7185  11.4681   H         3 RES3   0.0000
    89 H35      7.9354   8.1552  10.6801   H         3 RES3   0.0000
    90 H36      6.8855   7.1608   9.9939   H         3 RES3   0.0000
    91 N12      5.7464   9.9712   9.5581   N.1       3 RES3   0.0000
    92 C43      4.8704   2.5694   3.8230   C.1       4 RES4   0.0000
    93 C44      4.7496   3.5683   4.8746   C.3       4 RES4   0.0000
    94 H37      5.5528   4.1283   4.8871   H         4 RES4   0.0000
    95 H38      4.6497   3.1202   5.7412   H         4 RES4   0.0000
    96 H39      3.9634   4.1280   4.7048   H         4 RES4   0.0000
    97 N13      4.9399   1.7759   3.0164   N.1       4 RES4   0.0000
    98 O1       7.7462   4.9356   4.0783   O.3       5 RES5   0.0000
    99 F1       7.8029   4.2405   6.7851   F         6 RES6   0.0000
   100 F2       7.7063   5.0702   8.8836   F         6 RES6   0.0000
   101 F3       6.3304   3.3659   8.2748   F         6 RES6   0.0000
   102 F4       6.0239   5.4632   7.4443   F         6 RES6   0.0000
   103 B1       6.9608   4.5404   7.8615   B         6 RES6  -1.0000
   104 F5      15.4078   9.4356  15.6222   F         7 RES7   0.0000
   105 F6      15.8177   8.6234  13.5552   F         7 RES7   0.0000
   106 F7      17.2994   9.9899  14.5535   F         7 RES7   0.0000
   107 F8      17.0003   7.8795  15.2636   F         7 RES7   0.0000
   108 B2      16.3943   9.0110  14.7388   B         7 RES7  -1.0000
@<TRIPOS>BOND
     1     1     2    1
     2     3     1    1
     3     4     3    1
     4     5     3    2
     5     6     5    1
     6     7     8   ar
     7     8     9    1
     8    10     8   ar
     9    11    10   ar
    10    12    11    1
    11    13    11   ar
    12    14    15    1
    13    16    14    2
    14    17    16    1
    15    18    16    1
    16    19    18    1
    17    20    10    1
    18    21    20    1
    19    22    20    2
    20    23    22    1
    21    24    22    1
    22    25    24   ar
    23    26    25    1
    24    27    25   ar
    25    28    27    1
    26    29    27   ar
    27    30    29    1
    28    31    29   ar
    29    32    31    1
    30    33    24   ar
    31    34    33    1
    32    35    36    1
    33    37    35    1
    34    38    37    1
    35    39    37    2
    36    40    39    1
    37    41    42   ar
    38    42    43    1
    39    44    42   ar
    40    45    44   ar
    41    46    45    1
    42    47    45   ar
    43    48    49    1
    44    50    48    2
    45    51    50    1
    46    52    50    1
    47    53    52    1
    48    54    44    1
    49    55    54    1
    50    56    54    2
    51    57    56    1
    52    58    56    1
    53    59    58   ar
    54    60    59    1
    55    61    59   ar
    56    62    61    1
    57    63    61   ar
    58    64    63    1
    59    65    63   ar
    60    66    65    1
    61    67    58   ar
    62    68    67    1
    63    69     1    2
    64    70     5    1
    65    71     7   ar
    66    72    13    1
    67    73    18    2
    68    74    35    2
    69    75    39    1
    70    76    41   ar
    71    77    47    1
    72    78    52    2
    73    79    69    1
    74     7    70    1
    75    13    71   ar
    76    14    72    1
    77    31    33   ar
    78    41    75    1
    79    47    76   ar
    80    48    77    1
    81    65    67   ar
    82    69    70    1
    83    71    79    1
    84    72    73    1
    85    73    79    1
    86    74    75    1
    87    74    79    1
    88    76    79    1
    89    77    78    1
    90    78    79    1
    91    80    81    1
    92    81    82    1
    93    83    81    1
    94    84    81    1
    95    85    80    3
    96    86    87    1
    97    87    88    1
    98    89    87    1
    99    90    87    1
   100    91    86    3
   101    92    93    1
   102    93    94    1
   103    95    93    1
   104    96    93    1
   105    97    92    3
   106    99   103    1
   107   100   103    1
   108   101   103    1
   109   102   103    1
   110   104   108    1
   111   105   108    1
   112   106   108    1
   113   107   108    1
@<TRIPOS>SUBSTRUCTURE
     1 RES1        1 GROUP             0 ****  ****    0  
     2 RES2       80 GROUP             0 ****  ****    0  
     3 RES3       86 GROUP             0 ****  ****    0  
     4 RES4       92 GROUP             0 ****  ****    0  
     5 RES5       98 GROUP             0 ****  ****    0  
     6 RES6       99 GROUP             0 ****  ****    0  
     7 RES7      104 GROUP             0 ****  ****    0  
@<TRIPOS>CRYSIN
    9.9161   13.7690   18.1340   83.9540   80.6300   69.0480     2     1
