@<TRIPOS>MOLECULE
REVCUS06
   117   122     7     0     0
SMALL
USER_CHARGES
****
Generated from the CSD

@<TRIPOS>ATOM
     1 C1      -1.6620   9.7203  10.1815   C.3       1 RES1   0.0000
     2 H1      -0.7365   9.5260  10.4384   H         1 RES1   0.0000
     3 H2      -1.9923   9.0108   9.5924   H         1 RES1   0.0000
     4 H3      -2.2214   9.7667  10.9837   H         1 RES1   0.0000
     5 O1      -1.2630  11.8603  10.0294   O.2       1 RES1   0.0000
     6 O2      -2.1889  10.9990   8.3934   O.2       1 RES1   0.0000
     7 N1      -1.7118  10.9781   9.4910   N.pl3     1 RES1   0.0000
     8 C2      -1.5060   3.8128  14.1668   C.2       2 RES2   0.0000
     9 H4      -1.7059   4.4994  13.5427   H         2 RES2   0.0000
    10 C3      -0.4613   3.8750  15.1130   C.2       2 RES2   0.0000
    11 H5       0.1534   4.5876  15.2433   H         2 RES2   0.0000
    12 C4      -0.5163   2.6931  15.8035   C.2       2 RES2   0.0000
    13 H6       0.0584   2.4242  16.5106   H         2 RES2   0.0000
    14 C5      -2.0190   0.6760  15.5415   C.ar      2 RES2   0.0000
    15 C6      -1.5043  -0.2081  16.4585   C.ar      2 RES2   0.0000
    16 H7      -0.7747   0.0328  17.0157   H         2 RES2   0.0000
    17 C7      -2.0964  -1.4868  16.5454   C.ar      2 RES2   0.0000
    18 C8      -3.1927  -1.7882  15.7207   C.ar      2 RES2   0.0000
    19 H8      -3.6278  -2.6316  15.7730   H         2 RES2   0.0000
    20 C9      -3.6159  -0.8238  14.8361   C.ar      2 RES2   0.0000
    21 C10     -5.4421  -1.9977  13.5572   C.2       2 RES2   0.0000
    22 H9      -5.4620  -2.8512  13.9726   H         2 RES2   0.0000
    23 C11     -6.1999  -1.5948  12.4960   C.2       2 RES2   0.0000
    24 H10     -6.8475  -2.1090  12.0272   H         2 RES2   0.0000
    25 C12     -5.8269  -0.2681  12.2372   C.2       2 RES2   0.0000
    26 H11     -6.1982   0.2684  11.5466   H         2 RES2   0.0000
    27 C13     -1.5861  -2.5238  17.4494   C.2       2 RES2   0.0000
    28 H12     -2.0559  -3.3488  17.4894   H         2 RES2   0.0000
    29 C14     -0.5086  -2.3845  18.2176   C.2       2 RES2   0.0000
    30 H13     -0.0532  -1.5540  18.1518   H         2 RES2   0.0000
    31 C15      0.0626  -3.3580  19.1541   C.ar      2 RES2   0.0000
    32 C16      1.1015  -2.9357  19.9810   C.ar      2 RES2   0.0000
    33 H14      1.4163  -2.0418  19.9155   H         2 RES2   0.0000
    34 C17      1.6868  -3.7995  20.8981   C.ar      2 RES2   0.0000
    35 H15      2.3885  -3.4930  21.4606   H         2 RES2   0.0000
    36 C18      1.2448  -5.1055  20.9908   C.ar      2 RES2   0.0000
    37 H16      1.6483  -5.7033  21.6092   H         2 RES2   0.0000
    38 C19      0.2061  -5.5419  20.1724   C.ar      2 RES2   0.0000
    39 H17     -0.0988  -6.4394  20.2353   H         2 RES2   0.0000
    40 C20     -0.3843  -4.6788  19.2670   C.ar      2 RES2   0.0000
    41 H18     -1.0972  -4.9843  18.7182   H         2 RES2   0.0000
    42 C21     -1.6860   0.3558  11.3800   C.2       2 RES2   0.0000
    43 H19     -1.2583  -0.3095  11.9066   H         2 RES2   0.0000
    44 C22     -1.4300   0.5660  10.0110   C.2       2 RES2   0.0000
    45 H20     -0.8191   0.0913   9.4596   H         2 RES2   0.0000
    46 C23     -2.2450   1.5962   9.6452   C.2       2 RES2   0.0000
    47 H21     -2.3181   1.9778   8.7779   H         2 RES2   0.0000
    48 C24     -3.9798   2.8943  10.9383   C.ar      2 RES2   0.0000
    49 C25     -4.5409   3.6952   9.9721   C.ar      2 RES2   0.0000
    50 H22     -4.2009   3.7014   9.0855   H         2 RES2   0.0000
    51 C26     -5.6287   4.5021  10.3295   C.ar      2 RES2   0.0000
    52 C27     -6.0961   4.4808  11.6562   C.ar      2 RES2   0.0000
    53 H23     -6.8333   5.0155  11.9293   H         2 RES2   0.0000
    54 C28     -5.4437   3.6549  12.5432   C.ar      2 RES2   0.0000
    55 C29     -6.6549   4.0956  14.7150   C.2       2 RES2   0.0000
    56 H24     -7.2800   4.7650  14.4638   H         2 RES2   0.0000
    57 C30     -6.4810   3.5681  15.9644   C.2       2 RES2   0.0000
    58 H25     -6.9619   3.7952  16.7518   H         2 RES2   0.0000
    59 C31     -5.4440   2.6188  15.8492   C.2       2 RES2   0.0000
    60 H26     -5.1062   2.1007  16.5700   H         2 RES2   0.0000
    61 C32     -6.2460   5.3206   9.2703   C.2       2 RES2   0.0000
    62 H27     -5.8486   5.2856   8.4074   H         2 RES2   0.0000
    63 C33     -7.3050   6.0964   9.4183   C.2       2 RES2   0.0000
    64 H28     -7.6933   6.1464  10.2846   H         2 RES2   0.0000
    65 C34     -7.9322   6.8923   8.3460   C.ar      2 RES2   0.0000
    66 C35     -7.6451   6.6863   6.9860   C.ar      2 RES2   0.0000
    67 H29     -7.0329   6.0083   6.7259   H         2 RES2   0.0000
    68 C36     -8.2606   7.4815   6.0162   C.ar      2 RES2   0.0000
    69 H30     -8.0620   7.3456   5.0968   H         2 RES2   0.0000
    70 C37     -9.1517   8.4587   6.3859   C.ar      2 RES2   0.0000
    71 H31     -9.5712   8.9947   5.7226   H         2 RES2   0.0000
    72 C38     -9.4390   8.6630   7.7251   C.ar      2 RES2   0.0000
    73 H32    -10.0486   9.3473   7.9774   H         2 RES2   0.0000
    74 C39     -8.8464   7.8790   8.6992   C.ar      2 RES2   0.0000
    75 H33     -9.0655   8.0143   9.6134   H         2 RES2   0.0000
    76 N2      -2.1722   2.6678  14.2633   N.2       2 RES2   0.0000
    77 N3      -1.5523   1.9767  15.2848   N.pl3     2 RES2   0.0000
    78 N4      -3.0365   0.3798  14.7242   N.ar      2 RES2   0.0000
    79 N5      -4.6606  -0.9535  13.9053   N.pl3     2 RES2   0.0000
    80 N6      -4.8872   0.1399  13.0826   N.2       2 RES2   0.0000
    81 N7      -2.5962   1.1961  11.8446   N.2       2 RES2   0.0000
    82 N8      -2.9351   1.9770  10.7532   N.pl3     2 RES2   0.0000
    83 N9      -4.4101   2.8708  12.2067   N.ar      2 RES2   0.0000
    84 N10     -5.7580   3.4744  13.9025   N.pl3     2 RES2   0.0000
    85 N11     -5.0032   2.5477  14.6003   N.2       2 RES2   0.0000
    86 Fe1     -3.6727   1.6451  13.4590   Fe        2 RES2   2.0000
    87 C40     -3.9883   6.8911  15.4339   C.3       3 RES3   0.0000
    88 H34     -4.5933   7.5019  15.9058   H         3 RES3   0.0000
    89 H35     -4.4480   6.0426  15.2643   H         3 RES3   0.0000
    90 H36     -3.7173   7.2913  14.5826   H         3 RES3   0.0000
    91 N12     -2.8007   6.6457  16.2599   N.pl3     3 RES3   0.0000
    92 O3      -1.9695   7.5262  16.3779   O.2       3 RES3   0.0000
    93 O4      -2.6868   5.5646  16.8158   O.2       3 RES3   0.0000
    94 C41     -0.2373   7.4991  13.9022   C.3       4 RES4   0.0000
    95 H37     -0.9538   6.8400  13.7856   H         4 RES4   0.0000
    96 H38     -0.6081   8.4030  13.8223   H         4 RES4   0.0000
    97 H39      0.1660   7.3877  14.7889   H         4 RES4   0.0000
    98 N13      0.7922   7.2962  12.8636   N.pl3     4 RES4   0.0000
    99 O5       1.0737   8.2618  12.1602   O.2       4 RES4   0.0000
   100 O6       1.3105   6.2014  12.7664   O.2       4 RES4   0.0000
   101 C42     -6.2765   8.6302  11.8075   C.3       5 RES5   0.0000
   102 H40     -6.4440   8.3118  12.7194   H         5 RES5   0.0000
   103 H41     -5.8063   7.9352  11.3001   H         5 RES5   0.0000
   104 H42     -7.1298   8.8333  11.3700   H         5 RES5   0.0000
   105 N14     -5.4447   9.8502  11.8565   N.pl3     5 RES5   0.0000
   106 O7      -4.9075  10.2282  10.8277   O.2       5 RES5   0.0000
   107 O8      -5.3379  10.4373  12.9192   O.2       5 RES5   0.0000
   108 B1      -2.9263   6.9404  11.6392   B         6 RES6  -1.0000
   109 F1      -3.0980   8.0659  12.4397   F         6 RES6   0.0000
   110 F2      -1.6087   6.8617  11.2085   F         6 RES6   0.0000
   111 F3      -3.7721   7.0241  10.5356   F         6 RES6   0.0000
   112 F4      -3.2320   5.8038  12.3890   F         6 RES6   0.0000
   113 B2       0.3410   3.1748   1.6462   B         7 RES7  -1.0000
   114 F5      -0.4206   3.5062   2.7669   F         7 RES7   0.0000
   115 F6      -0.5094   2.8892   0.5689   F         7 RES7   0.0000
   116 F7       1.0964   2.0412   1.9384   F         7 RES7   0.0000
   117 F8       1.1742   4.2352   1.3141   F         7 RES7   0.0000
@<TRIPOS>BOND
     1     1     2    1
     2     3     1    1
     3     4     1    1
     4     5     7    2
     5     6     7    2
     6     7     1    1
     7     8     9    1
     8    10     8    1
     9    11    10    1
    10    12    10    2
    11    13    12    1
    12    14    15   ar
    13    15    16    1
    14    17    15   ar
    15    18    17   ar
    16    19    18    1
    17    20    18   ar
    18    21    22    1
    19    23    21    2
    20    24    23    1
    21    25    23    1
    22    26    25    1
    23    27    17    1
    24    28    27    1
    25    29    27    2
    26    30    29    1
    27    31    29    1
    28    32    31   ar
    29    33    32    1
    30    34    32   ar
    31    35    34    1
    32    36    34   ar
    33    37    36    1
    34    38    36   ar
    35    39    38    1
    36    40    31   ar
    37    41    40    1
    38    42    43    1
    39    44    42    1
    40    45    44    1
    41    46    44    2
    42    47    46    1
    43    48    49   ar
    44    49    50    1
    45    51    49   ar
    46    52    51   ar
    47    53    52    1
    48    54    52   ar
    49    55    56    1
    50    57    55    2
    51    58    57    1
    52    59    57    1
    53    60    59    1
    54    61    51    1
    55    62    61    1
    56    63    61    2
    57    64    63    1
    58    65    63    1
    59    66    65   ar
    60    67    66    1
    61    68    66   ar
    62    69    68    1
    63    70    68   ar
    64    71    70    1
    65    72    70   ar
    66    73    72    1
    67    74    65   ar
    68    75    74    1
    69    76     8    2
    70    77    12    1
    71    78    14   ar
    72    79    20    1
    73    80    25    2
    74    81    42    2
    75    82    46    1
    76    83    48   ar
    77    84    54    1
    78    85    59    2
    79    86    76    1
    80    14    77    1
    81    20    78   ar
    82    21    79    1
    83    38    40   ar
    84    48    82    1
    85    54    83   ar
    86    55    84    1
    87    72    74   ar
    88    76    77    1
    89    78    86    1
    90    79    80    1
    91    80    86    1
    92    81    82    1
    93    81    86    1
    94    83    86    1
    95    84    85    1
    96    85    86    1
    97    87    88    1
    98    89    87    1
    99    90    87    1
   100    91    87    1
   101    92    91    2
   102    93    91    2
   103    94    95    1
   104    96    94    1
   105    97    94    1
   106    98    94    1
   107    99    98    2
   108   100    98    2
   109   101   102    1
   110   103   101    1
   111   104   101    1
   112   105   101    1
   113   106   105    2
   114   107   105    2
   115   108   109    1
   116   110   108    1
   117   111   108    1
   118   112   108    1
   119   113   114    1
   120   115   113    1
   121   116   113    1
   122   117   113    1
@<TRIPOS>SUBSTRUCTURE
     1 RES1        1 GROUP             0 ****  ****    0  
     2 RES2        8 GROUP             0 ****  ****    0  
     3 RES3       87 GROUP             0 ****  ****    0  
     4 RES4       94 GROUP             0 ****  ****    0  
     5 RES5      101 GROUP             0 ****  ****    0  
     6 RES6      108 GROUP             0 ****  ****    0  
     7 RES7      113 GROUP             0 ****  ****    0  
@<TRIPOS>CRYSIN
   10.5060   13.5100   18.1160   94.6640  102.9160  103.7340     2     1
