@<TRIPOS>MOLECULE
REVCUS03
   117   122     7     0     0
SMALL
USER_CHARGES
****
Generated from the CSD

@<TRIPOS>ATOM
     1 C1      -1.8552  10.0072  10.1851   C.3       1 RES1   0.0000
     2 H1      -0.9359   9.7518  10.4091   H         1 RES1   0.0000
     3 H2      -2.2866   9.2753   9.6951   H         1 RES1   0.0000
     4 H3      -2.3525  10.1884  11.0077   H         1 RES1   0.0000
     5 O1      -1.1615  12.0213   9.8421   O.2       1 RES1   0.0000
     6 O2      -2.3791  11.0268   8.3809   O.2       1 RES1   0.0000
     7 N1      -1.8375  11.1593   9.3836   N.pl3     1 RES1   0.0000
     8 C2      -1.6220   4.0336  14.2055   C.2       2 RES2   0.0000
     9 H4      -1.8313   4.7231  13.5872   H         2 RES2   0.0000
    10 C3      -0.5786   4.0925  15.1493   C.2       2 RES2   0.0000
    11 H5       0.0374   4.8038  15.2795   H         2 RES2   0.0000
    12 C4      -0.6347   2.9090  15.8409   C.2       2 RES2   0.0000
    13 H6      -0.0658   2.6452  16.5552   H         2 RES2   0.0000
    14 C5      -2.1086   0.8874  15.5761   C.ar      2 RES2   0.0000
    15 C6      -1.5930   0.0009  16.4830   C.ar      2 RES2   0.0000
    16 H7      -0.8611   0.2424  17.0382   H         2 RES2   0.0000
    17 C7      -2.1741  -1.2719  16.5694   C.ar      2 RES2   0.0000
    18 C8      -3.2646  -1.5825  15.7530   C.ar      2 RES2   0.0000
    19 H8      -3.6938  -2.4283  15.8062   H         2 RES2   0.0000
    20 C9      -3.6978  -0.6205  14.8701   C.ar      2 RES2   0.0000
    21 C10     -5.5088  -1.8056  13.5991   C.2       2 RES2   0.0000
    22 H9      -5.5121  -2.6641  14.0072   H         2 RES2   0.0000
    23 C11     -6.2758  -1.4042  12.5494   C.2       2 RES2   0.0000
    24 H10     -6.9270  -1.9195  12.0892   H         2 RES2   0.0000
    25 C12     -5.9146  -0.0836  12.2799   C.2       2 RES2   0.0000
    26 H11     -6.2884   0.4467  11.5852   H         2 RES2   0.0000
    27 C13     -1.6594  -2.3036  17.4827   C.2       2 RES2   0.0000
    28 H12     -2.1284  -3.1292  17.5230   H         2 RES2   0.0000
    29 C14     -0.5916  -2.1665  18.2526   C.2       2 RES2   0.0000
    30 H13     -0.1420  -1.3318  18.1933   H         2 RES2   0.0000
    31 C15     -0.0167  -3.1376  19.1838   C.ar      2 RES2   0.0000
    32 C16      1.0088  -2.7298  20.0203   C.ar      2 RES2   0.0000
    33 H14      1.3159  -1.8326  19.9748   H         2 RES2   0.0000
    34 C17      1.5982  -3.6012  20.9222   C.ar      2 RES2   0.0000
    35 H15      2.2959  -3.2970  21.4903   H         2 RES2   0.0000
    36 C18      1.1714  -4.9090  20.9961   C.ar      2 RES2   0.0000
    37 H16      1.5793  -5.5145  21.6041   H         2 RES2   0.0000
    38 C19      0.1431  -5.3283  20.1771   C.ar      2 RES2   0.0000
    39 H17     -0.1632  -6.2259  20.2355   H         2 RES2   0.0000
    40 C20     -0.4502  -4.4690  19.2770   C.ar      2 RES2   0.0000
    41 H18     -1.1533  -4.7783  18.7183   H         2 RES2   0.0000
    42 C21     -1.7864   0.5565  11.4201   C.2       2 RES2   0.0000
    43 H19     -1.3537  -0.1018  11.9509   H         2 RES2   0.0000
    44 C22     -1.5387   0.7532  10.0518   C.2       2 RES2   0.0000
    45 H20     -0.9248   0.2770   9.5044   H         2 RES2   0.0000
    46 C23     -2.3627   1.7705   9.6743   C.2       2 RES2   0.0000
    47 H21     -2.4440   2.1367   8.8009   H         2 RES2   0.0000
    48 C24     -4.0895   3.0783  10.9595   C.ar      2 RES2   0.0000
    49 C25     -4.6572   3.8627   9.9811   C.ar      2 RES2   0.0000
    50 H22     -4.3191   3.8568   9.0931   H         2 RES2   0.0000
    51 C26     -5.7425   4.6669  10.3313   C.ar      2 RES2   0.0000
    52 C27     -6.1989   4.6617  11.6608   C.ar      2 RES2   0.0000
    53 H23     -6.9300   5.2049  11.9299   H         2 RES2   0.0000
    54 C28     -5.5521   3.8447  12.5580   C.ar      2 RES2   0.0000
    55 C29     -6.7787   4.2834  14.7286   C.2       2 RES2   0.0000
    56 H24     -7.4073   4.9496  14.4745   H         2 RES2   0.0000
    57 C30     -6.6193   3.7582  15.9698   C.2       2 RES2   0.0000
    58 H25     -7.1116   3.9804  16.7512   H         2 RES2   0.0000
    59 C31     -5.5787   2.8189  15.8675   C.2       2 RES2   0.0000
    60 H26     -5.2524   2.2954  16.5902   H         2 RES2   0.0000
    61 C32     -6.3819   5.4504   9.2701   C.2       2 RES2   0.0000
    62 H27     -5.9920   5.3994   8.4054   H         2 RES2   0.0000
    63 C33     -7.4472   6.2188   9.4045   C.2       2 RES2   0.0000
    64 H28     -7.8252   6.2864  10.2726   H         2 RES2   0.0000
    65 C34     -8.1005   6.9791   8.3305   C.ar      2 RES2   0.0000
    66 C35     -7.8186   6.7593   6.9758   C.ar      2 RES2   0.0000
    67 H29     -7.1850   6.0948   6.7306   H         2 RES2   0.0000
    68 C36     -8.4528   7.5000   5.9903   C.ar      2 RES2   0.0000
    69 H30     -8.2564   7.3404   5.0733   H         2 RES2   0.0000
    70 C37     -9.3661   8.4680   6.3421   C.ar      2 RES2   0.0000
    71 H31     -9.7945   8.9848   5.6701   H         2 RES2   0.0000
    72 C38     -9.6607   8.6878   7.6774   C.ar      2 RES2   0.0000
    73 H32    -10.2947   9.3517   7.9171   H         2 RES2   0.0000
    74 C39     -9.0370   7.9462   8.6595   C.ar      2 RES2   0.0000
    75 H33     -9.2520   8.0997   9.5726   H         2 RES2   0.0000
    76 N2      -2.2756   2.8782  14.3009   N.2       2 RES2   0.0000
    77 N3      -1.6493   2.1899  15.3174   N.pl3     2 RES2   0.0000
    78 N4      -3.1324   0.5888  14.7643   N.ar      2 RES2   0.0000
    79 N5      -4.7448  -0.7511  13.9477   N.pl3     2 RES2   0.0000
    80 N6      -4.9842   0.3301  13.1213   N.2       2 RES2   0.0000
    81 N7      -2.6953   1.3982  11.8814   N.2       2 RES2   0.0000
    82 N8      -3.0453   2.1631  10.7824   N.pl3     2 RES2   0.0000
    83 N9      -4.5148   3.0656  12.2288   N.ar      2 RES2   0.0000
    84 N10     -5.8723   3.6804  13.9174   N.pl3     2 RES2   0.0000
    85 N11     -5.1136   2.7600  14.6239   N.2       2 RES2   0.0000
    86 Fe1     -3.7735   1.8519  13.4920   Fe        2 RES2   2.0000
    87 C40     -4.1213   7.1268  15.4195   C.3       3 RES3   0.0000
    88 H34     -4.1445   8.0889  15.2305   H         3 RES3   0.0000
    89 H35     -4.9414   6.8665  15.8885   H         3 RES3   0.0000
    90 H36     -4.0538   6.6304  14.5777   H         3 RES3   0.0000
    91 N12     -2.9705   6.8262  16.2532   N.pl3     3 RES3   0.0000
    92 O3      -2.0860   7.6271  16.3601   O.2       3 RES3   0.0000
    93 O4      -2.9289   5.7554  16.8265   O.2       3 RES3   0.0000
    94 C41     -0.3040   7.7068  13.8724   C.3       4 RES4   0.0000
    95 H37     -1.0150   7.0406  13.7692   H         4 RES4   0.0000
    96 H38     -0.6829   8.6063  13.7797   H         4 RES4   0.0000
    97 H39      0.1049   7.6146  14.7580   H         4 RES4   0.0000
    98 N13      0.7167   7.4970  12.8387   N.pl3     4 RES4   0.0000
    99 O5       0.9970   8.4487  12.1235   O.2       4 RES4   0.0000
   100 O6       1.2191   6.4080  12.7472   O.2       4 RES4   0.0000
   101 C42     -6.4246   8.7982  11.8232   C.3       5 RES5   0.0000
   102 H40     -6.6749   8.5435  12.7367   H         5 RES5   0.0000
   103 H41     -5.8850   8.0860  11.4224   H         5 RES5   0.0000
   104 H42     -7.2341   8.9358  11.2894   H         5 RES5   0.0000
   105 N14     -5.6523  10.0298  11.8590   N.pl3     5 RES5   0.0000
   106 O7      -5.1391  10.4314  10.8276   O.2       5 RES5   0.0000
   107 O8      -5.5213  10.6125  12.9115   O.2       5 RES5   0.0000
   108 B1      -3.0250   7.1677  11.6079   B         6 RES6  -1.0000
   109 F1      -3.1593   8.2812  12.4038   F         6 RES6   0.0000
   110 F2      -1.7376   7.0785  11.1410   F         6 RES6   0.0000
   111 F3      -3.9003   7.2296  10.5367   F         6 RES6   0.0000
   112 F4      -3.2991   6.0541  12.3770   F         6 RES6   0.0000
   113 B2       0.2801   3.1710   1.6275   B         7 RES7  -1.0000
   114 F5      -0.4652   3.5025   2.7549   F         7 RES7   0.0000
   115 F6      -0.5741   2.8829   0.5677   F         7 RES7   0.0000
   116 F7       1.0343   2.0408   1.9191   F         7 RES7   0.0000
   117 F8       1.1051   4.2236   1.2859   F         7 RES7   0.0000
@<TRIPOS>BOND
     1     1     2    1
     2     3     1    1
     3     4     1    1
     4     5     7    2
     5     6     7    2
     6     7     1    1
     7     8     9    1
     8    10     8    1
     9    11    10    1
    10    12    10    2
    11    13    12    1
    12    14    15   ar
    13    15    16    1
    14    17    15   ar
    15    18    17   ar
    16    19    18    1
    17    20    18   ar
    18    21    22    1
    19    23    21    2
    20    24    23    1
    21    25    23    1
    22    26    25    1
    23    27    17    1
    24    28    27    1
    25    29    27    2
    26    30    29    1
    27    31    29    1
    28    32    31   ar
    29    33    32    1
    30    34    32   ar
    31    35    34    1
    32    36    34   ar
    33    37    36    1
    34    38    36   ar
    35    39    38    1
    36    40    31   ar
    37    41    40    1
    38    42    43    1
    39    44    42    1
    40    45    44    1
    41    46    44    2
    42    47    46    1
    43    48    49   ar
    44    49    50    1
    45    51    49   ar
    46    52    51   ar
    47    53    52    1
    48    54    52   ar
    49    55    56    1
    50    57    55    2
    51    58    57    1
    52    59    57    1
    53    60    59    1
    54    61    51    1
    55    62    61    1
    56    63    61    2
    57    64    63    1
    58    65    63    1
    59    66    65   ar
    60    67    66    1
    61    68    66   ar
    62    69    68    1
    63    70    68   ar
    64    71    70    1
    65    72    70   ar
    66    73    72    1
    67    74    65   ar
    68    75    74    1
    69    76     8    2
    70    77    12    1
    71    78    14   ar
    72    79    20    1
    73    80    25    2
    74    81    42    2
    75    82    46    1
    76    83    48   ar
    77    84    54    1
    78    85    59    2
    79    86    76    1
    80    14    77    1
    81    20    78   ar
    82    21    79    1
    83    38    40   ar
    84    48    82    1
    85    54    83   ar
    86    55    84    1
    87    72    74   ar
    88    76    77    1
    89    78    86    1
    90    79    80    1
    91    80    86    1
    92    81    82    1
    93    81    86    1
    94    83    86    1
    95    84    85    1
    96    85    86    1
    97    87    88    1
    98    89    87    1
    99    90    87    1
   100    91    87    1
   101    92    91    2
   102    93    91    2
   103    94    95    1
   104    96    94    1
   105    97    94    1
   106    98    94    1
   107    99    98    2
   108   100    98    2
   109   101   102    1
   110   103   101    1
   111   104   101    1
   112   105   101    1
   113   106   105    2
   114   107   105    2
   115   108   109    1
   116   110   108    1
   117   111   108    1
   118   112   108    1
   119   113   114    1
   120   115   113    1
   121   116   113    1
   122   117   113    1
@<TRIPOS>SUBSTRUCTURE
     1 RES1        1 GROUP             0 ****  ****    0  
     2 RES2        8 GROUP             0 ****  ****    0  
     3 RES3       87 GROUP             0 ****  ****    0  
     4 RES4       94 GROUP             0 ****  ****    0  
     5 RES5      101 GROUP             0 ****  ****    0  
     6 RES6      108 GROUP             0 ****  ****    0  
     7 RES7      113 GROUP             0 ****  ****    0  
@<TRIPOS>CRYSIN
   10.5952   13.5408   18.1381   93.8540  103.2850  104.2340     2     1
