@<TRIPOS>MOLECULE
REVCUS01
   117   122     7     0     0
SMALL
USER_CHARGES
****
Generated from the CSD

@<TRIPOS>ATOM
     1 C1      -2.0869  10.3057  10.5848   C.3       1 RES1   0.0000
     2 H1      -1.2076   9.9537  10.7937   H         1 RES1   0.0000
     3 H2      -2.6639   9.5819  10.2927   H         1 RES1   0.0000
     4 H3      -2.4651  10.7202  11.3763   H         1 RES1   0.0000
     5 O1      -0.9545  11.9662   9.5242   O.2       1 RES1   0.0000
     6 O2      -2.3531  10.9393   8.4176   O.2       1 RES1   0.0000
     7 N1      -1.9813  11.2404   9.5826   N.pl3     1 RES1   0.0000
     8 C2      -1.5231   4.0047  14.4696   C.2       2 RES2   0.0000
     9 H4      -1.6944   4.6937  13.8534   H         2 RES2   0.0000
    10 C3      -0.5374   4.0516  15.4576   C.2       2 RES2   0.0000
    11 H5       0.0566   4.7596  15.6275   H         2 RES2   0.0000
    12 C4      -0.6086   2.8617  16.1286   C.2       2 RES2   0.0000
    13 H6      -0.0724   2.5917  16.8528   H         2 RES2   0.0000
    14 C5      -2.0716   0.8469  15.7940   C.ar      2 RES2   0.0000
    15 C6      -1.5437  -0.0315  16.6988   C.ar      2 RES2   0.0000
    16 H7      -0.8147   0.2135  17.2406   H         2 RES2   0.0000
    17 C7      -2.1158  -1.3042  16.7997   C.ar      2 RES2   0.0000
    18 C8      -3.2030  -1.6219  15.9852   C.ar      2 RES2   0.0000
    19 H8      -3.6192  -2.4622  16.0401   H         2 RES2   0.0000
    20 C9      -3.6458  -0.6699  15.1034   C.ar      2 RES2   0.0000
    21 C10     -5.4383  -1.9264  13.8835   C.2       2 RES2   0.0000
    22 H9      -5.4212  -2.7573  14.3226   H         2 RES2   0.0000
    23 C11     -6.2097  -1.5875  12.8229   C.2       2 RES2   0.0000
    24 H10     -6.8357  -2.1350  12.3838   H         2 RES2   0.0000
    25 C12     -5.8953  -0.2677  12.5130   C.2       2 RES2   0.0000
    26 H11     -6.2853   0.2223  11.8118   H         2 RES2   0.0000
    27 C13     -1.6086  -2.3306  17.7257   C.2       2 RES2   0.0000
    28 H12     -2.0569  -3.1566  17.7523   H         2 RES2   0.0000
    29 C14     -0.5664  -2.1695  18.5261   C.2       2 RES2   0.0000
    30 H13     -0.1301  -1.3383  18.4800   H         2 RES2   0.0000
    31 C15     -0.0150  -3.1408  19.4751   C.ar      2 RES2   0.0000
    32 C16      0.9910  -2.7335  20.3321   C.ar      2 RES2   0.0000
    33 H14      1.2980  -1.8463  20.2914   H         2 RES2   0.0000
    34 C17      1.5499  -3.5961  21.2369   C.ar      2 RES2   0.0000
    35 H15      2.2265  -3.2939  21.8159   H         2 RES2   0.0000
    36 C18      1.1260  -4.9082  21.3059   C.ar      2 RES2   0.0000
    37 H16      1.5188  -5.5065  21.9150   H         2 RES2   0.0000
    38 C19      0.1261  -5.3224  20.4720   C.ar      2 RES2   0.0000
    39 H17     -0.1784  -6.2098  20.5233   H         2 RES2   0.0000
    40 C20     -0.4409  -4.4676  19.5654   C.ar      2 RES2   0.0000
    41 H18     -1.1240  -4.7764  18.9970   H         2 RES2   0.0000
    42 C21     -1.8159   0.6770  11.3621   C.2       2 RES2   0.0000
    43 H19     -1.3397   0.0322  11.8526   H         2 RES2   0.0000
    44 C22     -1.6459   0.9043   9.9828   C.2       2 RES2   0.0000
    45 H20     -1.0561   0.4613   9.4003   H         2 RES2   0.0000
    46 C23     -2.5076   1.8926   9.6729   C.2       2 RES2   0.0000
    47 H21     -2.6409   2.2674   8.8230   H         2 RES2   0.0000
    48 C24     -4.2020   3.1457  11.0505   C.ar      2 RES2   0.0000
    49 C25     -4.7835   3.9317  10.0749   C.ar      2 RES2   0.0000
    50 H22     -4.4679   3.9216   9.1896   H         2 RES2   0.0000
    51 C26     -5.8480   4.7372  10.4485   C.ar      2 RES2   0.0000
    52 C27     -6.2815   4.7314  11.7800   C.ar      2 RES2   0.0000
    53 H23     -6.9971   5.2733  12.0597   H         2 RES2   0.0000
    54 C28     -5.6209   3.9026  12.6688   C.ar      2 RES2   0.0000
    55 C29     -6.8685   4.3571  14.8148   C.2       2 RES2   0.0000
    56 H24     -7.4937   5.0037  14.5439   H         2 RES2   0.0000
    57 C30     -6.7199   3.8535  16.0560   C.2       2 RES2   0.0000
    58 H25     -7.2234   4.0832  16.8156   H         2 RES2   0.0000
    59 C31     -5.6653   2.9153  16.0011   C.2       2 RES2   0.0000
    60 H26     -5.3471   2.4125  16.7289   H         2 RES2   0.0000
    61 C32     -6.4953   5.5290   9.3772   C.2       2 RES2   0.0000
    62 H27     -6.1247   5.4750   8.5149   H         2 RES2   0.0000
    63 C33     -7.5407   6.2965   9.5366   C.2       2 RES2   0.0000
    64 H28     -7.9078   6.3703  10.3989   H         2 RES2   0.0000
    65 C34     -8.1845   7.0590   8.4370   C.ar      2 RES2   0.0000
    66 C35     -7.9095   6.8700   7.0807   C.ar      2 RES2   0.0000
    67 H29     -7.2748   6.2281   6.8187   H         2 RES2   0.0000
    68 C36     -8.5627   7.6220   6.1122   C.ar      2 RES2   0.0000
    69 H30     -8.3769   7.4886   5.2003   H         2 RES2   0.0000
    70 C37     -9.4821   8.5601   6.5017   C.ar      2 RES2   0.0000
    71 H31     -9.9261   9.0763   5.8537   H         2 RES2   0.0000
    72 C38     -9.7599   8.7504   7.8279   C.ar      2 RES2   0.0000
    73 H32    -10.3887   9.3996   8.0847   H         2 RES2   0.0000
    74 C39     -9.1248   7.9980   8.7894   C.ar      2 RES2   0.0000
    75 H33     -9.3349   8.1281   9.6959   H         2 RES2   0.0000
    76 N2      -2.1854   2.8547  14.5206   N.2       2 RES2   0.0000
    77 N3      -1.5996   2.1519  15.5466   N.pl3     2 RES2   0.0000
    78 N4      -3.0910   0.5380  14.9832   N.ar      2 RES2   0.0000
    79 N5      -4.6960  -0.8393  14.1840   N.pl3     2 RES2   0.0000
    80 N6      -4.9723   0.2036  13.3337   N.2       2 RES2   0.0000
    81 N7      -2.7334   1.4844  11.8844   N.2       2 RES2   0.0000
    82 N8      -3.1518   2.2488  10.8203   N.pl3     2 RES2   0.0000
    83 N9      -4.6048   3.1213  12.3218   N.ar      2 RES2   0.0000
    84 N10     -5.9380   3.7448  14.0322   N.pl3     2 RES2   0.0000
    85 N11     -5.1944   2.8524  14.7610   N.2       2 RES2   0.0000
    86 Fe1     -3.7671   1.8603  13.6354   Fe        2 RES2   2.0000
    87 C40     -4.1948   7.1808  15.4770   C.3       3 RES3   0.0000
    88 H34     -4.3222   8.1423  15.4345   H         3 RES3   0.0000
    89 H35     -5.0073   6.7610  15.8011   H         3 RES3   0.0000
    90 H36     -3.9877   6.8435  14.5900   H         3 RES3   0.0000
    91 N12     -3.0995   6.8759  16.3783   N.pl3     3 RES3   0.0000
    92 O3      -2.2219   7.6445  16.5288   O.2       3 RES3   0.0000
    93 O4      -3.1128   5.8119  16.9750   O.2       3 RES3   0.0000
    94 C41     -0.2761   7.7264  14.0765   C.3       4 RES4   0.0000
    95 H37     -0.8243   6.9409  14.2376   H         4 RES4   0.0000
    96 H38     -0.8367   8.4527  13.7613   H         4 RES4   0.0000
    97 H39      0.1606   7.9886  14.9016   H         4 RES4   0.0000
    98 N13      0.7363   7.4158  13.0655   N.pl3     4 RES4   0.0000
    99 O5       1.1149   8.3104  12.3501   O.2       4 RES4   0.0000
   100 O6       1.1502   6.2881  13.0265   O.2       4 RES4   0.0000
   101 C42     -6.3835   8.7946  12.0491   C.3       5 RES5   0.0000
   102 H40     -6.7991   8.6297  12.9096   H         5 RES5   0.0000
   103 H41     -5.7418   8.0905  11.8597   H         5 RES5   0.0000
   104 H42     -7.0632   8.8056  11.3568   H         5 RES5   0.0000
   105 N14     -5.7029  10.0703  12.0774   N.pl3     5 RES5   0.0000
   106 O7      -5.2298  10.5043  11.0469   O.2       5 RES5   0.0000
   107 O8      -5.5468  10.6169  13.1009   O.2       5 RES5   0.0000
   108 B1      -2.9409   7.1696  11.7127   B         6 RES6  -1.0000
   109 F1      -3.0937   8.2727  12.5183   F         6 RES6   0.0000
   110 F2      -1.6823   7.1465  11.2311   F         6 RES6   0.0000
   111 F3      -3.8515   7.1963  10.6870   F         6 RES6   0.0000
   112 F4      -3.1601   6.0695  12.4847   F         6 RES6   0.0000
   113 B2       0.2509   3.2174   1.5422   B         7 RES7  -1.0000
   114 F5      -0.4056   3.5379   2.7099   F         7 RES7   0.0000
   115 F6      -0.6602   2.9517   0.5413   F         7 RES7   0.0000
   116 F7       0.9983   2.0818   1.7556   F         7 RES7   0.0000
   117 F8       1.0541   4.2532   1.1615   F         7 RES7   0.0000
@<TRIPOS>BOND
     1     1     2    1
     2     3     1    1
     3     4     1    1
     4     5     7    2
     5     6     7    2
     6     7     1    1
     7     8     9    1
     8    10     8    1
     9    11    10    1
    10    12    10    2
    11    13    12    1
    12    14    15   ar
    13    15    16    1
    14    17    15   ar
    15    18    17   ar
    16    19    18    1
    17    20    18   ar
    18    21    22    1
    19    23    21    2
    20    24    23    1
    21    25    23    1
    22    26    25    1
    23    27    17    1
    24    28    27    1
    25    29    27    2
    26    30    29    1
    27    31    29    1
    28    32    31   ar
    29    33    32    1
    30    34    32   ar
    31    35    34    1
    32    36    34   ar
    33    37    36    1
    34    38    36   ar
    35    39    38    1
    36    40    31   ar
    37    41    40    1
    38    42    43    1
    39    44    42    1
    40    45    44    1
    41    46    44    2
    42    47    46    1
    43    48    49   ar
    44    49    50    1
    45    51    49   ar
    46    52    51   ar
    47    53    52    1
    48    54    52   ar
    49    55    56    1
    50    57    55    2
    51    58    57    1
    52    59    57    1
    53    60    59    1
    54    61    51    1
    55    62    61    1
    56    63    61    2
    57    64    63    1
    58    65    63    1
    59    66    65   ar
    60    67    66    1
    61    68    66   ar
    62    69    68    1
    63    70    68   ar
    64    71    70    1
    65    72    70   ar
    66    73    72    1
    67    74    65   ar
    68    75    74    1
    69    76     8    2
    70    77    12    1
    71    78    14   ar
    72    79    20    1
    73    80    25    2
    74    81    42    2
    75    82    46    1
    76    83    48   ar
    77    84    54    1
    78    85    59    2
    79    86    76    1
    80    14    77    1
    81    20    78   ar
    82    21    79    1
    83    38    40   ar
    84    48    82    1
    85    54    83   ar
    86    55    84    1
    87    72    74   ar
    88    76    77    1
    89    78    86    1
    90    79    80    1
    91    80    86    1
    92    81    82    1
    93    81    86    1
    94    83    86    1
    95    84    85    1
    96    85    86    1
    97    87    88    1
    98    89    87    1
    99    90    87    1
   100    91    87    1
   101    92    91    2
   102    93    91    2
   103    94    95    1
   104    96    94    1
   105    97    94    1
   106    98    94    1
   107    99    98    2
   108   100    98    2
   109   101   102    1
   110   103   101    1
   111   104   101    1
   112   105   101    1
   113   106   105    2
   114   107   105    2
   115   108   109    1
   116   110   108    1
   117   111   108    1
   118   112   108    1
   119   113   114    1
   120   115   113    1
   121   116   113    1
   122   117   113    1
@<TRIPOS>SUBSTRUCTURE
     1 RES1        1 GROUP             0 ****  ****    0  
     2 RES2        8 GROUP             0 ****  ****    0  
     3 RES3       87 GROUP             0 ****  ****    0  
     4 RES4       94 GROUP             0 ****  ****    0  
     5 RES5      101 GROUP             0 ****  ****    0  
     6 RES6      108 GROUP             0 ****  ****    0  
     7 RES7      113 GROUP             0 ****  ****    0  
@<TRIPOS>CRYSIN
   10.6068   13.6322   18.3441   93.7130  103.2480  104.4130     2     1
