@<TRIPOS>MOLECULE
RIDGUJ01
   113   116     2     0     0
SMALL
USER_CHARGES
****
Generated from the CSD

@<TRIPOS>ATOM
     1 Fe1     10.0328   3.8588   4.1912   Fe        1 RES1   0.0000
     2 S1      13.1847   6.2362   1.8617   S.2       1 RES1   0.0000
     3 S2      14.3364   3.9359   6.4417   S.2       1 RES1   0.0000
     4 S3       7.2832   5.9748   7.4088   S.2       1 RES1   0.0000
     5 N1      11.8723   3.8026   5.1904   N.2       1 RES1  -1.0000
     6 N2       9.1066   5.2967   5.4585   N.2       1 RES1   0.0000
     7 C1      10.2418   0.0496   1.7676   C.ar      1 RES1   0.0000
     8 H1       9.6751  -0.6647   1.5830   H         1 RES1   0.0000
     9 C2      11.4964   0.1508   1.1623   C.ar      1 RES1   0.0000
    10 H2      11.7863  -0.5158   0.5828   H         1 RES1   0.0000
    11 C3      12.3019   1.2292   1.4224   C.ar      1 RES1   0.0000
    12 H3      13.1290   1.3129   1.0066   H         1 RES1   0.0000
    13 C4      11.8656   2.1753   2.2990   C.ar      1 RES1   0.0000
    14 H4      12.4203   2.8979   2.4884   H         1 RES1   0.0000
    15 C5       8.4868   1.0757   3.3393   C.3       1 RES1   0.0000
    16 C6       7.6489  -0.1820   3.0247   C.3       1 RES1   0.0000
    17 H5       7.5414  -0.2519   2.0630   H         1 RES1   0.0000
    18 H6       8.1403  -0.9645   3.3233   H         1 RES1   0.0000
    19 C7       6.2579  -0.1977   3.6749   C.3       1 RES1   0.0000
    20 H7       6.3408   0.1103   4.5916   H         1 RES1   0.0000
    21 H8       5.6866   0.4312   3.2045   H         1 RES1   0.0000
    22 C8       5.6010  -1.5262   3.6765   C.3       1 RES1   0.0000
    23 H9       6.1702  -2.1569   4.1436   H         1 RES1   0.0000
    24 H10      5.5130  -1.8324   2.7598   H         1 RES1   0.0000
    25 C9       4.2424  -1.5280   4.3235   C.3       1 RES1   0.0000
    26 H11      3.6807  -0.8973   3.8482   H         1 RES1   0.0000
    27 H12      3.8531  -2.4088   4.2063   H         1 RES1   0.0000
    28 C10      4.1980  -1.1906   5.7748   C.3       1 RES1   0.0000
    29 H13      4.4920  -0.2721   5.8791   H         1 RES1   0.0000
    30 H14      4.8384  -1.7533   6.2355   H         1 RES1   0.0000
    31 C11      2.8610  -1.3377   6.4667   C.3       1 RES1   0.0000
    32 H15      2.2252  -0.7594   6.0156   H         1 RES1   0.0000
    33 H16      2.5571  -2.2507   6.3383   H         1 RES1   0.0000
    34 C12      2.8016  -1.0398   7.9068   C.3       1 RES1   0.0000
    35 H17      3.0979  -0.1260   8.0336   H         1 RES1   0.0000
    36 H18      3.4420  -1.6145   8.3547   H         1 RES1   0.0000
    37 C13      1.4840  -1.1915   8.6068   C.3       1 RES1   0.0000
    38 H19      0.8553  -0.5893   8.1781   H         1 RES1   0.0000
    39 H20      1.1701  -2.0935   8.4430   H         1 RES1   0.0000
    40 C14      1.4051  -0.9580  10.0260   C.3       1 RES1   0.0000
    41 H21      1.6885  -0.0441  10.1897   H         1 RES1   0.0000
    42 H22      2.0521  -1.5372  10.4546   H         1 RES1   0.0000
    43 C15      0.1030  -1.1529  10.7179   C.3       1 RES1   0.0000
    44 H23     -0.5409  -0.5673  10.2861   H         1 RES1   0.0000
    45 H24     -0.1831  -2.0622  10.5365   H         1 RES1   0.0000
    46 C16     -0.0216  -0.9451  12.1339   C.3       1 RES1   0.0000
    47 H25      0.2462  -0.0303  12.3121   H         1 RES1   0.0000
    48 H26      0.6314  -1.5179  12.5642   H         1 RES1   0.0000
    49 C17     -1.2869  -1.1584  12.8130   C.3       1 RES1   0.0000
    50 H27     -1.9425  -0.6013  12.3651   H         1 RES1   0.0000
    51 H28     -1.5427  -2.0788  12.6477   H         1 RES1   0.0000
    52 C18     -1.4420  -0.9295  14.2338   C.3       1 RES1   0.0000
    53 H29     -1.1861  -0.0083  14.3976   H         1 RES1   0.0000
    54 H30     -0.7802  -1.4830  14.6786   H         1 RES1   0.0000
    55 C19     -2.7139  -1.1456  14.9338   C.3       1 RES1   0.0000
    56 H31     -3.3700  -0.5709  14.5084   H         1 RES1   0.0000
    57 H32     -2.9846  -2.0595  14.7508   H         1 RES1   0.0000
    58 C20     -2.8444  -0.9507  16.3450   C.3       1 RES1   0.0000
    59 H33     -2.5614  -0.0395  16.5248   H         1 RES1   0.0000
    60 H34     -2.1881  -1.5299  16.7656   H         1 RES1   0.0000
    61 C21     -4.0829  -1.1465  17.0562   C.3       1 RES1   0.0000
    62 H35     -4.7303  -0.5507  16.6484   H         1 RES1   0.0000
    63 H36     -4.3746  -2.0493  16.8555   H         1 RES1   0.0000
    64 C22     -4.2100  -0.9847  18.4513   C.3       1 RES1   0.0000
    65 H37     -3.9642  -0.0699  18.6568   H         1 RES1   0.0000
    66 H38     -3.5476  -1.5565  18.8688   H         1 RES1   0.0000
    67 C23     -5.4780  -1.2476  19.1112   C.3       1 RES1   0.0000
    68 H39     -5.3881  -1.0886  20.0536   H         1 RES1   0.0000
    69 H40     -6.1538  -0.6656  18.7516   H         1 RES1   0.0000
    70 H41     -5.7342  -2.1615  18.9635   H         1 RES1   0.0000
    71 C24     11.7426   5.6148   2.3584   C.1       1 RES1   0.0000
    72 C25     12.9047   3.8560   5.6961   C.1       1 RES1   0.0000
    73 C26      8.3466   5.5679   6.2644   C.1       1 RES1   0.0000
    74 N3       9.2454   2.2608   5.4023   N.ar      1 RES1   0.0000
    75 N4       8.1874   3.5388   3.1162   N.ar      1 RES1   0.0000
    76 N5      10.6688   2.1073   2.9010   N.ar      1 RES1   0.0000
    77 N6      10.7405   5.2387   2.7260   N.2       1 RES1   0.0000
    78 C27      8.7739   1.1309   4.8693   C.ar      1 RES1   0.0000
    79 C28      8.6476   0.0000   5.6640   C.ar      1 RES1   0.0000
    80 H42      8.3457  -0.7980   5.2947   H         1 RES1   0.0000
    81 C29      8.9746   0.0662   7.0094   C.ar      1 RES1   0.0000
    82 H43      8.9083  -0.6895   7.5472   H         1 RES1   0.0000
    83 C30      9.3970   1.2485   7.5359   C.ar      1 RES1   0.0000
    84 H44      9.5942   1.3239   8.4414   H         1 RES1   0.0000
    85 C31      9.5199   2.3013   6.7188   C.ar      1 RES1   0.0000
    86 H45      9.8121   3.1067   7.0816   H         1 RES1   0.0000
    87 C32      7.7692   2.3288   2.7357   C.ar      1 RES1   0.0000
    88 C33      6.8316   2.2204   1.7226   C.ar      1 RES1   0.0000
    89 H46      6.5694   1.3782   1.4256   H         1 RES1   0.0000
    90 C34      6.2880   3.3365   1.1543   C.ar      1 RES1   0.0000
    91 H47      5.6589   3.2593   0.4752   H         1 RES1   0.0000
    92 C35      6.6808   4.5703   1.5958   C.ar      1 RES1   0.0000
    93 H48      6.3109   5.3463   1.2394   H         1 RES1   0.0000
    94 C36      7.6337   4.6292   2.5767   C.ar      1 RES1   0.0000
    95 H49      7.9086   5.4640   2.8802   H         1 RES1   0.0000
    96 C37      9.8651   1.0564   2.6586   C.ar      1 RES1   0.0000
    97 N7      13.3335   8.4383   5.6624   N.4       2 RES2   1.0000
    98 C38     14.5178   7.7450   6.0300   C.3       2 RES2   0.0000
    99 H50     14.3810   7.3028   6.8713   H         2 RES2   0.0000
   100 H51     14.7304   7.0941   5.3574   H         2 RES2   0.0000
   101 H52     15.2423   8.3693   6.1103   H         2 RES2   0.0000
   102 C39     12.2339   7.4867   5.6784   C.3       2 RES2   0.0000
   103 H53     12.1882   7.0656   6.5390   H         2 RES2   0.0000
   104 H54     11.4108   7.9473   5.5018   H         2 RES2   0.0000
   105 H55     12.3794   6.8192   5.0026   H         2 RES2   0.0000
   106 C40     13.4776   9.1076   4.4310   C.3       2 RES2   0.0000
   107 H56     12.6614   9.5627   4.2159   H         2 RES2   0.0000
   108 H57     14.1933   9.7456   4.4952   H         2 RES2   0.0000
   109 H58     13.6814   8.4704   3.7423   H         2 RES2   0.0000
   110 C41     13.1045   9.5029   6.6401   C.3       2 RES2   0.0000
   111 H59     12.9945   9.1177   7.5135   H         2 RES2   0.0000
   112 H60     13.8579  10.0996   6.6465   H         2 RES2   0.0000
   113 H61     12.3131   9.9893   6.4041   H         2 RES2   0.0000
@<TRIPOS>BOND
     1     1     5    1
     2     2    71    2
     3     3    72    2
     4     4    73    2
     5     5    72    2
     6     6     1    1
     7     7     8    1
     8     9     7   ar
     9    10     9    1
    10    11     9   ar
    11    12    11    1
    12    13    11   ar
    13    14    13    1
    14    15    16    1
    15    16    17    1
    16    18    16    1
    17    19    16    1
    18    20    19    1
    19    21    19    1
    20    22    19    1
    21    23    22    1
    22    24    22    1
    23    25    22    1
    24    26    25    1
    25    27    25    1
    26    28    25    1
    27    29    28    1
    28    30    28    1
    29    31    28    1
    30    32    31    1
    31    33    31    1
    32    34    31    1
    33    35    34    1
    34    36    34    1
    35    37    34    1
    36    38    37    1
    37    39    37    1
    38    40    37    1
    39    41    40    1
    40    42    40    1
    41    43    40    1
    42    44    43    1
    43    45    43    1
    44    46    43    1
    45    47    46    1
    46    48    46    1
    47    49    46    1
    48    50    49    1
    49    51    49    1
    50    52    49    1
    51    53    52    1
    52    54    52    1
    53    55    52    1
    54    56    55    1
    55    57    55    1
    56    58    55    1
    57    59    58    1
    58    60    58    1
    59    61    58    1
    60    62    61    1
    61    63    61    1
    62    64    61    1
    63    65    64    1
    64    66    64    1
    65    67    64    1
    66    68    67    1
    67    69    67    1
    68    70    67    1
    69    71    77    2
    70    73     6    2
    71    74     1    1
    72    75     1    1
    73    76     1    1
    74    77     1    1
    75    78    15    1
    76    79    78   ar
    77    80    79    1
    78    81    79   ar
    79    82    81    1
    80    83    81   ar
    81    84    83    1
    82    85    74   ar
    83    86    85    1
    84    87    15    1
    85    88    87   ar
    86    89    88    1
    87    90    88   ar
    88    91    90    1
    89    92    90   ar
    90    93    92    1
    91    94    75   ar
    92    95    94    1
    93    96     7   ar
    94    13    76   ar
    95    15    96    1
    96    74    78   ar
    97    75    87   ar
    98    76    96   ar
    99    83    85   ar
   100    92    94   ar
   101    97    98    1
   102    98    99    1
   103   100    98    1
   104   101    98    1
   105   102    97    1
   106   103   102    1
   107   104   102    1
   108   105   102    1
   109   106    97    1
   110   107   106    1
   111   108   106    1
   112   109   106    1
   113   110    97    1
   114   111   110    1
   115   112   110    1
   116   113   110    1
@<TRIPOS>SUBSTRUCTURE
     1 RES1        1 GROUP             0 ****  ****    0  
     2 RES2       97 GROUP             0 ****  ****    0  
@<TRIPOS>CRYSIN
   30.5110    9.1940   16.0580   90.0000   91.2110   90.0000    14     1
