@<TRIPOS>MOLECULE
RIPFEB
   140   151     3     0     0
SMALL
USER_CHARGES
****
Generated from the CSD

@<TRIPOS>ATOM
     1 B1      -2.4594  11.7280   3.6935   B         1 RES1  -1.0000
     2 C43     -2.8992  10.8128   5.0040   C.ar      1 RES1   0.0000
     3 C44     -4.2103  10.3360   5.0425   C.ar      1 RES1   0.0000
     4 C45     -4.6416   9.5685   6.1260   C.ar      1 RES1   0.0000
     5 C46     -3.7619   9.2792   7.1697   C.ar      1 RES1   0.0000
     6 C47     -2.4504   9.7561   7.1300   C.ar      1 RES1   0.0000
     7 C48     -2.0212  10.5235   6.0478   C.ar      1 RES1   0.0000
     8 C49     -0.9710  12.5248   4.0447   C.ar      1 RES1   0.0000
     9 C50     -0.9640  13.7008   4.7955   C.ar      1 RES1   0.0000
    10 C51      0.2460  14.2555   5.2125   C.ar      1 RES1   0.0000
    11 C52      1.4491  13.6328   4.8799   C.ar      1 RES1   0.0000
    12 C53      1.4422  12.4568   4.1291   C.ar      1 RES1   0.0000
    13 C54      0.2317  11.9034   3.7121   C.ar      1 RES1   0.0000
    14 C55     -2.2615  10.8451   2.2955   C.ar      1 RES1   0.0000
    15 C56     -1.6354  11.4041   1.1815   C.ar      1 RES1   0.0000
    16 C57     -1.5710  10.6899  -0.0149   C.ar      1 RES1   0.0000
    17 C58     -2.1330   9.4162  -0.0980   C.ar      1 RES1   0.0000
    18 C59     -2.7594   8.8566   1.0152   C.ar      1 RES1   0.0000
    19 C60     -2.8256   9.5708   2.2116   C.ar      1 RES1   0.0000
    20 C61     -3.6864  12.9078   3.4514   C.ar      1 RES1   0.0000
    21 C62     -4.0499  13.3069   2.1657   C.ar      1 RES1   0.0000
    22 C63     -5.0403  14.2726   1.9882   C.ar      1 RES1   0.0000
    23 C64     -5.6660  14.8405   3.0977   C.ar      1 RES1   0.0000
    24 C65     -5.3029  14.4427   4.3835   C.ar      1 RES1   0.0000
    25 C66     -4.3126  13.4770   4.5610   C.ar      1 RES1   0.0000
    26 H45     -4.8805  10.5580   4.2321   H         1 RES1   0.0000
    27 H46     -5.6499   9.2067   6.1558   H         1 RES1   0.0000
    28 H47     -4.0860   8.6833   8.0050   H         1 RES1   0.0000
    29 H48     -1.7822   9.5381   7.9429   H         1 RES1   0.0000
    30 H49     -1.0128  10.8894   6.0192   H         1 RES1   0.0000
    31 H50      0.2189  10.9942   3.1275   H         1 RES1   0.0000
    32 H52     -1.8910  14.1848   5.0512   H         1 RES1   0.0000
    33 H53      0.2574  15.1704   5.7958   H         1 RES1   0.0000
    34 H54      2.3903  14.0615   5.2001   H         1 RES1   0.0000
    35 H55     -1.2021  12.3844   1.2411   H         1 RES1   0.0000
    36 H56     -1.0887  11.1183  -0.8812   H         1 RES1   0.0000
    37 H57     -2.0825   8.8592  -1.0301   H         1 RES1   0.0000
    38 H58     -3.1928   7.8652   0.9556   H         1 RES1   0.0000
    39 H59     -3.3061   9.1313   3.0779   H         1 RES1   0.0000
    40 H60     -3.5565  12.8670   1.3031   H         1 RES1   0.0000
    41 H61     -5.3142  14.5775   0.9929   H         1 RES1   0.0000
    42 H62     -6.4354  15.5907   2.9662   H         1 RES1   0.0000
    43 H63     -5.7916  14.8805   5.2374   H         1 RES1   0.0000
    44 H64     -4.0369  13.1690   5.5600   H         1 RES1   0.0000
    45 O1       0.0668   6.1035   2.7850   O.3       2 RES2   0.0000
    46 C67      0.3667   7.3423   2.9389   C.3       2 RES2   0.0000
    47 C68     -0.0270   7.7699   4.2706   C.3       2 RES2   0.0000
    48 C69     -0.7909   6.6219   4.9184   C.3       2 RES2   0.0000
    49 C70     -0.8089   5.6781   3.7009   C.3       2 RES2   0.0000
    50 Fe1      4.2965   4.2657   0.5635   Fe        3 RES3   0.0000
    51 H1       5.4252   5.2741   0.0769   H         3 RES3   0.0000
    52 H2       3.1480   5.3702   0.7608   H         3 RES3   0.0000
    53 P1       4.7213   4.7340   2.6795   P.3       3 RES3   0.0000
    54 P2       3.0934   4.3637  -1.2969   P.3       3 RES3   0.0000
    55 P3       5.4952   2.4159   0.2792   P.3       3 RES3   0.0000
    56 P4       2.7227   3.0077   1.3155   P.3       3 RES3   0.0000
    57 C1       3.5947   3.7303   3.7543   C.3       3 RES3   0.0000
    58 C2       2.2846   3.4432   3.0208   C.3       3 RES3   0.0000
    59 C3       1.7066   3.1450  -1.1790   C.3       3 RES3   0.0000
    60 C4       1.2356   3.1204   0.2854   C.3       3 RES3   0.0000
    61 C5       4.7315   1.1035   1.3292   C.3       3 RES3   0.0000
    62 C6       3.2058   1.2243   1.3168   C.3       3 RES3   0.0000
    63 C7       4.3622   6.4745   3.2169   C.3       3 RES3   0.0000
    64 C8       4.2783   7.5125   2.2886   C.2       3 RES3   0.0000
    65 C9       4.0309   8.8156   2.7205   C.2       3 RES3   0.0000
    66 C10      3.8674   9.0807   4.0807   C.2       3 RES3   0.0000
    67 C11      3.9533   8.0428   5.0078   C.2       3 RES3   0.0000
    68 C12      4.1987   6.7396   4.5771   C.2       3 RES3   0.0000
    69 C13      6.3561   4.4893   3.4949   C.3       3 RES3   0.0000
    70 C14      7.2329   5.5731   3.5669   C.2       3 RES3   0.0000
    71 C15      8.4947   5.4107   4.1365   C.2       3 RES3   0.0000
    72 C16      8.8829   4.1661   4.6330   C.2       3 RES3   0.0000
    73 C17      8.0064   3.0824   4.5597   C.2       3 RES3   0.0000
    74 C18      6.7426   3.2447   3.9913   C.2       3 RES3   0.0000
    75 C19      3.8384   4.0446  -2.9240   C.3       3 RES3   0.0000
    76 C20      4.8838   4.8784  -3.3174   C.2       3 RES3   0.0000
    77 C21      5.4319   4.7530  -4.5945   C.2       3 RES3   0.0000
    78 C22      4.9340   3.7951  -5.4769   C.2       3 RES3   0.0000
    79 C23      3.8865   2.9611  -5.0822   C.2       3 RES3   0.0000
    80 C24      3.3384   3.0866  -3.8052   C.2       3 RES3   0.0000
    81 C25      2.1694   5.9362  -1.6420   C.3       3 RES3   0.0000
    82 C26      1.7809   6.2119  -2.9525   C.2       3 RES3   0.0000
    83 C27      1.0377   7.3599  -3.2318   C.2       3 RES3   0.0000
    84 C28      0.6842   8.2294  -2.2017   C.2       3 RES3   0.0000
    85 C29      1.0744   7.9537  -0.8911   C.2       3 RES3   0.0000
    86 C30      1.8169   6.8071  -0.6106   C.2       3 RES3   0.0000
    87 C31      7.2715   2.4035   0.7670   C.3       3 RES3   0.0000
    88 C32      7.9951   3.5957   0.7198   C.2       3 RES3   0.0000
    89 C33      9.3539   3.5986   1.0338   C.2       3 RES3   0.0000
    90 C34      9.9910   2.4109   1.3925   C.2       3 RES3   0.0000
    91 C35      9.2673   1.2187   1.4397   C.2       3 RES3   0.0000
    92 C36      7.9087   1.2143   1.1269   C.2       3 RES3   0.0000
    93 C37      5.6358   1.6069  -1.3714   C.3       3 RES3   0.0000
    94 C38      6.5848   2.1164  -2.2588   C.2       3 RES3   0.0000
    95 C39      6.7576   1.5264  -3.5110   C.2       3 RES3   0.0000
    96 C40      5.9819   0.4256  -3.8759   C.2       3 RES3   0.0000
    97 C41      5.0334  -0.0853  -2.9885   C.2       3 RES3   0.0000
    98 C42      4.8601   0.5060  -1.7363   C.2       3 RES3   0.0000
    99 H3       3.3764   4.2828   4.6541   H         3 RES3   0.0000
   100 H4       4.0712   2.8017   4.0087   H         3 RES3   0.0000
   101 H5       1.7675   2.6202   3.4874   H         3 RES3   0.0000
   102 H6       1.6594   4.3147   3.0282   H         3 RES3   0.0000
   103 H7       5.0794   1.2065   2.3456   H         3 RES3   0.0000
   104 H8       5.0237   0.1339   0.9432   H         3 RES3   0.0000
   105 H9       2.8197   0.7456   0.4344   H         3 RES3   0.0000
   106 H10      2.7976   0.7446   2.1967   H         3 RES3   0.0000
   107 H11      2.0483   2.1656  -1.4769   H         3 RES3   0.0000
   108 H12      0.8939   3.4471  -1.8244   H         3 RES3   0.0000
   109 H13      0.6888   4.0267   0.5213   H         3 RES3   0.0000
   110 H14      0.6085   2.2622   0.4592   H         3 RES3   0.0000
   111 H15      4.3941   7.3131   1.2411   H         3 RES3   0.0000
   112 H16      3.9728   9.6213   1.9981   H         3 RES3   0.0000
   113 H17      3.6785  10.0834   4.4182   H         3 RES3   0.0000
   114 H18      3.8249   8.2533   6.0565   H         3 RES3   0.0000
   115 H19      4.2683   5.9311   5.2994   H         3 RES3   0.0000
   116 H20      6.9319   6.5320   3.1772   H         3 RES3   0.0000
   117 H21      9.1779   6.2420   4.1949   H         3 RES3   0.0000
   118 H22      9.8592   4.0402   5.0760   H         3 RES3   0.0000
   119 H23      8.3165   2.1145   4.9395   H         3 RES3   0.0000
   120 H24      6.0674   2.4036   3.9342   H         3 RES3   0.0000
   121 H25      5.2792   5.6151  -2.6311   H         3 RES3   0.0000
   122 H26      6.2465   5.4058  -4.9023   H         3 RES3   0.0000
   123 H27      5.3615   3.6913  -6.4660   H         3 RES3   0.0000
   124 H28      3.5036   2.2149  -5.7710   H         3 RES3   0.0000
   125 H29      2.5319   2.4381  -3.4998   H         3 RES3   0.0000
   126 H30      2.0480   5.5369  -3.7481   H         3 RES3   0.0000
   127 H31      0.7335   7.5687  -4.2445   H         3 RES3   0.0000
   128 H32      0.1172   9.1231  -2.4201   H         3 RES3   0.0000
   129 H33      0.7990   8.6309  -0.0869   H         3 RES3   0.0000
   130 H34      2.1178   6.5851   0.4096   H         3 RES3   0.0000
   131 H35      7.4985   4.5202   0.4468   H         3 RES3   0.0000
   132 H36      9.9235   4.5185   0.9929   H         3 RES3   0.0000
   133 H37     11.0424   2.4192   1.6382   H         3 RES3   0.0000
   134 H38      9.7688   0.2955   1.7127   H         3 RES3   0.0000
   135 H39      7.3438   0.2972   1.1666   H         3 RES3   0.0000
   136 H40      7.1828   2.9714  -1.9733   H         3 RES3   0.0000
   137 H41      7.4842   1.9222  -4.1949   H         3 RES3   0.0000
   138 H42      6.1070  -0.0326  -4.8402   H         3 RES3   0.0000
   139 H43      4.4316  -0.9373  -3.2765   H         3 RES3   0.0000
   140 H44      4.1303   0.1118  -1.0549   H         3 RES3   0.0000
@<TRIPOS>BOND
     1     1     2    1
     2     2     3   ar
     3     3     4   ar
     4     4     5   ar
     5     5     6   ar
     6     6     7   ar
     7     7     2   ar
     8     8     1    1
     9     9     8   ar
    10    10     9   ar
    11    11    10   ar
    12    12    11   ar
    13    13     8   ar
    14    14     1    1
    15    15    14   ar
    16    16    15   ar
    17    17    16   ar
    18    18    17   ar
    19    19    14   ar
    20    20     1    1
    21    21    20   ar
    22    22    21   ar
    23    23    22   ar
    24    24    23   ar
    25    25    20   ar
    26    26     3    1
    27    27     4    1
    28    28     5    1
    29    29     6    1
    30    30     7    1
    31    31    13    1
    32    32     9    1
    33    33    10    1
    34    34    11    1
    35    35    15    1
    36    36    16    1
    37    37    17    1
    38    38    18    1
    39    39    19    1
    40    40    21    1
    41    41    22    1
    42    42    23    1
    43    43    24    1
    44    44    25    1
    45    12    13   ar
    46    18    19   ar
    47    24    25   ar
    48    45    46    1
    49    46    47    1
    50    47    48    1
    51    48    49    1
    52    49    45    1
    53    50    51    1
    54    52    50    1
    55    53    50   un
    56    54    50   un
    57    55    50   un
    58    56    50   un
    59    57    53    1
    60    58    56    1
    61    59    54    1
    62    60    56    1
    63    61    55    1
    64    62    56    1
    65    63    53    1
    66    64    63    1
    67    65    64   un
    68    66    65   un
    69    67    66   un
    70    68    63    1
    71    69    53    1
    72    70    69    1
    73    71    70   un
    74    72    71   un
    75    73    72   un
    76    74    69    1
    77    75    54    1
    78    76    75    1
    79    77    76   un
    80    78    77   un
    81    79    78   un
    82    80    75    1
    83    81    54    1
    84    82    81    1
    85    83    82   un
    86    84    83   un
    87    85    84   un
    88    86    81    1
    89    87    55    1
    90    88    87    1
    91    89    88   un
    92    90    89   un
    93    91    90   un
    94    92    87    1
    95    93    55    1
    96    94    93    1
    97    95    94   un
    98    96    95   un
    99    97    96   un
   100    98    93    1
   101    99    57    1
   102   100    57    1
   103   101    58    1
   104   102    58    1
   105   103    61    1
   106   104    61    1
   107   105    62    1
   108   106    62    1
   109   107    59    1
   110   108    59    1
   111   109    60    1
   112   110    60    1
   113   111    64    1
   114   112    65    1
   115   113    66    1
   116   114    67    1
   117   115    68    1
   118   116    70    1
   119   117    71    1
   120   118    72    1
   121   119    73    1
   122   120    74    1
   123   121    76    1
   124   122    77    1
   125   123    78    1
   126   124    79    1
   127   125    80    1
   128   126    82    1
   129   127    83    1
   130   128    84    1
   131   129    85    1
   132   130    86    1
   133   131    88    1
   134   132    89    1
   135   133    90    1
   136   134    91    1
   137   135    92    1
   138   136    94    1
   139   137    95    1
   140   138    96    1
   141   139    97    1
   142   140    98    1
   143    57    58    1
   144    59    60    1
   145    61    62    1
   146    67    68   un
   147    73    74   un
   148    79    80   un
   149    85    86   un
   150    91    92   un
   151    97    98   un
@<TRIPOS>SUBSTRUCTURE
     1 RES1        1 GROUP             0 ****  ****    0  
     2 RES2       45 GROUP             0 ****  ****    0  
     3 RES3       50 GROUP             0 ****  ****    0  
@<TRIPOS>CRYSIN
   17.6260   14.6050   12.8240   90.0900  103.8700  107.4600     2     1
