@<TRIPOS>MOLECULE
RIRBAW
   105   118     1     0     0
SMALL
NO_CHARGES
****
Generated from the CSD

@<TRIPOS>ATOM
     1 Fe1      5.6290   0.0000   0.0000   Fe        1 RES1   0.0000
     2 N1       6.4668   0.6735   1.6889   N.2       1 RES1   0.0000
     3 N2       6.3705   1.5531  -1.0102   N.2       1 RES1   0.0000
     4 C1       6.2839   0.1882   2.9690   C.2       1 RES1   0.0000
     5 C2       7.1475   1.8629   1.8485   C.2       1 RES1   0.0000
     6 C3       7.0654   2.6275  -0.4895   C.2       1 RES1   0.0000
     7 C4       6.2759   1.8024  -2.3635   C.2       1 RES1   0.0000
     8 C5       6.8745   1.0831   3.9316   C.2       1 RES1   0.0000
     9 H1       6.8785   0.9747   4.8752   H         1 RES1   0.0000
    10 C6       7.4195   2.1032   3.2412   C.2       1 RES1   0.0000
    11 H2       7.8944   2.8412   3.6047   H         1 RES1   0.0000
    12 C7       7.3620   3.5828  -1.5262   C.2       1 RES1   0.0000
    13 H3       7.8149   4.4116  -1.4194   H         1 RES1   0.0000
    14 C8       6.8748   3.0784  -2.6765   C.2       1 RES1   0.0000
    15 H4       6.9176   3.4862  -3.5336   H         1 RES1   0.0000
    16 C9       7.4566   2.7685   0.8361   C.2       1 RES1   0.0000
    17 C10      5.5792  -0.9643   3.3070   C.2       1 RES1   0.0000
    18 C11      8.2741   3.9693   1.2056   C.ar      1 RES1   0.0000
    19 C12      7.6705   5.1752   1.5410   C.ar      1 RES1   0.0000
    20 H5       6.7226   5.2397   1.5473   H         1 RES1   0.0000
    21 C13      8.4382   6.2885   1.8676   C.ar      1 RES1   0.0000
    22 H6       8.0136   7.1110   2.0797   H         1 RES1   0.0000
    23 C14      9.8231   6.1988   1.8840   C.ar      1 RES1   0.0000
    24 H7      10.3495   6.9582   2.1075   H         1 RES1   0.0000
    25 C15     10.4340   4.9945   1.5715   C.ar      1 RES1   0.0000
    26 H8      11.3806   4.9244   1.5962   H         1 RES1   0.0000
    27 C16      9.6658   3.8890   1.2227   C.ar      1 RES1   0.0000
    28 H9      10.0937   3.0722   0.9937   H         1 RES1   0.0000
    29 C17      5.3482  -1.2889   4.7530   C.ar      1 RES1   0.0000
    30 C18      6.3771  -1.5673   5.6528   C.ar      1 RES1   0.0000
    31 H10      7.2813  -1.5114   5.3687   H         1 RES1   0.0000
    32 C19      6.0836  -1.9271   6.9664   C.ar      1 RES1   0.0000
    33 H11      6.7906  -2.1246   7.5695   H         1 RES1   0.0000
    34 C20      4.7680  -1.9997   7.4008   C.ar      1 RES1   0.0000
    35 H12      4.5740  -2.2679   8.2909   H         1 RES1   0.0000
    36 C21      3.7387  -1.6793   6.5304   C.ar      1 RES1   0.0000
    37 H13      2.8376  -1.7057   6.8281   H         1 RES1   0.0000
    38 C22      4.0289  -1.3190   5.2208   C.ar      1 RES1   0.0000
    39 H14      3.3194  -1.0894   4.6318   H         1 RES1   0.0000
    40 S1       3.8231   1.1789   0.5350   S.o       1 RES1   0.0000
    41 O1       3.7771   1.8610   1.8469   O.2       1 RES1   0.0000
    42 C23      2.2682   0.2717   0.3709   C.3       1 RES1   0.0000
    43 H15      2.3613  -0.4507  -0.3001   H         1 RES1   0.0000
    44 H16      2.0154  -0.1354   1.2371   H         1 RES1   0.0000
    45 C24      1.1988   1.2797  -0.0758   C.3       1 RES1   0.0000
    46 H17      0.5031   1.3601   0.6236   H         1 RES1   0.0000
    47 H18      0.7658   0.9603  -0.9070   H         1 RES1   0.0000
    48 C25      1.8502   2.6544  -0.3228   C.3       1 RES1   0.0000
    49 H19      1.3886   3.1263  -1.0604   H         1 RES1   0.0000
    50 H20      1.7960   3.2123   0.4924   H         1 RES1   0.0000
    51 C26      3.3096   2.3905  -0.6903   C.3       1 RES1   0.0000
    52 H21      3.8503   3.2171  -0.6236   H         1 RES1   0.0000
    53 H22      3.3875   2.0258  -1.6073   H         1 RES1   0.0000
    54 N1B      4.7912  -0.6735  -1.6889   N.2       1 RES1   0.0000
    55 N2B      4.8875  -1.5531   1.0102   N.2       1 RES1   0.0000
    56 C1B      4.9741  -0.1882  -2.9690   C.2       1 RES1   0.0000
    57 C2B      4.1105  -1.8629  -1.8485   C.2       1 RES1   0.0000
    58 C3B      4.1926  -2.6275   0.4895   C.2       1 RES1   0.0000
    59 C4B      4.9821  -1.8024   2.3635   C.2       1 RES1   0.0000
    60 C5B      4.3835  -1.0831  -3.9316   C.2       1 RES1   0.0000
    61 H1B      4.3795  -0.9747  -4.8752   H         1 RES1   0.0000
    62 C6B      3.8385  -2.1032  -3.2412   C.2       1 RES1   0.0000
    63 H2B      3.3636  -2.8412  -3.6047   H         1 RES1   0.0000
    64 C7B      3.8960  -3.5828   1.5262   C.2       1 RES1   0.0000
    65 H3B      3.4431  -4.4116   1.4194   H         1 RES1   0.0000
    66 C8B      4.3832  -3.0784   2.6765   C.2       1 RES1   0.0000
    67 H4B      4.3404  -3.4862   3.5336   H         1 RES1   0.0000
    68 C9B      3.8014  -2.7685  -0.8361   C.2       1 RES1   0.0000
    69 C10B     5.6788   0.9643  -3.3070   C.2       1 RES1   0.0000
    70 C11B     2.9839  -3.9693  -1.2056   C.ar      1 RES1   0.0000
    71 C12B     3.5875  -5.1752  -1.5410   C.ar      1 RES1   0.0000
    72 H5B      4.5354  -5.2397  -1.5473   H         1 RES1   0.0000
    73 C13B     2.8198  -6.2885  -1.8676   C.ar      1 RES1   0.0000
    74 H6B      3.2444  -7.1110  -2.0797   H         1 RES1   0.0000
    75 C14B     1.4349  -6.1988  -1.8840   C.ar      1 RES1   0.0000
    76 H7B      0.9085  -6.9582  -2.1075   H         1 RES1   0.0000
    77 C15B     0.8240  -4.9945  -1.5715   C.ar      1 RES1   0.0000
    78 H8B     -0.1226  -4.9244  -1.5962   H         1 RES1   0.0000
    79 C16B     1.5922  -3.8890  -1.2227   C.ar      1 RES1   0.0000
    80 H9B      1.1643  -3.0722  -0.9937   H         1 RES1   0.0000
    81 C17B     5.9098   1.2889  -4.7530   C.ar      1 RES1   0.0000
    82 C18B     4.8809   1.5673  -5.6528   C.ar      1 RES1   0.0000
    83 H10B     3.9767   1.5114  -5.3687   H         1 RES1   0.0000
    84 C19B     5.1744   1.9271  -6.9664   C.ar      1 RES1   0.0000
    85 H11B     4.4674   2.1246  -7.5695   H         1 RES1   0.0000
    86 C20B     6.4900   1.9997  -7.4008   C.ar      1 RES1   0.0000
    87 H12B     6.6840   2.2679  -8.2909   H         1 RES1   0.0000
    88 C21B     7.5193   1.6793  -6.5304   C.ar      1 RES1   0.0000
    89 H13B     8.4204   1.7057  -6.8281   H         1 RES1   0.0000
    90 C22B     7.2291   1.3190  -5.2208   C.ar      1 RES1   0.0000
    91 H14B     7.9386   1.0894  -4.6318   H         1 RES1   0.0000
    92 S1B      7.4349  -1.1789  -0.5350   S.o       1 RES1   0.0000
    93 O1B      7.4809  -1.8610  -1.8469   O.2       1 RES1   0.0000
    94 C23B     8.9898  -0.2717  -0.3709   C.3       1 RES1   0.0000
    95 H15B     8.8967   0.4507   0.3001   H         1 RES1   0.0000
    96 H16B     9.2426   0.1354  -1.2371   H         1 RES1   0.0000
    97 C24B    10.0592  -1.2797   0.0758   C.3       1 RES1   0.0000
    98 H17B    10.7549  -1.3601  -0.6236   H         1 RES1   0.0000
    99 H18B    10.4922  -0.9603   0.9070   H         1 RES1   0.0000
   100 C25B     9.4078  -2.6544   0.3228   C.3       1 RES1   0.0000
   101 H19B     9.8694  -3.1263   1.0604   H         1 RES1   0.0000
   102 H20B     9.4620  -3.2123  -0.4924   H         1 RES1   0.0000
   103 C26B     7.9484  -2.3905   0.6903   C.3       1 RES1   0.0000
   104 H21B     7.4077  -3.2171   0.6236   H         1 RES1   0.0000
   105 H22B     7.8705  -2.0258   1.6073   H         1 RES1   0.0000
@<TRIPOS>BOND
     1     1     2    1
     2     2     4    1
     3     3     1    1
     4     4     8    1
     5     5     2    1
     6     6     3    2
     7     7     3    1
     8     8     9    1
     9    10     5    1
    10    11    10    1
    11    12     6    1
    12    13    12    1
    13    14     7    1
    14    15    14    1
    15    16     5    2
    16    17     4    2
    17    18    16    1
    18    19    18   ar
    19    20    19    1
    20    21    19   ar
    21    22    21    1
    22    23    21   ar
    23    24    23    1
    24    25    23   ar
    25    26    25    1
    26    27    18   ar
    27    28    27    1
    28    29    17    1
    29    30    29   ar
    30    31    30    1
    31    32    30   ar
    32    33    32    1
    33    34    32   ar
    34    35    34    1
    35    36    34   ar
    36    37    36    1
    37    38    29   ar
    38    39    38    1
    39    40     1    1
    40    41    40    2
    41    42    40    1
    42    43    42    1
    43    44    42    1
    44    45    42    1
    45    46    45    1
    46    47    45    1
    47    48    45    1
    48    49    48    1
    49    50    48    1
    50    51    40    1
    51    52    51    1
    52    53    51    1
    53    54     1    1
    54    55     1    1
    55    56    54    1
    56    57    54    1
    57    58    55    1
    58    59    17    1
    59    60    56    2
    60    61    60    1
    61    62    57    2
    62    63    62    1
    63    64    58    1
    64    65    64    1
    65    66    59    1
    66    67    66    1
    67    68    57    1
    68    69     7    2
    69    70    68    1
    70    71    70   ar
    71    72    71    1
    72    73    71   ar
    73    74    73    1
    74    75    73   ar
    75    76    75    1
    76    77    75   ar
    77    78    77    1
    78    79    70   ar
    79    80    79    1
    80    81    69    1
    81    82    81   ar
    82    83    82    1
    83    84    82   ar
    84    85    84    1
    85    86    84   ar
    86    87    86    1
    87    88    86   ar
    88    89    88    1
    89    90    81   ar
    90    91    90    1
    91    92     1    1
    92    93    92    2
    93    94    92    1
    94    95    94    1
    95    96    94    1
    96    97    94    1
    97    98    97    1
    98    99    97    1
    99   100    97    1
   100   101   100    1
   101   102   100    1
   102   103    92    1
   103   104   103    1
   104   105   103    1
   105     6    16    1
   106     8    10    2
   107    12    14    2
   108    25    27   ar
   109    36    38   ar
   110    48    51    1
   111    55    59    2
   112    56    69    1
   113    58    68    2
   114    60    62    1
   115    64    66    2
   116    77    79   ar
   117    88    90   ar
   118   100   103    1
@<TRIPOS>SUBSTRUCTURE
     1 RES1        1 GROUP             0 ****  ****    0  
@<TRIPOS>CRYSIN
   11.2580   15.9262   12.3930   90.0000  116.2460   90.0000    14     1
