@<TRIPOS>MOLECULE
RITBAB
   114   118     4     0     0
SMALL
USER_CHARGES
****
Generated from the CSD

@<TRIPOS>ATOM
     1 Fe1      5.6624  15.0420   8.7689   Fe        1 RES1   2.0000
     2 P1       5.4237  15.9940  11.9924   P.3       1 RES1   0.0000
     3 P2       6.1811  14.4428   6.6807   P.3       1 RES1   0.0000
     4 N1       5.0910  15.0636  10.7486   N.2       1 RES1   0.0000
     5 N2       5.6457  13.0956   9.0771   N.ar      1 RES1   0.0000
     6 N3       3.7862  15.0362   8.3104   N.1       1 RES1   0.0000
     7 N4       5.7632  16.9374   8.3975   N.1       1 RES1   0.0000
     8 N5       7.5039  15.0591   9.3213   N.1       1 RES1   0.0000
     9 C1       5.0984  12.6816  10.2356   C.ar      1 RES1   0.0000
    10 C2       5.0930  11.3499  10.5858   C.ar      1 RES1   0.0000
    11 H1       4.7002  11.0733  11.4059   H         1 RES1   0.0000
    12 C3       5.6596  10.4147   9.7397   C.ar      1 RES1   0.0000
    13 H2       5.6714   9.4937   9.9723   H         1 RES1   0.0000
    14 C4       6.2133  10.8543   8.5414   C.ar      1 RES1   0.0000
    15 H3       6.6028  10.2317   7.9369   H         1 RES1   0.0000
    16 C5       6.1904  12.1944   8.2366   C.ar      1 RES1   0.0000
    17 C6       4.4710  13.7617  11.0648   C.3       1 RES1   0.0000
    18 H4       3.4988  13.8000  10.8801   H         1 RES1   0.0000
    19 H5       4.5942  13.5573  12.0258   H         1 RES1   0.0000
    20 C7       6.8217  12.7502   6.9929   C.3       1 RES1   0.0000
    21 H6       6.6131  12.1657   6.2218   H         1 RES1   0.0000
    22 H7       7.8055  12.7797   7.1018   H         1 RES1   0.0000
    23 C8       2.7092  15.0298   7.9148   C.1       1 RES1   0.0000
    24 C9       1.3686  15.0146   7.3469   C.3       1 RES1   0.0000
    25 H8       1.4244  15.0990   6.3723   H         1 RES1   0.0000
    26 H9       0.8507  15.7622   7.7110   H         1 RES1   0.0000
    27 H10      0.9266  14.1694   7.5761   H         1 RES1   0.0000
    28 C10      5.9593  18.0109   8.0719   C.1       1 RES1   0.0000
    29 C11      6.2558  19.3680   7.5892   C.3       1 RES1   0.0000
    30 H11      7.1565  19.6272   7.8776   H         1 RES1   0.0000
    31 H12      5.6017  19.9969   7.9601   H         1 RES1   0.0000
    32 H13      6.2084  19.3858   6.6112   H         1 RES1   0.0000
    33 C12      8.5664  15.0375   9.7737   C.1       1 RES1   0.0000
    34 C13      9.8701  14.9943  10.3927   C.3       1 RES1   0.0000
    35 H14      9.7690  14.8631  11.3580   H         1 RES1   0.0000
    36 H15     10.3380  15.8400  10.2253   H         1 RES1   0.0000
    37 H16     10.3872  14.2545  10.0132   H         1 RES1   0.0000
    38 C14      9.5544  16.2243   4.1041   C.ar      1 RES1   0.0000
    39 H17     10.2698  16.5670   3.5831   H         1 RES1   0.0000
    40 C15      6.8403  15.4644  12.9919   C.ar      1 RES1   0.0000
    41 C16      8.4421  13.7490  13.5371   C.ar      1 RES1   0.0000
    42 H18      8.8376  12.9058  13.3536   H         1 RES1   0.0000
    43 C17      8.9028  14.5139  14.6029   C.ar      1 RES1   0.0000
    44 H19      9.5935  14.1831  15.1649   H         1 RES1   0.0000
    45 C18      8.3520  15.7592  14.8414   C.ar      1 RES1   0.0000
    46 H20      8.6761  16.2839  15.5632   H         1 RES1   0.0000
    47 C19      7.3387  16.2472  14.0463   C.ar      1 RES1   0.0000
    48 H21      6.9779  17.1092  14.2110   H         1 RES1   0.0000
    49 C20      2.7201  16.1099  12.5773   C.ar      1 RES1   0.0000
    50 H22      2.6117  16.0926  11.6331   H         1 RES1   0.0000
    51 C21      1.6125  16.2014  13.3970   C.ar      1 RES1   0.0000
    52 H23      0.7429  16.2344  13.0144   H         1 RES1   0.0000
    53 C22      1.7612  16.2472  14.7657   C.ar      1 RES1   0.0000
    54 H24      0.9969  16.3309  15.3233   H         1 RES1   0.0000
    55 C23      3.0389  16.1735  15.3373   C.ar      1 RES1   0.0000
    56 H25      3.1423  16.1954  16.2821   H         1 RES1   0.0000
    57 C24      4.1422  16.0693  14.5215   C.ar      1 RES1   0.0000
    58 H26      5.0084  16.0197  14.9094   H         1 RES1   0.0000
    59 C25      7.0169  18.2040  11.4301   C.ar      1 RES1   0.0000
    60 H27      7.7610  17.6497  11.6315   H         1 RES1   0.0000
    61 C26      7.2175  19.5332  11.0799   C.ar      1 RES1   0.0000
    62 H28      8.0990  19.8850  11.0372   H         1 RES1   0.0000
    63 C27      6.1314  20.3464  10.7922   C.ar      1 RES1   0.0000
    64 H29      6.2660  21.2634  10.5788   H         1 RES1   0.0000
    65 C28      4.8663  19.8305  10.8149   C.ar      1 RES1   0.0000
    66 H30      4.1274  20.3813  10.5889   H         1 RES1   0.0000
    67 C29      4.6522  18.4963  11.1689   C.ar      1 RES1   0.0000
    68 H31      3.7693  18.1458  11.1929   H         1 RES1   0.0000
    69 C30      4.7945  14.2725   5.5201   C.ar      1 RES1   0.0000
    70 C31      4.3209  15.4085   4.8821   C.ar      1 RES1   0.0000
    71 H32      4.7501  16.2425   5.0325   H         1 RES1   0.0000
    72 C32      3.2288  15.3475   4.0265   C.ar      1 RES1   0.0000
    73 H33      2.9190  16.1330   3.5911   H         1 RES1   0.0000
    74 C33      2.5918  14.1302   3.8088   C.ar      1 RES1   0.0000
    75 H34      1.8567  14.0796   3.2101   H         1 RES1   0.0000
    76 C34      3.0264  13.0018   4.4638   C.ar      1 RES1   0.0000
    77 H35      2.5750  12.1763   4.3293   H         1 RES1   0.0000
    78 C35      4.1187  13.0577   5.3156   C.ar      1 RES1   0.0000
    79 H36      4.4116  12.2713   5.7617   H         1 RES1   0.0000
    80 C36      8.3260  16.1531   6.1713   C.ar      1 RES1   0.0000
    81 H37      8.2095  16.4536   7.0644   H         1 RES1   0.0000
    82 C37      9.3616  16.6640   5.3895   C.ar      1 RES1   0.0000
    83 H38      9.9413  17.3232   5.7504   H         1 RES1   0.0000
    84 C38      8.7076  15.2865   3.5816   C.ar      1 RES1   0.0000
    85 H39      8.8415  14.9733   2.6956   H         1 RES1   0.0000
    86 C39      7.6454  14.7884   4.3426   C.ar      1 RES1   0.0000
    87 H40      7.0431  14.1580   3.9640   H         1 RES1   0.0000
    88 C40      7.4744  15.2154   5.6412   C.ar      1 RES1   0.0000
    89 C41      4.0077  16.0385  13.1376   C.ar      1 RES1   0.0000
    90 C42      7.4111  14.2166  12.7458   C.ar      1 RES1   0.0000
    91 H41      7.0883  13.6826  12.0296   H         1 RES1   0.0000
    92 C43      5.7315  17.6881  11.4869   C.ar      1 RES1   0.0000
    93 S1       0.5302  18.6374   9.1074   S.o2      2 RES2   0.0000
    94 F1       2.6196  19.9627   8.2460   F         2 RES2   0.0000
    95 F2       2.2560  18.1431   7.2068   F         2 RES2   0.0000
    96 F3       1.0749  19.8458   6.8528   F         2 RES2   0.0000
    97 O1       0.0518  19.8560   9.6507   O.2       2 RES2   0.0000
    98 O2       1.3728  17.8686   9.9839   O.3       2 RES2  -1.0000
    99 O3      -0.4275  17.8536   8.4051   O.2       2 RES2   0.0000
   100 C44      1.6907  19.1672   7.7936   C.3       2 RES2   0.0000
   101 S2      -0.0911  11.1001   9.0886   S.o2      3 RES3   0.0000
   102 F4       2.0976  12.4216   9.5201   F         3 RES3   0.0000
   103 F5       2.3791  10.3143   9.3383   F         3 RES3   0.0000
   104 F6       1.9964  11.5354   7.6005   F         3 RES3   0.0000
   105 O4      -0.3104   9.8683   8.3880   O.2       3 RES3   0.0000
   106 O5      -0.2436  11.0221  10.5158   O.2       3 RES3   0.0000
   107 O6      -0.6221  12.2867   8.4675   O.3       3 RES3  -1.0000
   108 C45      1.6749  11.3118   8.8916   C.3       3 RES3   0.0000
   109 N6      -0.9748  19.0224  13.9460   N.1       4 RES4   0.0000
   110 C46     -0.0440  19.3350  13.4386   C.1       4 RES4   0.0000
   111 C47      1.1877  19.7518  12.8045   C.3       4 RES4   0.0000
   112 H42      1.3131  19.2481  11.9724   H         4 RES4   0.0000
   113 H43      1.9403  19.5783  13.4071   H         4 RES4   0.0000
   114 H44      1.1437  20.7093  12.6026   H         4 RES4   0.0000
@<TRIPOS>BOND
     1     1     3    1
     2     2     4    2
     3     3    20    1
     4     4     1    1
     5     5     1    1
     6     6     1    1
     7     7     1    1
     8     8     1    1
     9     9     5   ar
    10    10     9   ar
    11    11    10    1
    12    12    10   ar
    13    13    12    1
    14    14    12   ar
    15    15    14    1
    16    16     5   ar
    17    17     4    1
    18    18    17    1
    19    19    17    1
    20    20    16    1
    21    21    20    1
    22    22    20    1
    23    23     6    3
    24    24    23    1
    25    25    24    1
    26    26    24    1
    27    27    24    1
    28    28     7    3
    29    29    28    1
    30    30    29    1
    31    31    29    1
    32    32    29    1
    33    33     8    3
    34    34    33    1
    35    35    34    1
    36    36    34    1
    37    37    34    1
    38    38    39    1
    39    40     2    1
    40    41    42    1
    41    43    41   ar
    42    44    43    1
    43    45    43   ar
    44    46    45    1
    45    47    40   ar
    46    48    47    1
    47    49    50    1
    48    51    49   ar
    49    52    51    1
    50    53    51   ar
    51    54    53    1
    52    55    53   ar
    53    56    55    1
    54    57    55   ar
    55    58    57    1
    56    59    60    1
    57    61    59   ar
    58    62    61    1
    59    63    61   ar
    60    64    63    1
    61    65    63   ar
    62    66    65    1
    63    67    65   ar
    64    68    67    1
    65    69     3    1
    66    70    69   ar
    67    71    70    1
    68    72    70   ar
    69    73    72    1
    70    74    72   ar
    71    75    74    1
    72    76    74   ar
    73    77    76    1
    74    78    69   ar
    75    79    78    1
    76    80    81    1
    77    82    38   ar
    78    83    82    1
    79    84    38   ar
    80    85    84    1
    81    86    84   ar
    82    87    86    1
    83    88     3    1
    84    89     2    1
    85    90    40   ar
    86    91    90    1
    87    92     2    1
    88     9    17    1
    89    14    16   ar
    90    41    90   ar
    91    45    47   ar
    92    49    89   ar
    93    57    89   ar
    94    59    92   ar
    95    67    92   ar
    96    76    78   ar
    97    80    82   ar
    98    80    88   ar
    99    86    88   ar
   100    93    97    2
   101    94   100    1
   102    95   100    1
   103    96   100    1
   104    98    93    1
   105    99    93    2
   106   100    93    1
   107   101   105    2
   108   102   108    1
   109   103   108    1
   110   104   108    1
   111   106   101    2
   112   107   101    1
   113   108   101    1
   114   109   110    3
   115   110   111    1
   116   111   112    1
   117   113   111    1
   118   114   111    1
@<TRIPOS>SUBSTRUCTURE
     1 RES1        1 GROUP             0 ****  ****    0  
     2 RES2       93 GROUP             0 ****  ****    0  
     3 RES3      101 GROUP             0 ****  ****    0  
     4 RES4      109 GROUP             0 ****  ****    0  
@<TRIPOS>CRYSIN
   10.2743   25.4140   18.9605   90.0000   93.2330   90.0000     9     1
