@<TRIPOS>MOLECULE
RIXTEX01
   144   160     3     0     0
SMALL
USER_CHARGES
****
Generated from the CSD

@<TRIPOS>ATOM
     1 Fe1      0.0000   0.0000   0.0000   Fe        1 RES1  -1.0000
     2 N1       0.7272   0.3481   1.8302   N.2       1 RES1   0.0000
     3 N2       1.6618  -0.9986  -0.4840   N.2       1 RES1   0.0000
     4 N3       0.8090   1.6891  -0.6219   N.2       1 RES1   0.0000
     5 N4       1.2037   1.7428  -1.7599   N.1       1 RES1   1.0000
     6 N5       1.5760   1.8505  -2.8426   N.3       1 RES1  -1.0000
     7 C1       2.9185  -0.7532   1.6263   C.2       1 RES1   0.0000
     8 C2      -1.1499   1.5942   2.8155   C.2       1 RES1   0.0000
     9 C3       0.1109   1.0072   2.8605   C.2       1 RES1   0.0000
    10 C4       1.9607  -0.0198   2.3152   C.2       1 RES1   0.0000
    11 C5       2.7424  -1.2284   0.3291   C.2       1 RES1   0.0000
    12 C6       1.9497  -1.6092  -1.6798   C.2       1 RES1   0.0000
    13 C7       0.9735   1.0702   4.0064   C.2       1 RES1   0.0000
    14 H1       0.7740   1.4746   4.8425   H         1 RES1   0.0000
    15 C8       2.1230   0.4451   3.6696   C.2       1 RES1   0.0000
    16 H2       2.8898   0.3336   4.2192   H         1 RES1   0.0000
    17 C9       3.7063  -2.0451  -0.3570   C.2       1 RES1   0.0000
    18 H3       4.5263  -2.3676  -0.0019   H         1 RES1   0.0000
    19 C10      3.2283  -2.2686  -1.6019   C.2       1 RES1   0.0000
    20 H4       3.6533  -2.7646  -2.2917   H         1 RES1   0.0000
    21 C11      4.2123  -1.0578   2.3099   C.ar      1 RES1   0.0000
    22 C12      5.4006  -0.4889   1.8492   C.ar      1 RES1   0.0000
    23 H5       5.3782   0.1160   1.1170   H         1 RES1   0.0000
    24 C13      6.6154  -0.7970   2.4481   C.ar      1 RES1   0.0000
    25 H6       7.4188  -0.4120   2.1171   H         1 RES1   0.0000
    26 C14      6.6557  -1.6632   3.5274   C.ar      1 RES1   0.0000
    27 H7       7.4850  -1.8745   3.9394   H         1 RES1   0.0000
    28 C15      5.4788  -2.2200   4.0024   C.ar      1 RES1   0.0000
    29 H8       5.5015  -2.8073   4.7489   H         1 RES1   0.0000
    30 C16      4.2667  -1.9246   3.3923   C.ar      1 RES1   0.0000
    31 H9       3.4669  -2.3196   3.7191   H         1 RES1   0.0000
    32 C17     -1.6973   2.1765   4.0716   C.ar      1 RES1   0.0000
    33 C18     -1.8758   3.5483   4.2118   C.ar      1 RES1   0.0000
    34 H10     -1.6243   4.1337   3.5072   H         1 RES1   0.0000
    35 C19     -2.4218   4.0652   5.3823   C.ar      1 RES1   0.0000
    36 H11     -2.5456   5.0038   5.4713   H         1 RES1   0.0000
    37 C20     -2.7832   3.2320   6.4111   C.ar      1 RES1   0.0000
    38 H12     -3.1621   3.5901   7.2046   H         1 RES1   0.0000
    39 C21     -2.5947   1.8711   6.2884   C.ar      1 RES1   0.0000
    40 H13     -2.8346   1.2943   7.0042   H         1 RES1   0.0000
    41 C22     -2.0573   1.3404   5.1248   C.ar      1 RES1   0.0000
    42 H14     -1.9340   0.4016   5.0464   H         1 RES1   0.0000
    43 C6A     -1.9497   1.6092   1.6798   C.2       1 RES1   0.0000
    44 N2A     -1.6618   0.9986   0.4840   N.2       1 RES1   0.0000
    45 N1A     -0.7272  -0.3481  -1.8302   N.2       1 RES1   0.0000
    46 C3A     -0.1109  -1.0072  -2.8605   C.2       1 RES1   0.0000
    47 C2A      1.1499  -1.5942  -2.8155   C.2       1 RES1   0.0000
    48 N3A     -0.8090  -1.6891   0.6219   N.2       1 RES1   0.0000
    49 N4A     -1.2037  -1.7428   1.7599   N.1       1 RES1   1.0000
    50 N5A     -1.5760  -1.8505   2.8426   N.3       1 RES1  -1.0000
    51 C17A     1.6973  -2.1765  -4.0716   C.ar      1 RES1   0.0000
    52 C18A     1.8758  -3.5483  -4.2118   C.ar      1 RES1   0.0000
    53 H10A     1.6243  -4.1337  -3.5072   H         1 RES1   0.0000
    54 C19A     2.4218  -4.0652  -5.3823   C.ar      1 RES1   0.0000
    55 H11A     2.5456  -5.0038  -5.4713   H         1 RES1   0.0000
    56 C20A     2.7832  -3.2320  -6.4111   C.ar      1 RES1   0.0000
    57 H12A     3.1621  -3.5901  -7.2046   H         1 RES1   0.0000
    58 C21A     2.5947  -1.8711  -6.2884   C.ar      1 RES1   0.0000
    59 H13A     2.8346  -1.2943  -7.0042   H         1 RES1   0.0000
    60 C22A     2.0573  -1.3404  -5.1248   C.ar      1 RES1   0.0000
    61 H14A     1.9340  -0.4016  -5.0464   H         1 RES1   0.0000
    62 C7A     -0.9735  -1.0702  -4.0064   C.2       1 RES1   0.0000
    63 H1A     -0.7740  -1.4746  -4.8425   H         1 RES1   0.0000
    64 C8A     -2.1230  -0.4451  -3.6696   C.2       1 RES1   0.0000
    65 C4A     -1.9607   0.0198  -2.3152   C.2       1 RES1   0.0000
    66 C1A     -2.9185   0.7532  -1.6263   C.2       1 RES1   0.0000
    67 C5A     -2.7424   1.2284  -0.3291   C.2       1 RES1   0.0000
    68 C9A     -3.7063   2.0451   0.3570   C.2       1 RES1   0.0000
    69 H3A     -4.5263   2.3676   0.0019   H         1 RES1   0.0000
    70 C10A    -3.2283   2.2686   1.6019   C.2       1 RES1   0.0000
    71 H4A     -3.6533   2.7646   2.2917   H         1 RES1   0.0000
    72 C11A    -4.2123   1.0578  -2.3099   C.ar      1 RES1   0.0000
    73 C12A    -5.4006   0.4889  -1.8492   C.ar      1 RES1   0.0000
    74 H5A     -5.3782  -0.1160  -1.1170   H         1 RES1   0.0000
    75 C13A    -6.6154   0.7970  -2.4481   C.ar      1 RES1   0.0000
    76 H6A     -7.4188   0.4120  -2.1171   H         1 RES1   0.0000
    77 C14A    -6.6557   1.6632  -3.5274   C.ar      1 RES1   0.0000
    78 H7A     -7.4850   1.8745  -3.9394   H         1 RES1   0.0000
    79 C15A    -5.4788   2.2200  -4.0024   C.ar      1 RES1   0.0000
    80 H8A     -5.5015   2.8073  -4.7489   H         1 RES1   0.0000
    81 C16A    -4.2667   1.9246  -3.3923   C.ar      1 RES1   0.0000
    82 H9A     -3.4669   2.3196  -3.7191   H         1 RES1   0.0000
    83 H2A     -2.8898  -0.3336  -4.2192   H         1 RES1   0.0000
    84 Na1      1.3209   6.0428   0.0000   Na        2 RES2   1.0000
    85 O1       3.1071   4.4289   1.3260   O.3       2 RES2   0.0000
    86 O2       0.9275   5.4424   2.7458   O.3       2 RES2   0.0000
    87 O3      -0.4641   7.4863   1.4770   O.3       2 RES2   0.0000
    88 C23      3.7826   3.4921   0.4997   C.3       2 RES2   0.0000
    89 H15      3.1717   2.7521   0.2566   H         2 RES2   0.0000
    90 H16      4.5572   3.1109   0.9837   H         2 RES2   0.0000
    91 C24      2.6106   3.8038   2.4965   C.3       2 RES2   0.0000
    92 H17      3.3401   3.3208   2.9579   H         2 RES2   0.0000
    93 H18      1.9046   3.1521   2.2590   H         2 RES2   0.0000
    94 C25      2.0522   4.8596   3.3890   C.3       2 RES2   0.0000
    95 H19      1.7797   4.4628   4.2545   H         2 RES2   0.0000
    96 H20      2.7373   5.5519   3.5657   H         2 RES2   0.0000
    97 C26      0.3779   6.5302   3.4689   C.3       2 RES2   0.0000
    98 H21      1.0385   7.2635   3.5308   H         2 RES2   0.0000
    99 H22      0.1416   6.2422   4.3862   H         2 RES2   0.0000
   100 C27     -0.8368   6.9970   2.7531   C.3       2 RES2   0.0000
   101 H23     -1.4767   6.2492   2.6529   H         2 RES2   0.0000
   102 H24     -1.2779   7.7148   3.2731   H         2 RES2   0.0000
   103 C28     -1.6041   7.8916   0.7294   C.3       2 RES2   0.0000
   104 H25     -2.1676   8.4977   1.2730   H         2 RES2   0.0000
   105 H26     -2.1467   7.1006   0.4829   H         2 RES2   0.0000
   106 O4      -0.1231   4.2504   0.3459   O.3       2 RES2   0.0000
   107 H27      0.1036   3.4714   0.1508   H         2 RES2   0.0000
   108 H28     -0.0715   4.2329   1.1863   H         2 RES2   0.0000
   109 C28A     4.2458   4.1941  -0.7294   C.3       2 RES2   0.0000
   110 O3A      3.1058   4.5994  -1.4770   O.3       2 RES2   0.0000
   111 O1A     -0.4654   7.6567  -1.3260   O.3       2 RES2   0.0000
   112 C23A    -1.1408   8.5936  -0.4997   C.3       2 RES2   0.0000
   113 H15A    -0.5300   9.3335  -0.2566   H         2 RES2   0.0000
   114 H16A    -1.9154   8.9747  -0.9837   H         2 RES2   0.0000
   115 O2A      1.7142   6.6433  -2.7458   O.3       2 RES2   0.0000
   116 C25A     0.5895   7.2261  -3.3890   C.3       2 RES2   0.0000
   117 C24A     0.0311   8.2819  -2.4965   C.3       2 RES2   0.0000
   118 H17A    -0.6984   8.7648  -2.9579   H         2 RES2   0.0000
   119 H18A     0.7371   8.9335  -2.2590   H         2 RES2   0.0000
   120 H19A     0.8621   7.6228  -4.2545   H         2 RES2   0.0000
   121 H20A    -0.0956   6.5337  -3.5657   H         2 RES2   0.0000
   122 C26A     2.2638   5.5554  -3.4689   C.3       2 RES2   0.0000
   123 H21A     1.6032   4.8221  -3.5308   H         2 RES2   0.0000
   124 H22A     2.5002   5.8434  -4.3862   H         2 RES2   0.0000
   125 C27A     3.4785   5.0886  -2.7531   C.3       2 RES2   0.0000
   126 H23A     4.1184   5.8364  -2.6529   H         2 RES2   0.0000
   127 H24A     3.9196   4.3709  -3.2731   H         2 RES2   0.0000
   128 O4A      2.7648   7.8353  -0.3459   O.3       2 RES2   0.0000
   129 H27A     2.5382   8.6142  -0.1508   H         2 RES2   0.0000
   130 H28A     2.7133   7.8527  -1.1863   H         2 RES2   0.0000
   131 H25A     4.8094   3.5879  -1.2730   H         2 RES2   0.0000
   132 H26A     4.7884   4.9850  -0.4829   H         2 RES2   0.0000
   133 Cl1     -4.2003   6.4915  -2.1401   Cl        3 RES3   0.0000
   134 C29     -3.0684   5.4192  -2.9152   C.ar      3 RES3   0.0000
   135 C30     -2.2167   4.6691  -2.1295   C.ar      3 RES3   0.0000
   136 H29     -2.2501   4.7294  -1.1818   H         3 RES3   0.0000
   137 C31     -1.3148   3.8281  -2.7531   C.ar      3 RES3   0.0000
   138 H30     -0.7278   3.2969  -2.2286   H         3 RES3   0.0000
   139 C32     -1.2601   3.7498  -4.1364   C.ar      3 RES3   0.0000
   140 H31     -0.6325   3.1725  -4.5551   H         3 RES3   0.0000
   141 C33     -2.1183   4.5166  -4.9062   C.ar      3 RES3   0.0000
   142 H32     -2.0765   4.4684  -5.8539   H         3 RES3   0.0000
   143 C34     -3.0379   5.3547  -4.2973   C.ar      3 RES3   0.0000
   144 H33     -3.6370   5.8753  -4.8184   H         3 RES3   0.0000
@<TRIPOS>BOND
     1     1     2    1
     2     2     9    1
     3     3     1    1
     4     4     1    1
     5     5     4    2
     6     6     5    2
     7     7    10    2
     8     8     9    2
     9     9    13    1
    10    10     2    1
    11    11     3    2
    12    12     3    1
    13    13    14    1
    14    15    10    1
    15    16    15    1
    16    17    11    1
    17    18    17    1
    18    19    12    1
    19    20    19    1
    20    21     7    1
    21    22    21   ar
    22    23    22    1
    23    24    22   ar
    24    25    24    1
    25    26    24   ar
    26    27    26    1
    27    28    26   ar
    28    29    28    1
    29    30    21   ar
    30    31    30    1
    31    32     8    1
    32    33    32   ar
    33    34    33    1
    34    35    33   ar
    35    36    35    1
    36    37    35   ar
    37    38    37    1
    38    39    37   ar
    39    40    39    1
    40    41    32   ar
    41    42    41    1
    42    43     8    1
    43    44     1    1
    44    45     1    1
    45    46    45    1
    46    47    12    2
    47    48     1    1
    48    49    48    2
    49    50    49    2
    50    51    47    1
    51    52    51   ar
    52    53    52    1
    53    54    52   ar
    54    55    54    1
    55    56    54   ar
    56    57    56    1
    57    58    56   ar
    58    59    58    1
    59    60    51   ar
    60    61    60    1
    61    62    46    2
    62    63    62    1
    63    64    62    1
    64    65    45    1
    65    66    65    1
    66    67    44    1
    67    68    67    1
    68    69    68    1
    69    70    43    1
    70    71    70    1
    71    72    66    1
    72    73    72   ar
    73    74    73    1
    74    75    73   ar
    75    76    75    1
    76    77    75   ar
    77    78    77    1
    78    79    77   ar
    79    80    79    1
    80    81    72   ar
    81    82    81    1
    82    83    64    1
    83     7    11    1
    84    13    15    2
    85    17    19    2
    86    28    30   ar
    87    39    41   ar
    88    43    44    2
    89    46    47    1
    90    58    60   ar
    91    64    65    2
    92    66    67    2
    93    68    70    2
    94    79    81   ar
    95    84    85    1
    96    85    88    1
    97    86    84    1
    98    87    84    1
    99    88    89    1
   100    90    88    1
   101    91    85    1
   102    92    91    1
   103    93    91    1
   104    94    86    1
   105    95    94    1
   106    96    94    1
   107    97    86    1
   108    98    97    1
   109    99    97    1
   110   100    87    1
   111   101   100    1
   112   102   100    1
   113   103    87    1
   114   104   103    1
   115   105   103    1
   116   106    84    1
   117   107   106    1
   118   108   106    1
   119   109    88    1
   120   110    84    1
   121   111    84    1
   122   112   103    1
   123   113   112    1
   124   114   112    1
   125   115    84    1
   126   116   115    1
   127   117   111    1
   128   118   117    1
   129   119   117    1
   130   120   116    1
   131   121   116    1
   132   122   115    1
   133   123   122    1
   134   124   122    1
   135   125   110    1
   136   126   125    1
   137   127   125    1
   138   128    84    1
   139   129   128    1
   140   130   128    1
   141   131   109    1
   142   132   109    1
   143    91    94    1
   144    97   100    1
   145   109   110    1
   146   111   112    1
   147   116   117    1
   148   122   125    1
   149   133   134    1
   150   134   135   ar
   151   135   136    1
   152   137   135   ar
   153   138   137    1
   154   139   137   ar
   155   140   139    1
   156   141   139   ar
   157   142   141    1
   158   143   134   ar
   159   144   143    1
   160   141   143   ar
@<TRIPOS>SUBSTRUCTURE
     1 RES1        1 GROUP             0 ****  ****    0  
     2 RES2       84 GROUP             0 ****  ****    0  
     3 RES3      133 GROUP             0 ****  ****    0  
@<TRIPOS>CRYSIN
   11.4170   12.3710   12.6280   64.3000   77.1800   77.6700     2     1
