@<TRIPOS>MOLECULE
RIXTEX
   144   160     3     0     0
SMALL
USER_CHARGES
****
Generated from the CSD

@<TRIPOS>ATOM
     1 Fe1      0.0000   0.0000   0.0000   Fe        1 RES1  -1.0000
     2 N1       0.7512   0.4107   1.8215   N.2       1 RES1   0.0000
     3 N2       1.6613  -1.0261  -0.4641   N.2       1 RES1   0.0000
     4 N3       0.8319   1.6782  -0.6956   N.2       1 RES1   0.0000
     5 N4       1.3179   1.6729  -1.7867   N.1       1 RES1   1.0000
     6 N5       1.7724   1.7067  -2.8272   N.3       1 RES1  -1.0000
     7 C1       2.9369  -0.6943   1.6226   C.2       1 RES1   0.0000
     8 C2      -1.1072   1.7210   2.7575   C.2       1 RES1   0.0000
     9 C3       0.1482   1.1293   2.8227   C.2       1 RES1   0.0000
    10 C4       1.9864   0.0563   2.2946   C.2       1 RES1   0.0000
    11 C5       2.7541  -1.2260   0.3416   C.2       1 RES1   0.0000
    12 C6       1.9284  -1.6869  -1.6372   C.2       1 RES1   0.0000
    13 C7       1.0294   1.2250   3.9464   C.2       1 RES1   0.0000
    14 H1       0.8516   1.6564   4.7510   H         1 RES1   0.0000
    15 C8       2.1593   0.5758   3.6239   C.2       1 RES1   0.0000
    16 H2       2.9140   0.4814   4.1610   H         1 RES1   0.0000
    17 C9       3.7091  -2.0670  -0.3326   C.2       1 RES1   0.0000
    18 H3       4.5211  -2.3654   0.0079   H         1 RES1   0.0000
    19 C10      3.2022  -2.3359  -1.5462   C.2       1 RES1   0.0000
    20 H4       3.6058  -2.8515  -2.2081   H         1 RES1   0.0000
    21 C11      4.2463  -0.9753   2.2957   C.ar      1 RES1   0.0000
    22 C12      5.4166  -0.4064   1.8181   C.ar      1 RES1   0.0000
    23 H5       5.3822   0.1754   1.0934   H         1 RES1   0.0000
    24 C13      6.6380  -0.6956   2.4058   C.ar      1 RES1   0.0000
    25 H6       7.4178  -0.3201   2.0653   H         1 RES1   0.0000
    26 C14      6.6977  -1.5291   3.4790   C.ar      1 RES1   0.0000
    27 H7       7.5175  -1.7265   3.8689   H         1 RES1   0.0000
    28 C15      5.5538  -2.0752   3.9835   C.ar      1 RES1   0.0000
    29 H8       5.5973  -2.6324   4.7262   H         1 RES1   0.0000
    30 C16      4.3180  -1.8035   3.3924   C.ar      1 RES1   0.0000
    31 H9       3.5434  -2.1849   3.7385   H         1 RES1   0.0000
    32 C17     -1.6261   2.3794   3.9891   C.ar      1 RES1   0.0000
    33 C18     -1.6266   3.7467   4.1228   C.ar      1 RES1   0.0000
    34 H10     -1.2911   4.2795   3.4385   H         1 RES1   0.0000
    35 C19     -2.1272   4.3375   5.2802   C.ar      1 RES1   0.0000
    36 H11     -2.1279   5.2637   5.3600   H         1 RES1   0.0000
    37 C20     -2.6165   3.5768   6.2938   C.ar      1 RES1   0.0000
    38 H12     -2.9623   3.9726   7.0602   H         1 RES1   0.0000
    39 C21     -2.5917   2.2325   6.1646   C.ar      1 RES1   0.0000
    40 H13     -2.9074   1.7015   6.8601   H         1 RES1   0.0000
    41 C22     -2.1086   1.6278   5.0240   C.ar      1 RES1   0.0000
    42 H14     -2.1108   0.7001   4.9589   H         1 RES1   0.0000
    43 C6A     -1.9284   1.6869   1.6372   C.2       1 RES1   0.0000
    44 N2A     -1.6613   1.0261   0.4641   N.2       1 RES1   0.0000
    45 N1A     -0.7512  -0.4107  -1.8215   N.2       1 RES1   0.0000
    46 C3A     -0.1482  -1.1293  -2.8227   C.2       1 RES1   0.0000
    47 C2A      1.1072  -1.7210  -2.7575   C.2       1 RES1   0.0000
    48 N3A     -0.8319  -1.6782   0.6956   N.2       1 RES1   0.0000
    49 N4A     -1.3179  -1.6729   1.7867   N.1       1 RES1   1.0000
    50 N5A     -1.7724  -1.7067   2.8272   N.3       1 RES1  -1.0000
    51 C17A     1.6261  -2.3794  -3.9891   C.ar      1 RES1   0.0000
    52 C18A     1.6266  -3.7467  -4.1228   C.ar      1 RES1   0.0000
    53 H10A     1.2911  -4.2795  -3.4385   H         1 RES1   0.0000
    54 C19A     2.1272  -4.3375  -5.2802   C.ar      1 RES1   0.0000
    55 H11A     2.1279  -5.2637  -5.3600   H         1 RES1   0.0000
    56 C20A     2.6165  -3.5768  -6.2938   C.ar      1 RES1   0.0000
    57 H12A     2.9623  -3.9726  -7.0602   H         1 RES1   0.0000
    58 C21A     2.5917  -2.2325  -6.1646   C.ar      1 RES1   0.0000
    59 H13A     2.9074  -1.7015  -6.8601   H         1 RES1   0.0000
    60 C22A     2.1086  -1.6278  -5.0240   C.ar      1 RES1   0.0000
    61 H14A     2.1108  -0.7001  -4.9589   H         1 RES1   0.0000
    62 C7A     -1.0294  -1.2250  -3.9464   C.2       1 RES1   0.0000
    63 H1A     -0.8516  -1.6564  -4.7510   H         1 RES1   0.0000
    64 C8A     -2.1593  -0.5758  -3.6239   C.2       1 RES1   0.0000
    65 C4A     -1.9864  -0.0563  -2.2946   C.2       1 RES1   0.0000
    66 C1A     -2.9369   0.6943  -1.6226   C.2       1 RES1   0.0000
    67 C5A     -2.7541   1.2260  -0.3416   C.2       1 RES1   0.0000
    68 C9A     -3.7091   2.0670   0.3326   C.2       1 RES1   0.0000
    69 H3A     -4.5211   2.3654  -0.0079   H         1 RES1   0.0000
    70 C10A    -3.2022   2.3359   1.5462   C.2       1 RES1   0.0000
    71 H4A     -3.6058   2.8515   2.2081   H         1 RES1   0.0000
    72 C11A    -4.2463   0.9753  -2.2957   C.ar      1 RES1   0.0000
    73 C12A    -5.4166   0.4064  -1.8181   C.ar      1 RES1   0.0000
    74 H5A     -5.3822  -0.1754  -1.0934   H         1 RES1   0.0000
    75 C13A    -6.6380   0.6956  -2.4058   C.ar      1 RES1   0.0000
    76 H6A     -7.4178   0.3201  -2.0653   H         1 RES1   0.0000
    77 C14A    -6.6977   1.5291  -3.4790   C.ar      1 RES1   0.0000
    78 H7A     -7.5175   1.7265  -3.8689   H         1 RES1   0.0000
    79 C15A    -5.5538   2.0752  -3.9835   C.ar      1 RES1   0.0000
    80 H8A     -5.5973   2.6324  -4.7262   H         1 RES1   0.0000
    81 C16A    -4.3180   1.8035  -3.3924   C.ar      1 RES1   0.0000
    82 H9A     -3.5434   2.1849  -3.7385   H         1 RES1   0.0000
    83 H2A     -2.9140  -0.4814  -4.1610   H         1 RES1   0.0000
    84 Na1      1.5872   6.1220   0.0000   Na        2 RES2   1.0000
    85 O1       3.2927   4.5853   1.5136   O.3       2 RES2   0.0000
    86 O2       1.1193   5.8034   2.7328   O.3       2 RES2   0.0000
    87 O3      -0.1757   7.7154   1.2282   O.3       2 RES2   0.0000
    88 C23      3.9565   3.5326   0.6697   C.3       2 RES2   0.0000
    89 H15      4.7172   3.1593   1.1417   H         2 RES2   0.0000
    90 H16      3.3314   2.8157   0.4809   H         2 RES2   0.0000
    91 C24      2.8282   4.0382   2.5890   C.3       2 RES2   0.0000
    92 H17      3.5294   3.5656   3.0632   H         2 RES2   0.0000
    93 H18      2.1199   3.4105   2.3744   H         2 RES2   0.0000
    94 C25      2.2974   5.1721   3.4183   C.3       2 RES2   0.0000
    95 H19      2.9926   5.8350   3.5486   H         2 RES2   0.0000
    96 H20      2.0283   4.8402   4.2903   H         2 RES2   0.0000
    97 C26      0.7173   6.8308   3.3441   C.3       2 RES2   0.0000
    98 H21      1.3823   7.5368   3.3025   H         2 RES2   0.0000
    99 H22      0.5343   6.6288   4.2745   H         2 RES2   0.0000
   100 C27     -0.5636   7.2493   2.6160   C.3       2 RES2   0.0000
   101 H23     -1.1745   6.4982   2.5564   H         2 RES2   0.0000
   102 H24     -1.0047   7.9658   3.0980   H         2 RES2   0.0000
   103 C28     -1.2346   8.0776   0.6090   C.3       2 RES2   0.0000
   104 H25     -1.7388   8.7119   1.1417   H         2 RES2   0.0000
   105 H26     -1.7980   7.3103   0.4248   H         2 RES2   0.0000
   106 O4       0.1435   4.3199   0.3023   O.3       2 RES2   0.0000
   107 H27      0.4598   3.3940   0.0303   H         2 RES2   0.0000
   108 H28      0.1998   4.4411   1.3113   H         2 RES2   0.0000
   109 C28A     4.4091   4.1664  -0.6090   C.3       2 RES2   0.0000
   110 O3A      3.3502   4.5285  -1.2282   O.3       2 RES2   0.0000
   111 O1A     -0.1182   7.6586  -1.5136   O.3       2 RES2   0.0000
   112 C23A    -0.7820   8.7114  -0.6697   C.3       2 RES2   0.0000
   113 H15A    -1.5427   9.0847  -1.1417   H         2 RES2   0.0000
   114 H16A    -0.1569   9.4282  -0.4809   H         2 RES2   0.0000
   115 O2A      2.0551   6.4405  -2.7328   O.3       2 RES2   0.0000
   116 C25A     0.8771   7.0719  -3.4183   C.3       2 RES2   0.0000
   117 C24A     0.3463   8.2058  -2.5890   C.3       2 RES2   0.0000
   118 H17A    -0.3549   8.6784  -3.0632   H         2 RES2   0.0000
   119 H18A     1.0546   8.8335  -2.3744   H         2 RES2   0.0000
   120 H19A     0.1819   6.4090  -3.5486   H         2 RES2   0.0000
   121 H20A     1.1461   7.4038  -4.2903   H         2 RES2   0.0000
   122 C26A     2.4572   5.4131  -3.3441   C.3       2 RES2   0.0000
   123 H21A     1.7922   4.7071  -3.3025   H         2 RES2   0.0000
   124 H22A     2.6402   5.6152  -4.2745   H         2 RES2   0.0000
   125 C27A     3.7381   4.9946  -2.6160   C.3       2 RES2   0.0000
   126 H23A     4.3489   5.7458  -2.5564   H         2 RES2   0.0000
   127 H24A     4.1792   4.2782  -3.0980   H         2 RES2   0.0000
   128 O4A      3.0310   7.9240  -0.3023   O.3       2 RES2   0.0000
   129 H27A     2.7146   8.8500  -0.0303   H         2 RES2   0.0000
   130 H28A     2.9747   7.8028  -1.3113   H         2 RES2   0.0000
   131 H25A     4.9133   3.5320  -1.1417   H         2 RES2   0.0000
   132 H26A     4.9725   4.9337  -0.4248   H         2 RES2   0.0000
   133 Cl1     -4.1260   6.4357  -2.1800   Cl        3 RES3   0.0000
   134 C29     -3.0098   5.3492  -2.9542   C.ar      3 RES3   0.0000
   135 C30     -2.2014   4.5799  -2.1968   C.ar      3 RES3   0.0000
   136 H29     -2.2484   4.6272  -1.2698   H         3 RES3   0.0000
   137 C31     -1.3187   3.7316  -2.7924   C.ar      3 RES3   0.0000
   138 H30     -0.7618   3.2031  -2.2665   H         3 RES3   0.0000
   139 C32     -1.2391   3.6469  -4.1543   C.ar      3 RES3   0.0000
   140 H31     -0.6472   3.0495  -4.5521   H         3 RES3   0.0000
   141 C33     -2.0447   4.4535  -4.9409   C.ar      3 RES3   0.0000
   142 H32     -1.9742   4.4331  -5.8679   H         3 RES3   0.0000
   143 C34     -2.9591   5.2939  -4.3161   C.ar      3 RES3   0.0000
   144 H33     -3.5337   5.8177  -4.8263   H         3 RES3   0.0000
@<TRIPOS>BOND
     1     1     2    1
     2     2     9    1
     3     3     1    1
     4     4     1    1
     5     5     4    2
     6     6     5    2
     7     7    10    2
     8     8     9    2
     9     9    13    1
    10    10     2    1
    11    11     3    2
    12    12     3    1
    13    13    14    1
    14    15    10    1
    15    16    15    1
    16    17    11    1
    17    18    17    1
    18    19    12    1
    19    20    19    1
    20    21     7    1
    21    22    21   ar
    22    23    22    1
    23    24    22   ar
    24    25    24    1
    25    26    24   ar
    26    27    26    1
    27    28    26   ar
    28    29    28    1
    29    30    21   ar
    30    31    30    1
    31    32     8    1
    32    33    32   ar
    33    34    33    1
    34    35    33   ar
    35    36    35    1
    36    37    35   ar
    37    38    37    1
    38    39    37   ar
    39    40    39    1
    40    41    32   ar
    41    42    41    1
    42    43     8    1
    43    44     1    1
    44    45     1    1
    45    46    45    1
    46    47    12    2
    47    48     1    1
    48    49    48    2
    49    50    49    2
    50    51    47    1
    51    52    51   ar
    52    53    52    1
    53    54    52   ar
    54    55    54    1
    55    56    54   ar
    56    57    56    1
    57    58    56   ar
    58    59    58    1
    59    60    51   ar
    60    61    60    1
    61    62    46    2
    62    63    62    1
    63    64    62    1
    64    65    45    1
    65    66    65    1
    66    67    44    1
    67    68    67    1
    68    69    68    1
    69    70    43    1
    70    71    70    1
    71    72    66    1
    72    73    72   ar
    73    74    73    1
    74    75    73   ar
    75    76    75    1
    76    77    75   ar
    77    78    77    1
    78    79    77   ar
    79    80    79    1
    80    81    72   ar
    81    82    81    1
    82    83    64    1
    83     7    11    1
    84    13    15    2
    85    17    19    2
    86    28    30   ar
    87    39    41   ar
    88    43    44    2
    89    46    47    1
    90    58    60   ar
    91    64    65    2
    92    66    67    2
    93    68    70    2
    94    79    81   ar
    95    84    85    1
    96    85    88    1
    97    86    84    1
    98    87    84    1
    99    88    89    1
   100    90    88    1
   101    91    85    1
   102    92    91    1
   103    93    91    1
   104    94    86    1
   105    95    94    1
   106    96    94    1
   107    97    86    1
   108    98    97    1
   109    99    97    1
   110   100    87    1
   111   101   100    1
   112   102   100    1
   113   103    87    1
   114   104   103    1
   115   105   103    1
   116   106    84    1
   117   107   106    1
   118   108   106    1
   119   109    88    1
   120   110    84    1
   121   111    84    1
   122   112   103    1
   123   113   112    1
   124   114   112    1
   125   115    84    1
   126   116   115    1
   127   117   111    1
   128   118   117    1
   129   119   117    1
   130   120   116    1
   131   121   116    1
   132   122   115    1
   133   123   122    1
   134   124   122    1
   135   125   110    1
   136   126   125    1
   137   127   125    1
   138   128    84    1
   139   129   128    1
   140   130   128    1
   141   131   109    1
   142   132   109    1
   143    91    94    1
   144    97   100    1
   145   109   110    1
   146   111   112    1
   147   116   117    1
   148   122   125    1
   149   133   134    1
   150   134   135   ar
   151   135   136    1
   152   137   135   ar
   153   138   137    1
   154   139   137   ar
   155   140   139    1
   156   141   139   ar
   157   142   141    1
   158   143   134   ar
   159   144   143    1
   160   141   143   ar
@<TRIPOS>SUBSTRUCTURE
     1 RES1        1 GROUP             0 ****  ****    0  
     2 RES2       84 GROUP             0 ****  ****    0  
     3 RES3      133 GROUP             0 ****  ****    0  
@<TRIPOS>CRYSIN
   11.7652   12.6488   12.8608   62.0200   75.9960   75.4650     2     1
