@<TRIPOS>MOLECULE
RODVOV
   114   116     5     0     0
SMALL
USER_CHARGES
****
Generated from the CSD

@<TRIPOS>ATOM
     1 Bi1      4.4934  14.7466   8.9244   Bi        1 RES1  -1.0000
     2 Bi2      3.2639  13.1257  11.8706   Bi        1 RES1  -1.0000
     3 Bi3      0.0356  14.5608  11.5901   Bi        1 RES1  -1.0000
     4 Fe1      2.1779  14.7773  10.1130   Fe        1 RES1   0.0000
     5 Cl1      3.6506  14.4882   6.4847   Cl        1 RES1   0.0000
     6 Cl2      4.7780  17.3312   8.6912   Cl        1 RES1   0.0000
     7 Cl3      4.4764  11.7608   9.7308   Cl        1 RES1   0.0000
     8 Cl4      5.6017  14.5999  11.8737   Cl        1 RES1   0.0000
     9 Cl5      2.0863  14.5401  13.9478   Cl        1 RES1   0.0000
    10 Cl6      0.8008  11.7210  11.9629   Cl        1 RES1   0.0000
    11 Cl7     -1.6121  14.1234   9.6289   Cl        1 RES1   0.0000
    12 Cl8     -0.4847  17.1717  11.6316   Cl        1 RES1   0.0000
    13 C1       1.3895  15.9217   8.9333   C.1       1 RES1   0.0000
    14 O1       0.9839  16.6275   8.1689   O.2       1 RES1   0.0000
    15 C2       2.7499  16.1071  11.2341   C.1       1 RES1   0.0000
    16 O2       3.0910  16.9903  11.8253   O.2       1 RES1   0.0000
    17 C3       1.6724  13.3379   9.1626   C.1       1 RES1   0.0000
    18 O3       1.3250  12.4566   8.5282   O.2       1 RES1   0.0000
    19 C4       1.5726  22.9056   9.2085   C.ar      2 RES2   0.0000
    20 C5       0.2725  23.3502   9.2900   C.ar      2 RES2   0.0000
    21 H1      -0.1768  23.3343  10.1054   H         2 RES2   0.0000
    22 C6      -0.3536  23.8167   8.1663   C.ar      2 RES2   0.0000
    23 H2      -1.2439  24.0839   8.2071   H         2 RES2   0.0000
    24 C7       0.3266  23.8905   6.9815   C.ar      2 RES2   0.0000
    25 H3      -0.1082  24.1935   6.2171   H         2 RES2   0.0000
    26 C8       1.6454  23.5177   6.9153   C.ar      2 RES2   0.0000
    27 H4       2.1175  23.6094   6.1177   H         2 RES2   0.0000
    28 C9       2.2631  23.0093   8.0262   C.ar      2 RES2   0.0000
    29 H5       3.1514  22.7322   7.9803   H         2 RES2   0.0000
    30 N1       2.1259  20.8601  10.6354   N.4       2 RES2   1.0000
    31 C10      2.2673  22.3454  10.4341   C.3       2 RES2   0.0000
    32 H6       3.2117  22.5567  10.3755   H         2 RES2   0.0000
    33 H7       1.9158  22.7940  11.2188   H         2 RES2   0.0000
    34 C11      0.6615  20.5550  10.8112   C.3       2 RES2   0.0000
    35 H8       0.3183  21.0535  11.5552   H         2 RES2   0.0000
    36 H9       0.5471  19.6160  10.9742   H         2 RES2   0.0000
    37 H10      0.1851  20.8003  10.0136   H         2 RES2   0.0000
    38 C12      2.6563  20.0965   9.4964   C.3       2 RES2   0.0000
    39 H11      2.1758  20.3377   8.6989   H         2 RES2   0.0000
    40 H12      2.5481  19.1575   9.6620   H         2 RES2   0.0000
    41 H13      3.5882  20.2979   9.3817   H         2 RES2   0.0000
    42 C13      2.8622  20.4972  11.8813   C.3       2 RES2   0.0000
    43 H14      2.5107  20.9976  12.6202   H         2 RES2   0.0000
    44 H15      3.7941  20.7006  11.7743   H         2 RES2   0.0000
    45 H16      2.7582  19.5582  12.0546   H         2 RES2   0.0000
    46 C14      0.7239  18.5235   3.9035   C.ar      3 RES3   0.0000
    47 C15      1.0629  19.8313   3.6742   C.ar      3 RES3   0.0000
    48 H17      0.8258  20.2380   2.8716   H         3 RES3   0.0000
    49 C16      1.7535  20.5451   4.6221   C.ar      3 RES3   0.0000
    50 H18      1.8242  21.4682   4.5482   H         3 RES3   0.0000
    51 C17      2.3360  19.8971   5.6795   C.ar      3 RES3   0.0000
    52 H19      2.8809  20.3597   6.2757   H         3 RES3   0.0000
    53 C18      2.1030  18.5514   5.8400   C.ar      3 RES3   0.0000
    54 H20      2.5315  18.0868   6.5229   H         3 RES3   0.0000
    55 C19      1.2439  17.8915   5.0043   C.ar      3 RES3   0.0000
    56 H21      1.0109  17.0102   5.1852   H         3 RES3   0.0000
    57 N2      -1.5809  17.6821   3.1366   N.4       3 RES3   1.0000
    58 C20     -0.1040  17.7539   2.8996   C.3       3 RES3   0.0000
    59 H22      0.0395  18.1526   2.0257   H         3 RES3   0.0000
    60 H23      0.2392  16.8488   2.8589   H         3 RES3   0.0000
    61 C21     -1.8430  17.0880   4.4794   C.3       3 RES3   0.0000
    62 H24     -1.4582  16.2088   4.5227   H         3 RES3   0.0000
    63 H25     -2.7894  17.0302   4.6246   H         3 RES3   0.0000
    64 H26     -1.4498  17.6423   5.1572   H         3 RES3   0.0000
    65 C22     -2.1695  19.0438   3.0525   C.3       3 RES3   0.0000
    66 H27     -1.9907  19.4147   2.1836   H         3 RES3   0.0000
    67 H28     -1.7785  19.6041   3.7252   H         3 RES3   0.0000
    68 H29     -3.1181  18.9920   3.1901   H         3 RES3   0.0000
    69 C23     -2.1987  16.8089   2.0919   C.3       3 RES3   0.0000
    70 H30     -1.8201  15.9297   2.1429   H         3 RES3   0.0000
    71 H31     -2.0281  17.1817   1.2230   H         3 RES3   0.0000
    72 H32     -3.1472  16.7590   2.2371   H         3 RES3   0.0000
    73 C24     -3.3032  18.0171   7.6848   C.ar      4 RES4   0.0000
    74 C25     -3.9688  18.9023   6.8771   C.ar      4 RES4   0.0000
    75 H33     -4.8154  18.6909   6.5535   H         4 RES4   0.0000
    76 C26     -3.3781  20.1045   6.5407   C.ar      4 RES4   0.0000
    77 H34     -3.8607  20.7504   6.0770   H         4 RES4   0.0000
    78 C27     -2.0718  20.3397   6.9000   C.ar      4 RES4   0.0000
    79 H35     -1.6786  21.1631   6.7140   H         4 RES4   0.0000
    80 C28     -1.3458  19.3548   7.5344   C.ar      4 RES4   0.0000
    81 H36     -0.4347  19.4685   7.6822   H         4 RES4   0.0000
    82 C29     -1.9699  18.2144   7.9498   C.ar      4 RES4   0.0000
    83 H37     -1.4894  17.5665   8.4135   H         4 RES4   0.0000
    84 N3      -4.7426  16.6733   9.2926   N.4       4 RES4   1.0000
    85 C30     -3.9459  16.6813   8.0186   C.3       4 RES4   0.0000
    86 H38     -4.5284  16.4261   7.2873   H         4 RES4   0.0000
    87 H39     -3.2470  16.0094   8.0848   H         4 RES4   0.0000
    88 C31     -5.1628  15.2598   9.5779   C.3       4 RES4   0.0000
    89 H40     -4.3849  14.7015   9.6569   H         4 RES4   0.0000
    90 H41     -5.7140  14.9388   8.8594   H         4 RES4   0.0000
    91 H42     -5.6620  15.2339  10.3984   H         4 RES4   0.0000
    92 C32     -5.9324  17.5386   9.1677   C.3       4 RES4   0.0000
    93 H43     -6.4816  17.2296   8.4441   H         4 RES4   0.0000
    94 H44     -5.6558  18.4417   8.9970   H         4 RES4   0.0000
    95 H45     -6.4358  17.5107   9.9856   H         4 RES4   0.0000
    96 C33     -3.8731  17.1418  10.4162   C.3       4 RES4   0.0000
    97 H46     -3.1035  16.5696  10.4876   H         4 RES4   0.0000
    98 H47     -4.3682  17.1119  11.2392   H         4 RES4   0.0000
    99 H48     -3.5861  18.0410  10.2455   H         4 RES4   0.0000
   100 O4       4.8404  19.0837  14.2764   O.3       5 RES5   0.0000
   101 C34      6.0843  18.4577  13.8229   C.3       5 RES5   0.0000
   102 H49      6.4483  17.8935  14.5236   H         5 RES5   0.0000
   103 H50      5.9158  17.9074  13.0432   H         5 RES5   0.0000
   104 C35      4.3536  18.0370  15.2243   C.3       5 RES5   0.0000
   105 H51      4.5970  17.1498  14.9185   H         5 RES5   0.0000
   106 H52      4.7197  18.1766  16.1136   H         5 RES5   0.0000
   107 C36      6.9371  19.4246  13.5248   C.3       5 RES5   0.0000
   108 H53      7.7546  19.0398  13.1961   H         5 RES5   0.0000
   109 H54      7.1223  19.9430  14.3121   H         5 RES5   0.0000
   110 H55      6.5565  19.9908  12.8496   H         5 RES5   0.0000
   111 C37      2.9995  18.2025  15.2218   C.3       5 RES5   0.0000
   112 H56      2.5980  17.5565  15.8078   H         5 RES5   0.0000
   113 H57      2.6646  18.0789  14.3300   H         5 RES5   0.0000
   114 H58      2.7853  19.0877  15.5250   H         5 RES5   0.0000
@<TRIPOS>BOND
     1     1     4    1
     2     2     4    1
     3     3     4    1
     4     4    13    1
     5     5     1    1
     6     6     1    1
     7     7     1    1
     8     8     1    1
     9     9     2    1
    10    10     2    1
    11    11     3    1
    12    12     3    1
    13    13    14    3
    14    15     4    1
    15    16    15    3
    16    17     4    1
    17    18    17    3
    18     2     7    1
    19     2     8    1
    20     3     9    1
    21     3    10    1
    22    19    20   ar
    23    20    21    1
    24    22    20   ar
    25    23    22    1
    26    24    22   ar
    27    25    24    1
    28    26    24   ar
    29    27    26    1
    30    28    19   ar
    31    29    28    1
    32    30    31    1
    33    31    19    1
    34    32    31    1
    35    33    31    1
    36    34    30    1
    37    35    34    1
    38    36    34    1
    39    37    34    1
    40    38    30    1
    41    39    38    1
    42    40    38    1
    43    41    38    1
    44    42    30    1
    45    43    42    1
    46    44    42    1
    47    45    42    1
    48    26    28   ar
    49    46    47   ar
    50    47    48    1
    51    49    47   ar
    52    50    49    1
    53    51    49   ar
    54    52    51    1
    55    53    51   ar
    56    54    53    1
    57    55    46   ar
    58    56    55    1
    59    57    58    1
    60    58    46    1
    61    59    58    1
    62    60    58    1
    63    61    57    1
    64    62    61    1
    65    63    61    1
    66    64    61    1
    67    65    57    1
    68    66    65    1
    69    67    65    1
    70    68    65    1
    71    69    57    1
    72    70    69    1
    73    71    69    1
    74    72    69    1
    75    53    55   ar
    76    73    74   ar
    77    74    75    1
    78    76    74   ar
    79    77    76    1
    80    78    76   ar
    81    79    78    1
    82    80    78   ar
    83    81    80    1
    84    82    73   ar
    85    83    82    1
    86    84    85    1
    87    85    73    1
    88    86    85    1
    89    87    85    1
    90    88    84    1
    91    89    88    1
    92    90    88    1
    93    91    88    1
    94    92    84    1
    95    93    92    1
    96    94    92    1
    97    95    92    1
    98    96    84    1
    99    97    96    1
   100    98    96    1
   101    99    96    1
   102    80    82   ar
   103   100   101    1
   104   101   102    1
   105   103   101    1
   106   104   100    1
   107   105   104    1
   108   106   104    1
   109   107   101    1
   110   108   107    1
   111   109   107    1
   112   110   107    1
   113   111   104    1
   114   112   111    1
   115   113   111    1
   116   114   111    1
@<TRIPOS>SUBSTRUCTURE
     1 RES1        1 GROUP             0 ****  ****    0  
     2 RES2       19 GROUP             0 ****  ****    0  
     3 RES3       46 GROUP             0 ****  ****    0  
     4 RES4       73 GROUP             0 ****  ****    0  
     5 RES5      100 GROUP             0 ****  ****    0  
@<TRIPOS>CRYSIN
   20.8010   19.9370   25.4800   90.0000   90.0000   90.0000    61     1
