@<TRIPOS>MOLECULE
RUCYIY
   146   158     2     0     0
SMALL
USER_CHARGES
****
Generated from the CSD

@<TRIPOS>ATOM
     1 C1      13.3143   2.0474   1.3129   C.2       1 RES1   0.0000
     2 H1      14.0541   1.9254   0.7288   H         1 RES1   0.0000
     3 C2      13.3499   2.6889   2.5696   C.2       1 RES1   0.0000
     4 H2      14.1049   3.0806   2.9929   H         1 RES1   0.0000
     5 C3      11.2922   2.0278   2.1174   C.2       1 RES1   0.0000
     6 C4       9.0869   1.8205   0.8681   C.2       1 RES1   0.0000
     7 C5       7.8184   2.3312   0.6424   C.2       1 RES1   0.0000
     8 H3       7.2404   2.7279   1.2834   H         1 RES1   0.0000
     9 C6       7.5666   2.1466  -0.6968   C.2       1 RES1   0.0000
    10 C7      11.7405   2.9733   4.4639   C.3       1 RES1   0.0000
    11 H4      11.6649   3.9456   4.5537   H         1 RES1   0.0000
    12 H5      12.4602   2.6471   5.0453   H         1 RES1   0.0000
    13 H6      10.8949   2.5540   4.7265   H         1 RES1   0.0000
    14 C8       8.9845   1.1577  -2.5923   C.3       1 RES1   0.0000
    15 H7       8.2176   0.7081  -3.0050   H         1 RES1   0.0000
    16 H8       9.7589   0.5566  -2.6017   H         1 RES1   0.0000
    17 H9       9.1970   1.9711  -3.0961   H         1 RES1   0.0000
    18 C9       6.3294   2.5682  -1.4737   C.3       1 RES1   0.0000
    19 C10      5.3309   3.1916  -0.5010   C.3       1 RES1   0.0000
    20 H10      5.1019   2.5400   0.1943   H         1 RES1   0.0000
    21 H11      4.5194   3.4498  -0.9860   H         1 RES1   0.0000
    22 H12      5.7308   3.9846  -0.0871   H         1 RES1   0.0000
    23 C11      6.6932   3.6542  -2.4811   C.3       1 RES1   0.0000
    24 H13      7.0817   4.4206  -2.0096   H         1 RES1   0.0000
    25 H14      5.8867   3.9399  -2.9581   H         1 RES1   0.0000
    26 H15      7.3447   3.3000  -3.1215   H         1 RES1   0.0000
    27 C12      5.6466   1.3682  -2.0940   C.3       1 RES1   0.0000
    28 H16      6.2117   1.0015  -2.8053   H         1 RES1   0.0000
    29 H17      4.7838   1.6401  -2.4691   H         1 RES1   0.0000
    30 H18      5.5034   0.6828  -1.4067   H         1 RES1   0.0000
    31 C13      9.8024   1.7136   2.2143   C.3       1 RES1   0.0000
    32 C14      9.1468   3.9437   2.9366   C.3       1 RES1   0.0000
    33 H19     10.0709   4.2639   2.8857   H         1 RES1   0.0000
    34 H20      8.6816   4.4020   3.6681   H         1 RES1   0.0000
    35 H21      8.6885   4.1334   2.0899   H         1 RES1   0.0000
    36 C15      9.6905   0.2748   2.6755   C.ar      1 RES1   0.0000
    37 C16      9.0827  -0.0498   3.8878   C.ar      1 RES1   0.0000
    38 H22      8.7125   0.6244   4.4451   H         1 RES1   0.0000
    39 C17      9.0347  -1.3557   4.2495   C.ar      1 RES1   0.0000
    40 H23      8.6499  -1.6218   5.0748   H         1 RES1   0.0000
    41 C18      9.5693  -2.2912   3.3680   C.ar      1 RES1   0.0000
    42 H24      9.5181  -3.2141   3.5931   H         1 RES1   0.0000
    43 C19     10.1684  -1.9289   2.1824   C.ar      1 RES1   0.0000
    44 H25     10.5318  -2.5956   1.6117   H         1 RES1   0.0000
    45 Fe1     11.2810   0.0000   0.0000   Fe        1 RES1   2.0000
    46 N1      12.0236   1.6297   1.0775   N.2       1 RES1   0.0000
    47 N2      12.0465   2.6281   3.0597   N.pl3     1 RES1   0.0000
    48 N3       9.6075   1.3014  -0.2497   N.2       1 RES1   0.0000
    49 N4       8.6576   1.5101  -1.2127   N.pl3     1 RES1   0.0000
    50 N5      10.2407  -0.6258   1.8328   N.ar      1 RES1   0.0000
    51 O1       9.1412   2.5225   3.1775   O.3       1 RES1   0.0000
    52 C1A      9.2477  -2.0474  -1.3129   C.2       1 RES1   0.0000
    53 H1A      8.5079  -1.9254  -0.7288   H         1 RES1   0.0000
    54 C2A      9.2121  -2.6889  -2.5696   C.2       1 RES1   0.0000
    55 H2A      8.4571  -3.0806  -2.9929   H         1 RES1   0.0000
    56 C3A     11.2698  -2.0278  -2.1174   C.2       1 RES1   0.0000
    57 C4A     13.4751  -1.8205  -0.8681   C.2       1 RES1   0.0000
    58 C5A     14.7436  -2.3312  -0.6424   C.2       1 RES1   0.0000
    59 H3A     15.3216  -2.7279  -1.2834   H         1 RES1   0.0000
    60 C6A     14.9954  -2.1466   0.6968   C.2       1 RES1   0.0000
    61 C7A     10.8215  -2.9733  -4.4639   C.3       1 RES1   0.0000
    62 H4A     10.8971  -3.9456  -4.5537   H         1 RES1   0.0000
    63 H5A     10.1018  -2.6471  -5.0453   H         1 RES1   0.0000
    64 H6A     11.6671  -2.5540  -4.7265   H         1 RES1   0.0000
    65 C8A     13.5775  -1.1577   2.5923   C.3       1 RES1   0.0000
    66 H7A     14.3444  -0.7081   3.0050   H         1 RES1   0.0000
    67 H8A     12.8031  -0.5566   2.6017   H         1 RES1   0.0000
    68 H9A     13.3650  -1.9711   3.0961   H         1 RES1   0.0000
    69 C9A     16.2326  -2.5682   1.4737   C.3       1 RES1   0.0000
    70 C10A    17.2311  -3.1916   0.5010   C.3       1 RES1   0.0000
    71 H10A    17.4601  -2.5400  -0.1943   H         1 RES1   0.0000
    72 H11A    18.0426  -3.4498   0.9860   H         1 RES1   0.0000
    73 H12A    16.8312  -3.9846   0.0871   H         1 RES1   0.0000
    74 C11A    15.8688  -3.6542   2.4811   C.3       1 RES1   0.0000
    75 H13A    15.4803  -4.4206   2.0096   H         1 RES1   0.0000
    76 H14A    16.6753  -3.9399   2.9581   H         1 RES1   0.0000
    77 H15A    15.2173  -3.3000   3.1215   H         1 RES1   0.0000
    78 C12A    16.9154  -1.3682   2.0940   C.3       1 RES1   0.0000
    79 H16A    16.3503  -1.0015   2.8053   H         1 RES1   0.0000
    80 H17A    17.7782  -1.6401   2.4691   H         1 RES1   0.0000
    81 H18A    17.0586  -0.6828   1.4067   H         1 RES1   0.0000
    82 C13A    12.7596  -1.7136  -2.2143   C.3       1 RES1   0.0000
    83 C14A    13.4152  -3.9437  -2.9366   C.3       1 RES1   0.0000
    84 H19A    12.4911  -4.2639  -2.8857   H         1 RES1   0.0000
    85 H20A    13.8804  -4.4020  -3.6681   H         1 RES1   0.0000
    86 H21A    13.8735  -4.1334  -2.0899   H         1 RES1   0.0000
    87 C15A    12.8715  -0.2748  -2.6755   C.ar      1 RES1   0.0000
    88 C16A    13.4793   0.0498  -3.8878   C.ar      1 RES1   0.0000
    89 H22A    13.8495  -0.6244  -4.4451   H         1 RES1   0.0000
    90 C17A    13.5273   1.3557  -4.2495   C.ar      1 RES1   0.0000
    91 H23A    13.9121   1.6218  -5.0748   H         1 RES1   0.0000
    92 C18A    12.9927   2.2912  -3.3680   C.ar      1 RES1   0.0000
    93 H24A    13.0439   3.2141  -3.5931   H         1 RES1   0.0000
    94 C19A    12.3936   1.9289  -2.1824   C.ar      1 RES1   0.0000
    95 H25A    12.0302   2.5956  -1.6117   H         1 RES1   0.0000
    96 N1A     10.5384  -1.6297  -1.0775   N.2       1 RES1   0.0000
    97 N2A     10.5155  -2.6281  -3.0597   N.pl3     1 RES1   0.0000
    98 N3A     12.9545  -1.3014   0.2497   N.2       1 RES1   0.0000
    99 N4A     13.9044  -1.5101   1.2127   N.pl3     1 RES1   0.0000
   100 N5A     12.3213   0.6258  -1.8328   N.ar      1 RES1   0.0000
   101 O1A     13.4208  -2.5225  -3.1775   O.3       1 RES1   0.0000
   102 C20      4.9046   4.3951   4.3705   C.ar      2 RES2   0.0000
   103 C21      5.4836   3.5104   3.4645   C.ar      2 RES2   0.0000
   104 H26      5.9773   3.8663   2.7357   H         2 RES2   0.0000
   105 C22      5.3706   2.1270   3.5797   C.ar      2 RES2   0.0000
   106 H27      5.8016   1.5595   2.9500   H         2 RES2   0.0000
   107 C23      4.6317   1.5795   4.6133   C.ar      2 RES2   0.0000
   108 H28      4.5426   0.6358   4.6916   H         2 RES2   0.0000
   109 C24      4.0239   2.4176   5.5323   C.ar      2 RES2   0.0000
   110 H29      3.5148   2.0536   6.2470   H         2 RES2   0.0000
   111 C25      4.1625   3.7914   5.4038   C.ar      2 RES2   0.0000
   112 H30      3.7376   4.3507   6.0421   H         2 RES2   0.0000
   113 C26      6.6098   6.3094   5.0768   C.ar      2 RES2   0.0000
   114 C27      7.2560   5.3800   5.9019   C.ar      2 RES2   0.0000
   115 H31      6.8462   4.5357   6.0447   H         2 RES2   0.0000
   116 C28      8.4783   5.6465   6.5217   C.ar      2 RES2   0.0000
   117 H32      8.8913   4.9827   7.0602   H         2 RES2   0.0000
   118 C29      9.0823   6.8618   6.3556   C.ar      2 RES2   0.0000
   119 H33      9.9142   7.0469   6.7749   H         2 RES2   0.0000
   120 C30      8.4668   7.8160   5.5718   C.ar      2 RES2   0.0000
   121 H34      8.8770   8.6644   5.4472   H         2 RES2   0.0000
   122 C31      7.2567   7.5388   4.9676   C.ar      2 RES2   0.0000
   123 H35      6.8445   8.2209   4.4518   H         2 RES2   0.0000
   124 C32      3.9573   6.7905   5.0860   C.ar      2 RES2   0.0000
   125 C33      4.1580   7.6401   6.1734   C.ar      2 RES2   0.0000
   126 H36      5.0446   7.7833   6.4828   H         2 RES2   0.0000
   127 C34      3.1081   8.2889   6.8244   C.ar      2 RES2   0.0000
   128 H37      3.2941   8.8572   7.5626   H         2 RES2   0.0000
   129 C35      1.8043   8.1135   6.4118   C.ar      2 RES2   0.0000
   130 H38      1.0929   8.5724   6.8419   H         2 RES2   0.0000
   131 C36      1.5590   7.2637   5.3642   C.ar      2 RES2   0.0000
   132 H39      0.6670   7.1228   5.0681   H         2 RES2   0.0000
   133 C37      2.6130   6.6053   4.7321   C.ar      2 RES2   0.0000
   134 H40      2.4115   6.0001   4.0271   H         2 RES2   0.0000
   135 C38      5.3313   6.4696   2.7124   C.ar      2 RES2   0.0000
   136 C39      6.5741   6.6150   2.0779   C.ar      2 RES2   0.0000
   137 H41      7.3624   6.4792   2.5923   H         2 RES2   0.0000
   138 C40      6.7118   6.9467   0.7328   C.ar      2 RES2   0.0000
   139 H42      7.5784   7.0241   0.3510   H         2 RES2   0.0000
   140 C41      5.5991   7.1640  -0.0442   C.ar      2 RES2   0.0000
   141 H43      5.6877   7.3982  -0.9606   H         2 RES2   0.0000
   142 C42      4.3555   7.0367   0.5292   C.ar      2 RES2   0.0000
   143 H44      3.5765   7.1821   0.0054   H         2 RES2   0.0000
   144 C43      4.2293   6.6957   1.8761   C.ar      2 RES2   0.0000
   145 H45      3.3564   6.6131   2.2427   H         2 RES2   0.0000
   146 B1       5.1885   6.0043   4.3089   B         2 RES2  -1.0000
@<TRIPOS>BOND
     1     1     2    1
     2     3     1    2
     3     4     3    1
     4     5    31    1
     5     6     7    1
     6     7     8    1
     7     9     7    2
     8    10    11    1
     9    12    10    1
    10    13    10    1
    11    14    15    1
    12    16    14    1
    13    17    14    1
    14    18     9    1
    15    19    18    1
    16    20    19    1
    17    21    19    1
    18    22    19    1
    19    23    18    1
    20    24    23    1
    21    25    23    1
    22    26    23    1
    23    27    18    1
    24    28    27    1
    25    29    27    1
    26    30    27    1
    27    31     6    1
    28    32    33    1
    29    34    32    1
    30    35    32    1
    31    36    31    1
    32    37    36   ar
    33    38    37    1
    34    39    37   ar
    35    40    39    1
    36    41    39   ar
    37    42    41    1
    38    43    41   ar
    39    44    43    1
    40    45    46    1
    41    46     1    1
    42    47     3    1
    43    48     6    2
    44    49     9    1
    45    50    36   ar
    46    51    31    1
    47    52    53    1
    48    54    52    2
    49    55    54    1
    50    56    82    1
    51    57    58    1
    52    58    59    1
    53    60    58    2
    54    61    62    1
    55    63    61    1
    56    64    61    1
    57    65    66    1
    58    67    65    1
    59    68    65    1
    60    69    60    1
    61    70    69    1
    62    71    70    1
    63    72    70    1
    64    73    70    1
    65    74    69    1
    66    75    74    1
    67    76    74    1
    68    77    74    1
    69    78    69    1
    70    79    78    1
    71    80    78    1
    72    81    78    1
    73    82    57    1
    74    83    84    1
    75    85    83    1
    76    86    83    1
    77    87    82    1
    78    88    87   ar
    79    89    88    1
    80    90    88   ar
    81    91    90    1
    82    92    90   ar
    83    93    92    1
    84    94    92   ar
    85    95    94    1
    86    96    45    1
    87    97    54    1
    88    98    45    1
    89    99    60    1
    90   100    45    1
    91   101    82    1
    92     5    46    2
    93     5    47    1
    94    10    47    1
    95    14    49    1
    96    32    51    1
    97    43    50   ar
    98    45    48    1
    99    45    50    1
   100    48    49    1
   101    52    96    1
   102    56    96    2
   103    56    97    1
   104    57    98    2
   105    61    97    1
   106    65    99    1
   107    83   101    1
   108    87   100   ar
   109    94   100   ar
   110    98    99    1
   111   102   103   ar
   112   103   104    1
   113   105   103   ar
   114   106   105    1
   115   107   105   ar
   116   108   107    1
   117   109   107   ar
   118   110   109    1
   119   111   102   ar
   120   112   111    1
   121   113   114   ar
   122   114   115    1
   123   116   114   ar
   124   117   116    1
   125   118   116   ar
   126   119   118    1
   127   120   118   ar
   128   121   120    1
   129   122   113   ar
   130   123   122    1
   131   124   125   ar
   132   125   126    1
   133   127   125   ar
   134   128   127    1
   135   129   127   ar
   136   130   129    1
   137   131   129   ar
   138   132   131    1
   139   133   124   ar
   140   134   133    1
   141   135   136   ar
   142   136   137    1
   143   138   136   ar
   144   139   138    1
   145   140   138   ar
   146   141   140    1
   147   142   140   ar
   148   143   142    1
   149   144   135   ar
   150   145   144    1
   151   146   102    1
   152   109   111   ar
   153   113   146    1
   154   120   122   ar
   155   124   146    1
   156   131   133   ar
   157   135   146    1
   158   142   144   ar
@<TRIPOS>SUBSTRUCTURE
     1 RES1        1 GROUP             0 ****  ****    0  
     2 RES2      102 GROUP             0 ****  ****    0  
@<TRIPOS>CRYSIN
   11.2810   13.3890   14.3520  106.8720   94.2980  113.9240     2     1
