@<TRIPOS>MOLECULE
RULNUI
   115   120     1     0     0
SMALL
NO_CHARGES
****
Generated from the CSD

@<TRIPOS>ATOM
     1 Fe1      0.0000   0.0000   0.0000   Fe        1 RES1   0.0000
     2 P1      -0.8155  -3.0795   1.3760   P.3       1 RES1   0.0000
     3 O1      -0.3508  -1.6750   1.1639   O.co2     1 RES1   0.0000
     4 O2      -0.5903  -3.4401   2.9346   O.3       1 RES1   0.0000
     5 O3      -2.3761  -3.1787   1.2376   O.3       1 RES1   0.0000
     6 O4      -0.1563  -4.1280   0.5546   O.co2     1 RES1   0.0000
     7 N1       2.0765  -0.8060  -0.4462   N.ar      1 RES1   0.0000
     8 N2       0.7847   0.9845   1.8086   N.ar      1 RES1   0.0000
     9 C1       0.1401  -2.7173   3.8939   C.ar      1 RES1   0.0000
    10 C2      -0.5314  -1.7706   4.6632   C.ar      1 RES1   0.0000
    11 C3       0.1963  -1.1380   5.6721   C.ar      1 RES1   0.0000
    12 H1      -0.2270  -0.4644   6.1901   H         1 RES1   0.0000
    13 C4       1.5069  -1.4596   5.9414   C.ar      1 RES1   0.0000
    14 H2       1.9684  -1.0309   6.6527   H         1 RES1   0.0000
    15 C5       2.1415  -2.4019   5.1786   C.ar      1 RES1   0.0000
    16 H3       3.0491  -2.6154   5.3603   H         1 RES1   0.0000
    17 C6       1.4784  -3.0542   4.1362   C.ar      1 RES1   0.0000
    18 C7       2.1697  -4.1384   3.3424   C.3       1 RES1   0.0000
    19 H4       1.6785  -4.2614   2.4804   H         1 RES1   0.0000
    20 C8       2.1043  -5.4415   4.1259   C.3       1 RES1   0.0000
    21 H5       2.5510  -6.1510   3.6182   H         1 RES1   0.0000
    22 H6       1.1671  -5.6862   4.2740   H         1 RES1   0.0000
    23 H7       2.5521  -5.3261   4.9905   H         1 RES1   0.0000
    24 C9       3.6228  -3.7967   3.0242   C.3       1 RES1   0.0000
    25 H8       4.0260  -4.5283   2.5113   H         1 RES1   0.0000
    26 H9       4.1197  -3.6711   3.8591   H         1 RES1   0.0000
    27 H10      3.6567  -2.9707   2.4972   H         1 RES1   0.0000
    28 C10     -2.0160  -1.5185   4.4647   C.3       1 RES1   0.0000
    29 H11     -2.2387  -1.7327   3.5138   H         1 RES1   0.0000
    30 C11     -2.8150  -2.4538   5.3525   C.3       1 RES1   0.0000
    31 H12     -3.7716  -2.2884   5.2224   H         1 RES1   0.0000
    32 H13     -2.5798  -2.2938   6.2906   H         1 RES1   0.0000
    33 H14     -2.6088  -3.3822   5.1180   H         1 RES1   0.0000
    34 C12     -2.3897  -0.0582   4.7160   C.3       1 RES1   0.0000
    35 H15     -3.3525   0.0608   4.5781   H         1 RES1   0.0000
    36 H16     -1.8976   0.5168   4.0937   H         1 RES1   0.0000
    37 H17     -2.1585   0.1847   5.6360   H         1 RES1   0.0000
    38 C13      2.4897  -2.0322  -0.0850   C.ar      1 RES1   0.0000
    39 H18      1.8950  -2.5764   0.4175   H         1 RES1   0.0000
    40 C14      3.7205  -2.5401  -0.4033   C.ar      1 RES1   0.0000
    41 H19      3.9692  -3.4117  -0.1198   H         1 RES1   0.0000
    42 C15      4.5895  -1.7726  -1.1391   C.ar      1 RES1   0.0000
    43 H20      5.4442  -2.1072  -1.3852   H         1 RES1   0.0000
    44 C16      4.2012  -0.5239  -1.5050   C.ar      1 RES1   0.0000
    45 H21      4.7854   0.0318  -2.0075   H         1 RES1   0.0000
    46 C17      2.9483  -0.0695  -1.1416   C.ar      1 RES1   0.0000
    47 H22      2.6940   0.8093  -1.3981   H         1 RES1   0.0000
    48 C18      0.4400   2.2352   2.1390   C.ar      1 RES1   0.0000
    49 H23     -0.2256   2.6784   1.6261   H         1 RES1   0.0000
    50 C19      1.0133   2.8983   3.1891   C.ar      1 RES1   0.0000
    51 H24      0.7591   3.7955   3.3708   H         1 RES1   0.0000
    52 C20      1.9126   2.3132   3.9532   C.ar      1 RES1   0.0000
    53 H25      2.3255   2.7947   4.6606   H         1 RES1   0.0000
    54 C21      2.2390   1.0494   3.7290   C.ar      1 RES1   0.0000
    55 H26      2.8602   0.6053   4.2947   H         1 RES1   0.0000
    56 C22      1.6624   0.3805   2.6557   C.ar      1 RES1   0.0000
    57 H27      1.8877  -0.5307   2.5088   H         1 RES1   0.0000
    58 H28     -2.6614  -3.8325   0.6958   H         1 RES1   0.0000
    59 P1A      0.8155   3.0795  -1.3760   P.3       1 RES1   0.0000
    60 O1A      0.3508   1.6750  -1.1639   O.co2     1 RES1   0.0000
    61 O2A      0.5903   3.4401  -2.9346   O.3       1 RES1   0.0000
    62 O3A      2.3761   3.1787  -1.2376   O.3       1 RES1   0.0000
    63 O4A      0.1563   4.1280  -0.5546   O.co2     1 RES1   0.0000
    64 N1A     -2.0765   0.8060   0.4462   N.ar      1 RES1   0.0000
    65 N2A     -0.7847  -0.9845  -1.8086   N.ar      1 RES1   0.0000
    66 C1A     -0.1401   2.7173  -3.8939   C.ar      1 RES1   0.0000
    67 C2A      0.5314   1.7706  -4.6632   C.ar      1 RES1   0.0000
    68 C3A     -0.1963   1.1380  -5.6721   C.ar      1 RES1   0.0000
    69 H1A      0.2270   0.4644  -6.1901   H         1 RES1   0.0000
    70 C4A     -1.5069   1.4596  -5.9414   C.ar      1 RES1   0.0000
    71 H2A     -1.9684   1.0309  -6.6527   H         1 RES1   0.0000
    72 C5A     -2.1415   2.4019  -5.1786   C.ar      1 RES1   0.0000
    73 H3A     -3.0491   2.6154  -5.3603   H         1 RES1   0.0000
    74 C6A     -1.4784   3.0542  -4.1362   C.ar      1 RES1   0.0000
    75 C7A     -2.1697   4.1384  -3.3424   C.3       1 RES1   0.0000
    76 H4A     -1.6785   4.2614  -2.4804   H         1 RES1   0.0000
    77 C8A     -2.1043   5.4415  -4.1259   C.3       1 RES1   0.0000
    78 H5A     -2.5510   6.1510  -3.6182   H         1 RES1   0.0000
    79 H6A     -1.1671   5.6862  -4.2740   H         1 RES1   0.0000
    80 H7A     -2.5521   5.3261  -4.9905   H         1 RES1   0.0000
    81 C9A     -3.6228   3.7967  -3.0242   C.3       1 RES1   0.0000
    82 H8A     -4.0260   4.5283  -2.5113   H         1 RES1   0.0000
    83 H9A     -4.1197   3.6711  -3.8591   H         1 RES1   0.0000
    84 H10A    -3.6567   2.9707  -2.4972   H         1 RES1   0.0000
    85 C10A     2.0160   1.5185  -4.4647   C.3       1 RES1   0.0000
    86 H11A     2.2387   1.7327  -3.5138   H         1 RES1   0.0000
    87 C11A     2.8150   2.4538  -5.3525   C.3       1 RES1   0.0000
    88 H12A     3.7716   2.2884  -5.2224   H         1 RES1   0.0000
    89 H13A     2.5798   2.2938  -6.2906   H         1 RES1   0.0000
    90 H14A     2.6088   3.3822  -5.1180   H         1 RES1   0.0000
    91 C12A     2.3897   0.0582  -4.7160   C.3       1 RES1   0.0000
    92 H15A     3.3525  -0.0608  -4.5781   H         1 RES1   0.0000
    93 H16A     1.8976  -0.5168  -4.0937   H         1 RES1   0.0000
    94 H17A     2.1585  -0.1847  -5.6360   H         1 RES1   0.0000
    95 C13A    -2.4897   2.0322   0.0850   C.ar      1 RES1   0.0000
    96 H18A    -1.8950   2.5764  -0.4175   H         1 RES1   0.0000
    97 C14A    -3.7205   2.5401   0.4033   C.ar      1 RES1   0.0000
    98 H19A    -3.9692   3.4117   0.1198   H         1 RES1   0.0000
    99 C15A    -4.5895   1.7726   1.1391   C.ar      1 RES1   0.0000
   100 H20A    -5.4442   2.1072   1.3852   H         1 RES1   0.0000
   101 C16A    -4.2012   0.5239   1.5050   C.ar      1 RES1   0.0000
   102 H21A    -4.7854  -0.0318   2.0075   H         1 RES1   0.0000
   103 C17A    -2.9483   0.0695   1.1416   C.ar      1 RES1   0.0000
   104 H22A    -2.6940  -0.8093   1.3981   H         1 RES1   0.0000
   105 C18A    -0.4400  -2.2352  -2.1390   C.ar      1 RES1   0.0000
   106 H23A     0.2256  -2.6784  -1.6261   H         1 RES1   0.0000
   107 C19A    -1.0133  -2.8983  -3.1891   C.ar      1 RES1   0.0000
   108 H24A    -0.7591  -3.7955  -3.3708   H         1 RES1   0.0000
   109 C20A    -1.9126  -2.3132  -3.9532   C.ar      1 RES1   0.0000
   110 H25A    -2.3255  -2.7947  -4.6606   H         1 RES1   0.0000
   111 C21A    -2.2390  -1.0494  -3.7290   C.ar      1 RES1   0.0000
   112 H26A    -2.8602  -0.6053  -4.2947   H         1 RES1   0.0000
   113 C22A    -1.6624  -0.3805  -2.6557   C.ar      1 RES1   0.0000
   114 H27A    -1.8877   0.5307  -2.5088   H         1 RES1   0.0000
   115 H28A     2.6614   3.8325  -0.6958   H         1 RES1   0.0000
@<TRIPOS>BOND
     1     1     3    1
     2     2     3    1
     3     4     2    1
     4     5     2    1
     5     6     2    2
     6     7     1    1
     7     8     1    1
     8     9     4    1
     9    10     9   ar
    10    11    10   ar
    11    12    11    1
    12    13    11   ar
    13    14    13    1
    14    15    13   ar
    15    16    15    1
    16    17     9   ar
    17    18    17    1
    18    19    18    1
    19    20    18    1
    20    21    20    1
    21    22    20    1
    22    23    20    1
    23    24    18    1
    24    25    24    1
    25    26    24    1
    26    27    24    1
    27    28    10    1
    28    29    28    1
    29    30    28    1
    30    31    30    1
    31    32    30    1
    32    33    30    1
    33    34    28    1
    34    35    34    1
    35    36    34    1
    36    37    34    1
    37    38     7   ar
    38    39    38    1
    39    40    38   ar
    40    41    40    1
    41    42    40   ar
    42    43    42    1
    43    44    42   ar
    44    45    44    1
    45    46     7   ar
    46    47    46    1
    47    48     8   ar
    48    49    48    1
    49    50    48   ar
    50    51    50    1
    51    52    50   ar
    52    53    52    1
    53    54    52   ar
    54    55    54    1
    55    56     8   ar
    56    57    56    1
    57    58     5    1
    58    59    60    1
    59    60     1    1
    60    61    59    1
    61    62    59    1
    62    63    59    2
    63    64     1    1
    64    65     1    1
    65    66    61    1
    66    67    66   ar
    67    68    67   ar
    68    69    68    1
    69    70    68   ar
    70    71    70    1
    71    72    70   ar
    72    73    72    1
    73    74    66   ar
    74    75    74    1
    75    76    75    1
    76    77    75    1
    77    78    77    1
    78    79    77    1
    79    80    77    1
    80    81    75    1
    81    82    81    1
    82    83    81    1
    83    84    81    1
    84    85    67    1
    85    86    85    1
    86    87    85    1
    87    88    87    1
    88    89    87    1
    89    90    87    1
    90    91    85    1
    91    92    91    1
    92    93    91    1
    93    94    91    1
    94    95    64   ar
    95    96    95    1
    96    97    95   ar
    97    98    97    1
    98    99    97   ar
    99   100    99    1
   100   101    99   ar
   101   102   101    1
   102   103    64   ar
   103   104   103    1
   104   105    65   ar
   105   106   105    1
   106   107   105   ar
   107   108   107    1
   108   109   107   ar
   109   110   109    1
   110   111   109   ar
   111   112   111    1
   112   113    65   ar
   113   114   113    1
   114   115    62    1
   115    15    17   ar
   116    44    46   ar
   117    54    56   ar
   118    72    74   ar
   119   101   103   ar
   120   111   113   ar
@<TRIPOS>SUBSTRUCTURE
     1 RES1        1 GROUP             0 ****  ****    0  
@<TRIPOS>CRYSIN
    9.4020    9.5560   13.0220   81.6900   86.9160   68.4200     2     1
