@<TRIPOS>MOLECULE
SANKEA
   185   197     3     0     0
SMALL
USER_CHARGES
****
Generated from the CSD

@<TRIPOS>ATOM
     1 Fe1      9.6502   7.1248  12.8753   Fe        1 RES1   2.0000
     2 N1      10.2649   8.9603  13.1832   N.ar      1 RES1   0.0000
     3 N2       8.9786   6.9578  14.7059   N.ar      1 RES1   0.0000
     4 N3      11.6047  10.5636   8.9632   N.am      1 RES1   0.0000
     5 H1      10.9908  11.1598   9.0461   H         1 RES1   0.0000
     6 N4       7.7712   7.5908  12.5426   N.ar      1 RES1   0.0000
     7 O1      11.5011   8.1183  18.3028   O.2       1 RES1   0.0000
     8 N5       9.2188   5.2587  12.4297   N.ar      1 RES1   0.0000
     9 N6      11.5257   6.7227  13.3453   N.ar      1 RES1   0.0000
    10 N7       7.8275  12.3096  12.7584   N.am      1 RES1   0.0000
    11 H2       7.4843  12.1588  11.9849   H         1 RES1   0.0000
    12 C1      10.0700  11.3518  13.1227   C.ar      1 RES1   0.0000
    13 C2       9.2562   3.6248  10.6968   C.ar      1 RES1   0.0000
    14 H3       9.4548   3.3969   9.8179   H         1 RES1   0.0000
    15 C3       8.7233   2.6885  11.5567   C.ar      1 RES1   0.0000
    16 H4       8.5541   1.8232  11.2597   H         1 RES1   0.0000
    17 C4       6.1998   7.1644   8.1413   C.2       1 RES1   0.0000
    18 N8      11.4232   5.9531  17.9350   N.am      1 RES1   0.0000
    19 H5      11.8425   5.2305  17.7347   H         1 RES1   0.0000
    20 C5       4.9657  11.7997  12.4338   C.ar      1 RES1   0.0000
    21 H6       5.3665  12.1596  11.6758   H         1 RES1   0.0000
    22 N9       7.6567   2.4609  15.1447   N.am      1 RES1   0.0000
    23 H7       8.3295   2.4462  15.6782   H         1 RES1   0.0000
    24 N10     13.2056   2.8812  13.2782   N.am      1 RES1   0.0000
    25 H8      12.6911   2.4279  13.7962   H         1 RES1   0.0000
    26 N11     10.1574   7.1458  10.9715   N.ar      1 RES1   0.0000
    27 C6       6.9544   7.4515  13.6097   C.ar      1 RES1   0.0000
    28 C7      12.2925   7.8100  13.5613   C.ar      1 RES1   0.0000
    29 C8       9.4879   4.8890  11.1492   C.ar      1 RES1   0.0000
    30 C9       9.6901   6.6133  15.7732   C.ar      1 RES1   0.0000
    31 H9      10.6108   6.5339  15.6782   H         1 RES1   0.0000
    32 C10      7.2233   7.9543  11.3719   C.ar      1 RES1   0.0000
    33 H10      7.7891   8.0757  10.6450   H         1 RES1   0.0000
    34 C11      7.6437   7.0935  14.8460   C.ar      1 RES1   0.0000
    35 C12      9.1402   6.3622  17.0216   C.ar      1 RES1   0.0000
    36 C13     11.5927   9.0902  13.4474   C.ar      1 RES1   0.0000
    37 C14      9.5522  10.0790  13.0330   C.ar      1 RES1   0.0000
    38 H11      8.6432   9.9942  12.8551   H         1 RES1   0.0000
    39 C15      8.7064   4.3148  13.2419   C.ar      1 RES1   0.0000
    40 H12      8.5218   4.5502  14.1225   H         1 RES1   0.0000
    41 C16     10.6008   8.2083  10.2634   C.ar      1 RES1   0.0000
    42 H13     10.6924   9.0226  10.7037   H         1 RES1   0.0000
    43 C17      5.5836   7.6221  13.4836   C.ar      1 RES1   0.0000
    44 H14      5.0313   7.5043  14.2226   H         1 RES1   0.0000
    45 C18      5.8732   8.1548  11.1820   C.ar      1 RES1   0.0000
    46 C19     10.0149   5.9878  10.3186   C.ar      1 RES1   0.0000
    47 C20     12.0870   5.5209  13.4353   C.ar      1 RES1   0.0000
    48 H15     11.5507   4.7741  13.2885   H         1 RES1   0.0000
    49 C21      8.4435   3.0349  12.8551   C.ar      1 RES1   0.0000
    50 C22     12.1856  10.3254  13.5579   C.ar      1 RES1   0.0000
    51 H16     13.0965  10.3928  13.7340   H         1 RES1   0.0000
    52 C23      7.7750   6.4916  17.1442   C.ar      1 RES1   0.0000
    53 H17      7.3608   6.3194  17.9592   H         1 RES1   0.0000
    54 C24     10.3380   5.8674   8.9753   C.ar      1 RES1   0.0000
    55 H18     10.2419   5.0487   8.5419   H         1 RES1   0.0000
    56 C25     10.9272   8.1521   8.9235   C.ar      1 RES1   0.0000
    57 C26      7.0304   6.8736  16.0650   C.ar      1 RES1   0.0000
    58 H19      6.1100   6.9842  16.1513   H         1 RES1   0.0000
    59 C27     13.4226   5.3117  13.7357   C.ar      1 RES1   0.0000
    60 C28     14.2006   6.4371  13.9257   C.ar      1 RES1   0.0000
    61 H20     15.1108   6.3500  14.0897   H         1 RES1   0.0000
    62 C29     11.4277  11.4506  13.4077   C.ar      1 RES1   0.0000
    63 H21     11.8222  12.2886  13.4974   H         1 RES1   0.0000
    64 C30     13.6414   7.6648  13.8704   C.ar      1 RES1   0.0000
    65 H22     14.1605   8.4185  14.0413   H         1 RES1   0.0000
    66 C31      9.9856   5.9042  18.1905   C.3       1 RES1   0.0000
    67 H23      9.7857   6.4608  18.9589   H         1 RES1   0.0000
    68 H24      9.7405   4.9921  18.4167   H         1 RES1   0.0000
    69 C32      7.8385   2.0167  13.7858   C.3       1 RES1   0.0000
    70 H25      6.9746   1.7513  13.4318   H         1 RES1   0.0000
    71 H26      8.4051   1.2313  13.7927   H         1 RES1   0.0000
    72 C33     10.7936   6.9465   8.3001   C.ar      1 RES1   0.0000
    73 H27     11.0197   6.8662   7.4005   H         1 RES1   0.0000
    74 C34      5.0487   7.9608  12.2715   C.ar      1 RES1   0.0000
    75 H28      4.1273   8.0615  12.1817   H         1 RES1   0.0000
    76 C35     11.3531   9.3884   8.1655   C.3       1 RES1   0.0000
    77 H29     12.1607   9.1798   7.6699   H         1 RES1   0.0000
    78 H30     10.6629   9.6028   7.5197   H         1 RES1   0.0000
    79 C36      9.2461  12.5825  12.8707   C.3       1 RES1   0.0000
    80 H31      9.3886  13.2101  13.5959   H         1 RES1   0.0000
    81 H32      9.5502  13.0029  12.0505   H         1 RES1   0.0000
    82 C37      5.3275   8.6339   9.8541   C.3       1 RES1   0.0000
    83 H33      4.4747   8.2017   9.6918   H         1 RES1   0.0000
    84 H34      5.1701   9.5877   9.9077   H         1 RES1   0.0000
    85 N12      6.2102   8.3658   8.7335   N.am      1 RES1   0.0000
    86 H35      6.7414   8.9791   8.4486   H         1 RES1   0.0000
    87 O2       5.4560   6.2765   8.5073   O.2       1 RES1   0.0000
    88 C38      7.1385   6.9575   6.9775   C.ar      1 RES1   0.0000
    89 C39      7.3747   5.6734   6.5804   C.ar      1 RES1   0.0000
    90 H36      6.9631   4.9753   7.0362   H         1 RES1   0.0000
    91 C40      8.7830   6.4352   4.8520   C.ar      1 RES1   0.0000
    92 C41      8.2022   5.3905   5.5271   C.ar      1 RES1   0.0000
    93 H37      8.3677   4.5109   5.2750   H         1 RES1   0.0000
    94 C42      8.5623   7.7274   5.2284   C.ar      1 RES1   0.0000
    95 H38      8.9664   8.4285   4.7691   H         1 RES1   0.0000
    96 C43      7.0494  12.2894  13.8359   C.2       1 RES1   0.0000
    97 O3       7.4575  12.6191  14.9289   O.2       1 RES1   0.0000
    98 C44      5.6387  11.8165  13.6390   C.ar      1 RES1   0.0000
    99 C45      3.7027  11.2558  12.3475   C.ar      1 RES1   0.0000
   100 H39      3.2573  11.2186  11.5308   H         1 RES1   0.0000
   101 C46      3.1205  10.7739  13.4767   C.ar      1 RES1   0.0000
   102 C47      5.0038  11.3162  14.7648   C.ar      1 RES1   0.0000
   103 H40      5.4398  11.3275  15.5850   H         1 RES1   0.0000
   104 N13      1.7909  10.2077  13.3800   N.pl3     1 RES1   0.0000
   105 O4       1.3292   9.9195  12.3319   O.2       1 RES1   0.0000
   106 C48     12.0858   7.0896  18.0041   C.2       1 RES1   0.0000
   107 C49     13.5389   7.1044  17.6846   C.ar      1 RES1   0.0000
   108 C50     13.2281   2.5968  11.9849   C.2       1 RES1   0.0000
   109 O5      13.9617   3.2152  11.2079   O.2       1 RES1   0.0000
   110 C51     12.3034   1.5310  11.4617   C.ar      1 RES1   0.0000
   111 C52     14.1343   8.3332  17.5845   C.ar      1 RES1   0.0000
   112 H41     13.6240   9.1009  17.7071   H         1 RES1   0.0000
   113 C53     16.2075   7.2882  17.0751   C.ar      1 RES1   0.0000
   114 C54     15.6557   6.0756  17.1632   C.ar      1 RES1   0.0000
   115 H42     16.1656   5.3090  17.0250   H         1 RES1   0.0000
   116 C55     15.4912   8.4480  17.3030   C.ar      1 RES1   0.0000
   117 H43     15.9041   9.2819  17.2685   H         1 RES1   0.0000
   118 C56     14.2978   5.9839  17.4653   C.ar      1 RES1   0.0000
   119 H44     13.8989   5.1457  17.5189   H         1 RES1   0.0000
   120 C57      3.7374  10.8065  14.6750   C.ar      1 RES1   0.0000
   121 H45      3.3058  10.4859  15.4330   H         1 RES1   0.0000
   122 C58     10.6576  -0.1983  11.6879   C.ar      1 RES1   0.0000
   123 H46     10.1385  -0.7571  12.2197   H         1 RES1   0.0000
   124 C59     11.5399   0.6989  12.2646   C.ar      1 RES1   0.0000
   125 H47     11.6196   0.7429  13.1901   H         1 RES1   0.0000
   126 C60     12.2110   1.3992  10.1011   C.ar      1 RES1   0.0000
   127 H48     12.7547   1.9182   9.5537   H         1 RES1   0.0000
   128 C61     10.5586  -0.2499  10.3238   C.ar      1 RES1   0.0000
   129 C62     11.3213   0.5131   9.5295   C.ar      1 RES1   0.0000
   130 H49     11.2529   0.4461   8.6040   H         1 RES1   0.0000
   131 N14      9.6498   6.1488   3.6899   N.pl3     1 RES1   0.0000
   132 O6       9.8502   4.9890   3.4033   O.2       1 RES1   0.0000
   133 O7      10.1292   7.0578   3.0977   O.2       1 RES1   0.0000
   134 C63      7.7377   7.9757   6.2903   C.ar      1 RES1   0.0000
   135 H50      7.5808   8.8543   6.5493   H         1 RES1   0.0000
   136 C64      6.4944   2.8859  15.5988   C.2       1 RES1   0.0000
   137 O8       5.5207   2.9666  14.8667   O.2       1 RES1   0.0000
   138 C65      6.3793   3.2231  17.0509   C.ar      1 RES1   0.0000
   139 C66      7.3821   2.9387  17.9644   C.ar      1 RES1   0.0000
   140 H51      8.1573   2.5103  17.6829   H         1 RES1   0.0000
   141 C67      5.2280   3.8200  17.4723   C.ar      1 RES1   0.0000
   142 H52      4.5553   4.0150  16.8593   H         1 RES1   0.0000
   143 C68      7.2332   3.2852  19.2749   C.ar      1 RES1   0.0000
   144 H53      7.9165   3.1319  19.8861   H         1 RES1   0.0000
   145 N15     17.6543   7.4666  16.7695   N.pl3     1 RES1   0.0000
   146 O9      18.2495   6.4605  16.4967   O.2       1 RES1   0.0000
   147 O10     18.1679   8.5432  16.9163   O.2       1 RES1   0.0000
   148 O11      1.2301   9.9189  14.2796   O.2       1 RES1   0.0000
   149 C69      6.0656   3.8608  19.6669   C.ar      1 RES1   0.0000
   150 N16      5.9065   4.1695  21.1121   N.pl3     1 RES1   0.0000
   151 C70      5.0592   4.1380  18.8139   C.ar      1 RES1   0.0000
   152 H54      4.2713   4.5320  19.1160   H         1 RES1   0.0000
   153 C71     14.0203   3.9321  13.8480   C.3       1 RES1   0.0000
   154 H55     14.8838   3.9307  13.4059   H         1 RES1   0.0000
   155 H56     14.1720   3.7334  14.7855   H         1 RES1   0.0000
   156 N17      9.5420  -1.0936   9.7022   N.pl3     1 RES1   0.0000
   157 O12      9.4845  -1.1174   8.4814   O.2       1 RES1   0.0000
   158 O13      4.7834   4.3150  21.5127   O.2       1 RES1   0.0000
   159 O14      6.9152   4.3140  21.7717   O.2       1 RES1   0.0000
   160 O15      8.8634  -1.7808  10.4326   O.2       1 RES1   0.0000
   161 O16     13.6268   9.8637   9.5623   O.2       1 RES1   0.0000
   162 C72     12.4400  14.2118  11.1353   C.ar      1 RES1   0.0000
   163 H57     11.8345  14.9156  11.1906   H         1 RES1   0.0000
   164 C73     13.6258  14.2812  11.7898   C.ar      1 RES1   0.0000
   165 C74     12.1346  13.0915  10.3860   C.ar      1 RES1   0.0000
   166 H58     11.3243  13.0473   9.9318   H         1 RES1   0.0000
   167 C75     14.5342  13.2586  11.7190   C.ar      1 RES1   0.0000
   168 H59     15.3412  13.3156  12.1783   H         1 RES1   0.0000
   169 C76     14.2444  12.1486  10.9644   C.ar      1 RES1   0.0000
   170 H60     14.8712  11.4640  10.8936   H         1 RES1   0.0000
   171 C77     13.0293  12.0339  10.3083   C.ar      1 RES1   0.0000
   172 C78     12.7910  10.7391   9.5813   C.2       1 RES1   0.0000
   173 N18     13.9498  15.4680  12.6168   N.pl3     1 RES1   0.0000
   174 O17     13.2470  16.4155  12.5564   O.2       1 RES1   0.0000
   175 O18     14.9149  15.4368  13.2937   O.2       1 RES1   0.0000
   176 Cl1      8.0544  11.4504   9.0590   Cl        2 RES2   0.0000
   177 O19      9.1903  12.3016   9.3327   O.2       2 RES2   0.0000
   178 O20      8.4310  10.1400   8.5436   O.2       2 RES2   0.0000
   179 O21      7.1597  11.3256  10.1805   O.2       2 RES2   0.0000
   180 O22      7.1071  12.1944   7.7580   O.3       2 RES2  -1.0000
   181 Cl2     11.3691   2.4968  16.4910   Cl        3 RES3   0.0000
   182 O23     12.4362   3.4584  16.7298   O.2       3 RES3   0.0000
   183 O24     10.1247   3.1328  16.4794   O.2       3 RES3   0.0000
   184 O25     11.6912   1.7014  15.3795   O.2       3 RES3   0.0000
   185 O26     11.3638   1.4343  17.9212   O.3       3 RES3  -1.0000
@<TRIPOS>BOND
     1     1     2    1
     2     2    36   ar
     3     3     1    1
     4     4     5    1
     5     6     1    1
     6     7   106    2
     7     8     1    1
     8     9     1    1
     9    10    11    1
    10    12    37   ar
    11    13    14    1
    12    15    13   ar
    13    16    15    1
    14    17    85   am
    15    18    19    1
    16    20    21    1
    17    22    23    1
    18    24    25    1
    19    26     1    1
    20    27     6   ar
    21    28     9   ar
    22    29     8   ar
    23    30     3   ar
    24    31    30    1
    25    32     6   ar
    26    33    32    1
    27    34     3   ar
    28    35    30   ar
    29    36    28    1
    30    37     2   ar
    31    38    37    1
    32    39     8   ar
    33    40    39    1
    34    41    26   ar
    35    42    41    1
    36    43    27   ar
    37    44    43    1
    38    45    32   ar
    39    46    26   ar
    40    47     9   ar
    41    48    47    1
    42    49    15   ar
    43    50    36   ar
    44    51    50    1
    45    52    35   ar
    46    53    52    1
    47    54    46   ar
    48    55    54    1
    49    56    41   ar
    50    57    34   ar
    51    58    57    1
    52    59    47   ar
    53    60    59   ar
    54    61    60    1
    55    62    12   ar
    56    63    62    1
    57    64    28   ar
    58    65    64    1
    59    66    18    1
    60    67    66    1
    61    68    66    1
    62    69    22    1
    63    70    69    1
    64    71    69    1
    65    72    54   ar
    66    73    72    1
    67    74    43   ar
    68    75    74    1
    69    76     4    1
    70    77    76    1
    71    78    76    1
    72    79    10    1
    73    80    79    1
    74    81    79    1
    75    82    45    1
    76    83    82    1
    77    84    82    1
    78    85    82    1
    79    86    85    1
    80    87    17    2
    81    88    17    1
    82    89    88   ar
    83    90    89    1
    84    91    92   ar
    85    92    89   ar
    86    93    92    1
    87    94    91   ar
    88    95    94    1
    89    96    10   am
    90    97    96    2
    91    98    20   ar
    92    99    20   ar
    93   100    99    1
    94   101    99   ar
    95   102    98   ar
    96   103   102    1
    97   104   101    1
    98   105   104    2
    99   106    18   am
   100   107   106    1
   101   108    24   am
   102   109   108    2
   103   110   108    1
   104   111   107   ar
   105   112   111    1
   106   113   114   ar
   107   114   115    1
   108   116   111   ar
   109   117   116    1
   110   118   107   ar
   111   119   118    1
   112   120   101   ar
   113   121   120    1
   114   122   123    1
   115   124   110   ar
   116   125   124    1
   117   126   110   ar
   118   127   126    1
   119   128   122   ar
   120   129   126   ar
   121   130   129    1
   122   131    91    1
   123   132   131    2
   124   133   131    2
   125   134    88   ar
   126   135   134    1
   127   136    22   am
   128   137   136    2
   129   138   136    1
   130   139   138   ar
   131   140   139    1
   132   141   138   ar
   133   142   141    1
   134   143   139   ar
   135   144   143    1
   136   145   113    1
   137   146   145    2
   138   147   145    2
   139   148   104    2
   140   149   143   ar
   141   150   149    1
   142   151   141   ar
   143   152   151    1
   144   153    24    1
   145   154   153    1
   146   155   153    1
   147   156   128    1
   148   157   156    2
   149   158   150    2
   150   159   150    2
   151   160   156    2
   152   161   172    2
   153   162   163    1
   154   164   162   ar
   155   165   162   ar
   156   166   165    1
   157   167   164   ar
   158   168   167    1
   159   169   167   ar
   160   170   169    1
   161   171   165   ar
   162   172     4   am
   163   173   164    1
   164   174   173    2
   165   175   173    2
   166    12    79    1
   167    13    29   ar
   168    27    34    1
   169    29    46    1
   170    35    66    1
   171    39    49   ar
   172    45    74   ar
   173    49    69    1
   174    50    62   ar
   175    52    57   ar
   176    56    72   ar
   177    56    76    1
   178    59   153    1
   179    60    64   ar
   180    94   134   ar
   181    96    98    1
   182   102   120   ar
   183   113   116   ar
   184   114   118   ar
   185   122   124   ar
   186   128   129   ar
   187   149   151   ar
   188   169   171   ar
   189   171   172    1
   190   176   177    2
   191   178   176    2
   192   179   176    2
   193   180   176    1
   194   181   182    2
   195   183   181    2
   196   184   181    2
   197   185   181    1
@<TRIPOS>SUBSTRUCTURE
     1 RES1        1 GROUP             0 ****  ****    0  
     2 RES2      176 GROUP             0 ****  ****    0  
     3 RES3      181 GROUP             0 ****  ****    0  
@<TRIPOS>CRYSIN
   14.8200   16.5000   18.5440  111.0090   91.6660   95.9960     2     1
