@<TRIPOS>MOLECULE
SANKIE
   181   189     7     0     0
SMALL
USER_CHARGES
****
Generated from the CSD

@<TRIPOS>ATOM
     1 Fe1      6.3064  20.1032  13.8649   Fe        1 RES1   2.0000
     2 C1       5.3713  17.5552  13.0900   C.ar      1 RES1   0.0000
     3 N1       5.3077  21.6836  13.2774   N.ar      1 RES1   0.0000
     4 N2       5.5076  19.8967  15.6714   N.ar      1 RES1   0.0000
     5 N3       7.2221  20.4142  12.1506   N.ar      1 RES1   0.0000
     6 N4       7.2585  18.4239  14.2324   N.ar      1 RES1   0.0000
     7 N5       5.0271  18.8629  13.0222   N.ar      1 RES1   0.0000
     8 N6       7.5443  21.2454  14.8761   N.ar      1 RES1   0.0000
     9 C2       8.9714  20.0953  10.5154   C.ar      1 RES1   0.0000
    10 C3       6.0111  20.0984  18.0058   C.ar      1 RES1   0.0000
    11 H1       6.5505  20.4430  18.6812   H         1 RES1   0.0000
    12 C4       3.8462  19.1774  12.4284   C.ar      1 RES1   0.0000
    13 H2       3.5941  20.0708  12.3824   H         1 RES1   0.0000
    14 C5       6.6537  17.2993  13.7801   C.ar      1 RES1   0.0000
    15 C6       7.3445  21.2921  16.2249   C.ar      1 RES1   0.0000
    16 C7       7.2003  16.0470  13.9836   C.ar      1 RES1   0.0000
    17 H3       6.7871  15.2915  13.6331   H         1 RES1   0.0000
    18 C8       8.0875  22.1284  17.0566   C.ar      1 RES1   0.0000
    19 H4       7.9315  22.1457  17.9720   H         1 RES1   0.0000
    20 C9       5.6137  22.1429  12.0348   C.ar      1 RES1   0.0000
    21 C10      4.4558  19.1193  16.0003   C.ar      1 RES1   0.0000
    22 H5       3.9114  18.7989  15.3165   H         1 RES1   0.0000
    23 C11      6.2570  20.4218  16.6812   C.ar      1 RES1   0.0000
    24 C12      9.2893  22.8831  15.1278   C.ar      1 RES1   0.0000
    25 C13     10.5905  15.8846  11.4410   C.ar      1 RES1   0.0000
    26 C14      6.7235  21.4353  11.4040   C.ar      1 RES1   0.0000
    27 C15      3.5646  23.3269  13.4375   C.ar      1 RES1   0.0000
    28 C16      9.0006  17.0546  15.1931   C.ar      1 RES1   0.0000
    29 C17      2.9956  18.2190  11.8850   C.ar      1 RES1   0.0000
    30 C18      3.4445  14.8517  15.3890   C.ar      1 RES1   0.0000
    31 C19      8.3121  19.7639  11.6952   C.ar      1 RES1   0.0000
    32 H6       8.6420  19.0538  12.1966   H         1 RES1   0.0000
    33 C20      8.4225  18.2870  14.9046   C.ar      1 RES1   0.0000
    34 H7       8.8606  19.0563  15.1897   H         1 RES1   0.0000
    35 C21      4.5804  16.5660  12.5428   C.ar      1 RES1   0.0000
    36 H8       4.8454  15.6764  12.5908   H         1 RES1   0.0000
    37 C22      4.1449  18.7719  17.3152   C.ar      1 RES1   0.0000
    38 C23      3.6381  15.8352  16.4947   C.2       1 RES1   0.0000
    39 C24      4.9587  19.2623  18.3180   C.ar      1 RES1   0.0000
    40 H9       4.7963  19.0283  19.2046   H         1 RES1   0.0000
    41 C25      8.3728  15.9300  14.7150   C.ar      1 RES1   0.0000
    42 H10      8.7338  15.0901  14.8815   H         1 RES1   0.0000
    43 C26      3.9336  21.8860  20.0839   C.ar      1 RES1   0.0000
    44 C27      8.5131  22.0272  14.3556   C.ar      1 RES1   0.0000
    45 H11      8.6678  21.9928  13.4405   H         1 RES1   0.0000
    46 C28      3.3988  16.9004  11.9256   C.ar      1 RES1   0.0000
    47 H12      2.8712  16.2397  11.5373   H         1 RES1   0.0000
    48 C29      2.1166  20.0071   9.3621   C.2       1 RES1   0.0000
    49 C30      2.3978  23.9183  14.2086   C.3       1 RES1   0.0000
    50 H13      2.4527  24.8859  14.1746   H         1 RES1   0.0000
    51 H14      1.5687  23.6522  13.7804   H         1 RES1   0.0000
    52 C31      4.9148  23.1931  11.4557   C.ar      1 RES1   0.0000
    53 H15      5.1333  23.4916  10.6038   H         1 RES1   0.0000
    54 C32      9.7660  14.7633  11.4251   C.ar      1 RES1   0.0000
    55 H16      9.0496  14.7332  10.8326   H         1 RES1   0.0000
    56 C33      4.6039  23.5209  18.4807   C.ar      1 RES1   0.0000
    57 H17      5.2125  24.1543  18.1714   H         1 RES1   0.0000
    58 C34      8.4369  21.1205   9.7539   C.ar      1 RES1   0.0000
    59 H18      8.8362  21.3606   8.9498   H         1 RES1   0.0000
    60 C35     11.0977  13.7498  13.1106   C.ar      1 RES1   0.0000
    61 C36      3.2474  24.0215  16.4725   C.2       1 RES1   0.0000
    62 C37      2.9505  17.8797  17.6140   C.3       1 RES1   0.0000
    63 H19      3.0748  17.4632  18.4795   H         1 RES1   0.0000
    64 H20      2.1492  18.4242  17.6571   H         1 RES1   0.0000
    65 C38      4.4886  13.9818  15.1126   C.ar      1 RES1   0.0000
    66 H21      5.2498  13.9966  15.6473   H         1 RES1   0.0000
    67 C39      4.3112  22.2803  13.9514   C.ar      1 RES1   0.0000
    68 H22      4.1108  21.9749  14.8067   H         1 RES1   0.0000
    69 C40     10.2487  16.9417  16.0371   C.3       1 RES1   0.0000
    70 H23     10.0516  16.3799  16.8006   H         1 RES1   0.0000
    71 H24     10.9329  16.4946  15.5137   H         1 RES1   0.0000
    72 C41     11.9335  14.8403  13.1573   C.ar      1 RES1   0.0000
    73 H25     12.6622  14.8530  13.7350   H         1 RES1   0.0000
    74 C42      7.3018  21.7896  10.1934   C.ar      1 RES1   0.0000
    75 H26      6.9303  22.4694   9.6793   H         1 RES1   0.0000
    76 C43     11.7592  20.8610  17.1949   C.ar      1 RES1   0.0000
    77 H27     11.9571  20.5781  16.3316   H         1 RES1   0.0000
    78 C44      2.2792  14.7786  14.6006   C.ar      1 RES1   0.0000
    79 H28      1.5601  15.3373  14.7909   H         1 RES1   0.0000
    80 C45     10.2642  19.4216  10.0978   C.3       1 RES1   0.0000
    81 H29     10.1946  19.1685   9.1650   H         1 RES1   0.0000
    82 H30     10.9882  20.0632  10.1755   H         1 RES1   0.0000
    83 C46      3.4259  23.2673  17.7636   C.ar      1 RES1   0.0000
    84 C47     10.9036  20.1116  17.9969   C.ar      1 RES1   0.0000
    85 C48      3.8853  23.7891  12.1685   C.ar      1 RES1   0.0000
    86 H31      3.4105  24.4959  11.7978   H         1 RES1   0.0000
    87 C49      9.9897  24.1808  10.7306   C.ar      1 RES1   0.0000
    88 C50     10.2953  17.0082  10.4778   C.2       1 RES1   0.0000
    89 C51      9.0513  22.9226  16.5009   C.ar      1 RES1   0.0000
    90 H32      9.5503  23.4916  17.0408   H         1 RES1   0.0000
    91 C52     10.2996  23.7970  14.5054   C.3       1 RES1   0.0000
    92 H33     10.0345  24.7126  14.6821   H         1 RES1   0.0000
    93 H34     11.1519  23.6522  14.9450   H         1 RES1   0.0000
    94 C53     11.4271  23.6662   8.8433   C.ar      1 RES1   0.0000
    95 H35     12.2153  23.3081   8.5057   H         1 RES1   0.0000
    96 C54      3.2587  13.0741  13.2909   C.ar      1 RES1   0.0000
    97 C55     11.6699  15.9167  12.3325   C.ar      1 RES1   0.0000
    98 H36     12.2163  16.6679  12.3665   H         1 RES1   0.0000
    99 C56      2.7648  21.5921  19.3949   C.ar      1 RES1   0.0000
   100 H37      2.1663  20.9477  19.7008   H         1 RES1   0.0000
   101 C57      4.8601  22.8232  19.6564   C.ar      1 RES1   0.0000
   102 H38      5.6358  22.9818  20.1449   H         1 RES1   0.0000
   103 C58      9.6446  24.2308  12.1921   C.2       1 RES1   0.0000
   104 C59     10.2100  18.8710  17.5268   C.2       1 RES1   0.0000
   105 C60     10.4867  24.2346   8.0072   C.ar      1 RES1   0.0000
   106 C61      2.0147  21.3785   8.7300   C.ar      1 RES1   0.0000
   107 C62      2.5288  22.3081  18.2190   C.ar      1 RES1   0.0000
   108 H39      1.7555  22.1406  17.7318   H         1 RES1   0.0000
   109 C63     11.1582  23.6466  10.1959   C.ar      1 RES1   0.0000
   110 H40     11.7789  23.2622  10.7714   H         1 RES1   0.0000
   111 C64      9.9856  13.6861  12.2763   C.ar      1 RES1   0.0000
   112 H41      9.4129  12.9540  12.2872   H         1 RES1   0.0000
   113 C65      1.6475  18.6243  11.3039   C.3       1 RES1   0.0000
   114 H42      1.3644  17.9373  10.6808   H         1 RES1   0.0000
   115 H43      0.9982  18.6510  12.0244   H         1 RES1   0.0000
   116 C66      9.0686  24.7332   9.8379   C.ar      1 RES1   0.0000
   117 H44      8.2799  25.1000  10.1642   H         1 RES1   0.0000
   118 C67     11.1675  21.7098  19.7801   C.ar      1 RES1   0.0000
   119 H45     10.9758  22.0055  20.6388   H         1 RES1   0.0000
   120 C68     10.6000  20.5500  19.2884   C.ar      1 RES1   0.0000
   121 H46     10.0136  20.0606  19.8186   H         1 RES1   0.0000
   122 C69      1.9144  22.5459   9.4641   C.ar      1 RES1   0.0000
   123 H47      1.8580  22.5051  10.3908   H         1 RES1   0.0000
   124 C70      9.3097  24.7457   8.4694   C.ar      1 RES1   0.0000
   125 H48      8.6810  25.0975   7.8803   H         1 RES1   0.0000
   126 C71      2.1936  13.8915  13.5583   C.ar      1 RES1   0.0000
   127 H49      1.4226  13.8462  13.0394   H         1 RES1   0.0000
   128 C72      4.4151  13.0922  14.0568   C.ar      1 RES1   0.0000
   129 H50      5.1243  12.5207  13.8619   H         1 RES1   0.0000
   130 N7      10.7888  18.1991  16.5183   N.am      1 RES1   0.0000
   131 H51     11.4960  18.5210  16.1503   H         1 RES1   0.0000
   132 N8       2.7689  16.8407  16.6039   N.am      1 RES1   0.0000
   133 H52      2.0925  16.8769  16.0733   H         1 RES1   0.0000
   134 N9      10.4970  23.6499  13.0669   N.am      1 RES1   0.0000
   135 H53     11.1616  23.1908  12.7721   H         1 RES1   0.0000
   136 N10      2.3752  23.4931  15.5893   N.am      1 RES1   0.0000
   137 H54      1.8059  22.9028  15.8490   H         1 RES1   0.0000
   138 N11     10.5980  18.2417  10.8790   N.am      1 RES1   0.0000
   139 H55     11.0077  18.3452  11.6279   H         1 RES1   0.0000
   140 N12      1.6231  19.8863  10.6248   N.am      1 RES1   0.0000
   141 H56      1.2921  20.5755  11.0207   H         1 RES1   0.0000
   142 N13     11.4003  12.5722  13.9550   N.pl3     1 RES1   0.0000
   143 N14      4.2477  21.0922  21.2850   N.pl3     1 RES1   0.0000
   144 N15      3.1818  12.1251  12.1637   N.pl3     1 RES1   0.0000
   145 N16     10.7968  24.3302   6.5741   N.pl3     1 RES1   0.0000
   146 O1       3.8932  25.0460  16.2464   O.2       1 RES1   0.0000
   147 O2       4.9944  21.5910  22.1254   O.2       1 RES1   0.0000
   148 O3       9.7961  16.7604   9.3664   O.2       1 RES1   0.0000
   149 O4       4.6054  15.7380  17.2687   O.2       1 RES1   0.0000
   150 O5       3.7340  19.9780  21.3845   O.2       1 RES1   0.0000
   151 O6       9.1483  18.5142  18.0495   O.2       1 RES1   0.0000
   152 O7       8.6125  24.7727  12.5641   O.2       1 RES1   0.0000
   153 O8       2.6237  19.0640   8.7726   O.2       1 RES1   0.0000
   154 C73      2.0710  21.4575   7.3343   C.ar      1 RES1   0.0000
   155 H57      2.1285  20.6800   6.8245   H         1 RES1   0.0000
   156 C74      2.0418  22.6988   6.7067   C.ar      1 RES1   0.0000
   157 H58      2.0505  22.7651   5.7777   H         1 RES1   0.0000
   158 C75      1.8982  23.7720   8.8251   C.ar      1 RES1   0.0000
   159 H59      1.8166  24.5545   9.3213   H         1 RES1   0.0000
   160 C76      2.0005  23.8306   7.4883   C.ar      1 RES1   0.0000
   161 C77     12.0114  22.4057  18.9825   C.ar      1 RES1   0.0000
   162 C78     12.3097  22.0259  17.6843   C.ar      1 RES1   0.0000
   163 H60     12.8703  22.5459  17.1563   H         1 RES1   0.0000
   164 N17     12.6276  23.6190  19.5331   N.pl3     1 RES1   0.0000
   165 O9      12.5614  23.8306  20.7340   O.2       1 RES1   0.0000
   166 O10      2.1610  12.1111  11.4849   O.2       1 RES1   0.0000
   167 O11      4.1496  11.3989  11.9621   O.2       1 RES1   0.0000
   168 O12     11.9260  24.0881   6.1919   O.2       1 RES1   0.0000
   169 O13      9.9071  24.7212   5.8212   O.2       1 RES1   0.0000
   170 N18      2.0169  25.1561   6.7860   N.pl3     1 RES1   0.0000
   171 O14      2.2376  26.1425   7.5223   O.2       1 RES1   0.0000
   172 O15      1.8982  25.1739   5.5919   O.2       1 RES1   0.0000
   173 O16     13.1943  24.3506  18.7492   O.2       1 RES1   0.0000
   174 O17     12.5941  12.3728  14.2242   O.2       1 RES1   0.0000
   175 O18     10.4920  11.8439  14.2899   O.2       1 RES1   0.0000
   176 Cl1      0.2385  17.8654  14.9681   Cl        2 RES2  -1.0000
   177 Cl2     -0.1663  21.8600  12.5587   Cl        3 RES3  -1.0000
   178 O19      7.2717  16.4569  18.0309   O.3       4 RES4   0.0000
   179 O20     -1.9754  19.4111  13.3614   O.3       5 RES5   0.0000
   180 O21      5.6215  23.8015   8.1565   O.3       6 RES6   0.0000
   181 O22      1.3075  20.8564  15.1421   O.3       7 RES7   0.0000
@<TRIPOS>BOND
     1     1     3    1
     2     2     7   ar
     3     3    20   ar
     4     4     1    1
     5     5     1    1
     6     6     1    1
     7     7     1    1
     8     8     1    1
     9     9    31   ar
    10    10    11    1
    11    12     7   ar
    12    13    12    1
    13    14     2    1
    14    15     8   ar
    15    16    14   ar
    16    17    16    1
    17    18    15   ar
    18    19    18    1
    19    20    26    1
    20    21     4   ar
    21    22    21    1
    22    23     4   ar
    23    24    44   ar
    24    25    54   ar
    25    26     5   ar
    26    27    49    1
    27    28    33   ar
    28    29    12   ar
    29    30    38    1
    30    31     5   ar
    31    32    31    1
    32    33     6   ar
    33    34    33    1
    34    35     2   ar
    35    36    35    1
    36    37    21   ar
    37    38   132   am
    38    39    10   ar
    39    40    39    1
    40    41    16   ar
    41    42    41    1
    42    43    99   ar
    43    44     8   ar
    44    45    44    1
    45    46    29   ar
    46    47    46    1
    47    48   106    1
    48    49    50    1
    49    51    49    1
    50    52    20   ar
    51    53    52    1
    52    54    55    1
    53    56    57    1
    54    58     9   ar
    55    59    58    1
    56    60    72   ar
    57    61    83    1
    58    62    37    1
    59    63    62    1
    60    64    62    1
    61    65    30   ar
    62    66    65    1
    63    67     3   ar
    64    68    67    1
    65    69    28    1
    66    70    69    1
    67    71    69    1
    68    72    73    1
    69    74    26   ar
    70    75    74    1
    71    76    77    1
    72    78    30   ar
    73    79    78    1
    74    80     9    1
    75    81    80    1
    76    82    80    1
    77    83    56   ar
    78    84    76   ar
    79    85    27   ar
    80    86    85    1
    81    87   103    1
    82    88    25    1
    83    89    18   ar
    84    90    89    1
    85    91    24    1
    86    92    91    1
    87    93    91    1
    88    94    95    1
    89    96   126   ar
    90    97    25   ar
    91    98    97    1
    92    99   100    1
    93   101    43   ar
    94   102   101    1
    95   103   134   am
    96   104    84    1
    97   105    94   ar
    98   106   122   ar
    99   107    83   ar
   100   108   107    1
   101   109    87   ar
   102   110   109    1
   103   111    54   ar
   104   112   111    1
   105   113    29    1
   106   114   113    1
   107   115   113    1
   108   116    87   ar
   109   117   116    1
   110   118   119    1
   111   120    84   ar
   112   121   120    1
   113   122   123    1
   114   124   105   ar
   115   125   124    1
   116   126    78   ar
   117   127   126    1
   118   128    65   ar
   119   129   128    1
   120   130    69    1
   121   131   130    1
   122   132    62    1
   123   133   132    1
   124   134    91    1
   125   135   134    1
   126   136    49    1
   127   137   136    1
   128   138    80    1
   129   139   138    1
   130   140    48   am
   131   141   140    1
   132   142    60    1
   133   143    43    1
   134   144    96    1
   135   145   105    1
   136   146    61    2
   137   147   143    2
   138   148    88    2
   139   149    38    2
   140   150   143    2
   141   151   104    2
   142   152   103    2
   143   153    48    2
   144   154   106   ar
   145   155   154    1
   146   156   154   ar
   147   157   156    1
   148   158   122   ar
   149   159   158    1
   150   160   156   ar
   151   161   118   ar
   152   162    76   ar
   153   163   162    1
   154   164   161    1
   155   165   164    2
   156   166   144    2
   157   167   144    2
   158   168   145    2
   159   169   145    2
   160   170   160    1
   161   171   170    2
   162   172   170    2
   163   173   164    2
   164   174   142    2
   165   175   142    2
   166     6    14   ar
   167    10    23   ar
   168    15    23    1
   169    24    89   ar
   170    27    67   ar
   171    28    41   ar
   172    35    46   ar
   173    37    39   ar
   174    52    85   ar
   175    56   101   ar
   176    58    74   ar
   177    60   111   ar
   178    61   136   am
   179    72    97   ar
   180    88   138   am
   181    94   109   ar
   182    96   128   ar
   183    99   107   ar
   184   104   130   am
   185   113   140    1
   186   116   124   ar
   187   118   120   ar
   188   158   160   ar
   189   161   162   ar
@<TRIPOS>SUBSTRUCTURE
     1 RES1        1 GROUP             0 ****  ****    0  
     2 RES2      176 GROUP             0 ****  ****    0  
     3 RES3      177 GROUP             0 ****  ****    0  
     4 RES4      178 GROUP             0 ****  ****    0  
     5 RES5      179 GROUP             0 ****  ****    0  
     6 RES6      180 GROUP             0 ****  ****    0  
     7 RES7      181 GROUP             0 ****  ****    0  
@<TRIPOS>CRYSIN
   13.3920   25.4900   23.0920   90.0000  101.1310   90.0000    14     1
