@<TRIPOS>MOLECULE
SANWAG
   115   128     1     0     0
SMALL
NO_CHARGES
****
Generated from the CSD

@<TRIPOS>ATOM
     1 Fe1      0.0000   4.8660   0.0000   Fe        1 RES1   0.0000
     2 O1       0.9041   5.7966   1.9243   O.3       1 RES1   0.0000
     3 N1       0.9554   3.0921   0.4378   N.2       1 RES1   0.0000
     4 N2      -1.6321   4.2436   1.1129   N.2       1 RES1   0.0000
     5 C1       2.2619   2.7912   0.1289   C.2       1 RES1   0.0000
     6 C2       2.6473   1.5766   0.8016   C.2       1 RES1   0.0000
     7 H1       3.4941   1.1503   0.7534   H         1 RES1   0.0000
     8 C3       1.5714   1.1553   1.5187   C.2       1 RES1   0.0000
     9 H2       1.5291   0.3834   2.0701   H         1 RES1   0.0000
    10 C4       0.5019   2.1054   1.2826   C.2       1 RES1   0.0000
    11 C5      -0.7833   2.0431   1.8740   C.2       1 RES1   0.0000
    12 C6      -1.7738   3.0454   1.7724   C.2       1 RES1   0.0000
    13 C7      -3.1068   2.9657   2.3442   C.2       1 RES1   0.0000
    14 H3      -3.4677   2.2384   2.8384   H         1 RES1   0.0000
    15 C8      -3.7405   4.1299   2.0379   C.2       1 RES1   0.0000
    16 H4      -4.6217   4.3765   2.2932   H         1 RES1   0.0000
    17 C9      -2.8201   4.9223   1.2515   C.2       1 RES1   0.0000
    18 C10      3.1201   3.5602  -0.6848   C.2       1 RES1   0.0000
    19 C11     -1.0900   0.8292   2.6823   C.ar      1 RES1   0.0000
    20 C12     -0.9509  -0.4497   2.1311   C.ar      1 RES1   0.0000
    21 H5      -0.6802  -0.5421   1.2242   H         1 RES1   0.0000
    22 C13     -1.2022  -1.5874   2.8891   C.ar      1 RES1   0.0000
    23 H6      -1.0873  -2.4447   2.4964   H         1 RES1   0.0000
    24 C14     -1.6208  -1.4923   4.2173   C.ar      1 RES1   0.0000
    25 C15     -1.7627  -0.2191   4.7707   C.ar      1 RES1   0.0000
    26 H7      -2.0431  -0.1304   5.6735   H         1 RES1   0.0000
    27 C16     -1.4997   0.9223   4.0217   C.ar      1 RES1   0.0000
    28 H8      -1.5994   1.7780   4.4228   H         1 RES1   0.0000
    29 C17     -1.9095  -2.7388   5.0085   C.3       1 RES1   0.0000
    30 H9      -1.2216  -2.8554   5.6966   H         1 RES1   0.0000
    31 H10     -1.9065  -3.5142   4.4096   H         1 RES1   0.0000
    32 H11     -2.7882  -2.6588   5.4356   H         1 RES1   0.0000
    33 C18      4.4823   2.9772  -0.9206   C.ar      1 RES1   0.0000
    34 C19      5.5863   3.4220  -0.2050   C.ar      1 RES1   0.0000
    35 H12      5.4958   4.1614   0.3850   H         1 RES1   0.0000
    36 C20      6.8258   2.7984  -0.3413   C.ar      1 RES1   0.0000
    37 H13      7.5657   3.1191   0.1603   H         1 RES1   0.0000
    38 C21      6.9985   1.7197  -1.1933   C.ar      1 RES1   0.0000
    39 C22      5.9041   1.3070  -1.9500   C.ar      1 RES1   0.0000
    40 H14      6.0062   0.5937  -2.5691   H         1 RES1   0.0000
    41 C23      4.6629   1.9228  -1.8129   C.ar      1 RES1   0.0000
    42 H15      3.9295   1.6194  -2.3345   H         1 RES1   0.0000
    43 C24      8.3076   0.9756  -1.2741   C.3       1 RES1   0.0000
    44 H16      8.1836   0.0594  -0.9483   H         1 RES1   0.0000
    45 H17      8.6140   0.9528  -2.2056   H         1 RES1   0.0000
    46 H18      8.9768   1.4306  -0.7220   H         1 RES1   0.0000
    47 C25      1.9456   6.7889   1.8882   C.3       1 RES1   0.0000
    48 H19      1.7141   7.5579   2.4683   H         1 RES1   0.0000
    49 H20      2.0817   7.1170   0.9649   H         1 RES1   0.0000
    50 C26      3.2008   6.0912   2.3988   C.3       1 RES1   0.0000
    51 H21      3.6767   6.6596   3.0548   H         1 RES1   0.0000
    52 H22      3.8149   5.8830   1.6521   H         1 RES1   0.0000
    53 C27      2.6943   4.8084   3.0576   C.3       1 RES1   0.0000
    54 H23      2.9272   4.0125   2.5162   H         1 RES1   0.0000
    55 H24      3.0686   4.7015   3.9685   H         1 RES1   0.0000
    56 C28      1.1858   5.0210   3.1044   C.3       1 RES1   0.0000
    57 H25      0.7061   4.1556   3.0813   H         1 RES1   0.0000
    58 H26      0.9233   5.5132   3.9222   H         1 RES1   0.0000
    59 O1B     -0.9041   3.9354  -1.9243   O.3       1 RES1   0.0000
    60 N1B     -0.9554   6.6399  -0.4378   N.2       1 RES1   0.0000
    61 N2B      1.6321   5.4884  -1.1129   N.2       1 RES1   0.0000
    62 C1B     -2.2619   6.9408  -0.1289   C.2       1 RES1   0.0000
    63 C2B     -2.6473   8.1554  -0.8016   C.2       1 RES1   0.0000
    64 H1B     -3.4941   8.5817  -0.7534   H         1 RES1   0.0000
    65 C3B     -1.5714   8.5767  -1.5187   C.2       1 RES1   0.0000
    66 H2B     -1.5291   9.3486  -2.0701   H         1 RES1   0.0000
    67 C4B     -0.5019   7.6266  -1.2826   C.2       1 RES1   0.0000
    68 C5B      0.7833   7.6889  -1.8740   C.2       1 RES1   0.0000
    69 C6B      1.7738   6.6866  -1.7724   C.2       1 RES1   0.0000
    70 C7B      3.1068   6.7663  -2.3442   C.2       1 RES1   0.0000
    71 H3B      3.4677   7.4936  -2.8384   H         1 RES1   0.0000
    72 C8B      3.7405   5.6021  -2.0379   C.2       1 RES1   0.0000
    73 H4B      4.6217   5.3555  -2.2932   H         1 RES1   0.0000
    74 C9B      2.8201   4.8097  -1.2515   C.2       1 RES1   0.0000
    75 C10B    -3.1201   6.1718   0.6848   C.2       1 RES1   0.0000
    76 C11B     1.0900   8.9028  -2.6823   C.ar      1 RES1   0.0000
    77 C12B     0.9509  10.1817  -2.1311   C.ar      1 RES1   0.0000
    78 H5B      0.6802  10.2741  -1.2242   H         1 RES1   0.0000
    79 C13B     1.2022  11.3194  -2.8891   C.ar      1 RES1   0.0000
    80 H6B      1.0873  12.1767  -2.4964   H         1 RES1   0.0000
    81 C14B     1.6208  11.2243  -4.2173   C.ar      1 RES1   0.0000
    82 C15B     1.7627   9.9511  -4.7707   C.ar      1 RES1   0.0000
    83 H7B      2.0431   9.8624  -5.6735   H         1 RES1   0.0000
    84 C16B     1.4997   8.8097  -4.0217   C.ar      1 RES1   0.0000
    85 H8B      1.5994   7.9540  -4.4228   H         1 RES1   0.0000
    86 C17B     1.9095  12.4708  -5.0085   C.3       1 RES1   0.0000
    87 H9B      1.2216  12.5874  -5.6966   H         1 RES1   0.0000
    88 H10B     1.9065  13.2462  -4.4096   H         1 RES1   0.0000
    89 H11B     2.7882  12.3908  -5.4356   H         1 RES1   0.0000
    90 C18B    -4.4823   6.7548   0.9206   C.ar      1 RES1   0.0000
    91 C19B    -5.5863   6.3100   0.2050   C.ar      1 RES1   0.0000
    92 H12B    -5.4958   5.5706  -0.3850   H         1 RES1   0.0000
    93 C20B    -6.8258   6.9336   0.3413   C.ar      1 RES1   0.0000
    94 H13B    -7.5657   6.6129  -0.1603   H         1 RES1   0.0000
    95 C21B    -6.9985   8.0123   1.1933   C.ar      1 RES1   0.0000
    96 C22B    -5.9041   8.4250   1.9500   C.ar      1 RES1   0.0000
    97 H14B    -6.0062   9.1383   2.5691   H         1 RES1   0.0000
    98 C23B    -4.6629   7.8092   1.8129   C.ar      1 RES1   0.0000
    99 H15B    -3.9295   8.1126   2.3345   H         1 RES1   0.0000
   100 C24B    -8.3076   8.7564   1.2741   C.3       1 RES1   0.0000
   101 H16B    -8.1836   9.6726   0.9483   H         1 RES1   0.0000
   102 H17B    -8.6140   8.7792   2.2056   H         1 RES1   0.0000
   103 H18B    -8.9768   8.3014   0.7220   H         1 RES1   0.0000
   104 C25B    -1.9456   2.9431  -1.8882   C.3       1 RES1   0.0000
   105 H19B    -1.7141   2.1741  -2.4683   H         1 RES1   0.0000
   106 H20B    -2.0817   2.6150  -0.9649   H         1 RES1   0.0000
   107 C26B    -3.2008   3.6408  -2.3988   C.3       1 RES1   0.0000
   108 H21B    -3.6767   3.0724  -3.0548   H         1 RES1   0.0000
   109 H22B    -3.8149   3.8490  -1.6521   H         1 RES1   0.0000
   110 C27B    -2.6943   4.9236  -3.0576   C.3       1 RES1   0.0000
   111 H23B    -2.9272   5.7195  -2.5162   H         1 RES1   0.0000
   112 H24B    -3.0686   5.0305  -3.9685   H         1 RES1   0.0000
   113 C28B    -1.1858   4.7110  -3.1044   C.3       1 RES1   0.0000
   114 H25B    -0.7061   5.5764  -3.0813   H         1 RES1   0.0000
   115 H26B    -0.9233   4.2188  -3.9222   H         1 RES1   0.0000
@<TRIPOS>BOND
     1     1     2    1
     2     2    47    1
     3     3     1    1
     4     4     1    1
     5     5     3    1
     6     6     5    1
     7     7     6    1
     8     8     6    2
     9     9     8    1
    10    10     3    1
    11    11    10    2
    12    12     4    2
    13    13    12    1
    14    14    13    1
    15    15    13    2
    16    16    15    1
    17    17     4    1
    18    18     5    2
    19    19    11    1
    20    20    19   ar
    21    21    20    1
    22    22    20   ar
    23    23    22    1
    24    24    22   ar
    25    25    24   ar
    26    26    25    1
    27    27    19   ar
    28    28    27    1
    29    29    24    1
    30    30    29    1
    31    31    29    1
    32    32    29    1
    33    33    18    1
    34    34    33   ar
    35    35    34    1
    36    36    34   ar
    37    37    36    1
    38    38    36   ar
    39    39    38   ar
    40    40    39    1
    41    41    33   ar
    42    42    41    1
    43    43    38    1
    44    44    43    1
    45    45    43    1
    46    46    43    1
    47    47    48    1
    48    49    47    1
    49    50    47    1
    50    51    50    1
    51    52    50    1
    52    53    50    1
    53    54    53    1
    54    55    53    1
    55    56     2    1
    56    57    56    1
    57    58    56    1
    58    59     1    1
    59    60     1    1
    60    61     1    1
    61    62    60    1
    62    63    62    2
    63    64    63    1
    64    65    63    1
    65    66    65    1
    66    67    60    1
    67    68    67    1
    68    69    61    1
    69    70    69    1
    70    71    70    1
    71    72    70    2
    72    73    72    1
    73    74    18    1
    74    75    17    2
    75    76    68    1
    76    77    76   ar
    77    78    77    1
    78    79    77   ar
    79    80    79    1
    80    81    79   ar
    81    82    81   ar
    82    83    82    1
    83    84    76   ar
    84    85    84    1
    85    86    81    1
    86    87    86    1
    87    88    86    1
    88    89    86    1
    89    90    75    1
    90    91    90   ar
    91    92    91    1
    92    93    91   ar
    93    94    93    1
    94    95    93   ar
    95    96    95   ar
    96    97    96    1
    97    98    90   ar
    98    99    98    1
    99   100    95    1
   100   101   100    1
   101   102   100    1
   102   103   100    1
   103   104    59    1
   104   105   104    1
   105   106   104    1
   106   107   104    1
   107   108   107    1
   108   109   107    1
   109   110   107    1
   110   111   110    1
   111   112   110    1
   112   113    59    1
   113   114   113    1
   114   115   113    1
   115     8    10    1
   116    11    12    1
   117    15    17    1
   118    25    27   ar
   119    39    41   ar
   120    53    56    1
   121    61    74    2
   122    62    75    1
   123    65    67    2
   124    68    69    2
   125    72    74    1
   126    82    84   ar
   127    96    98   ar
   128   110   113    1
@<TRIPOS>SUBSTRUCTURE
     1 RES1        1 GROUP             0 ****  ****    0  
@<TRIPOS>CRYSIN
   13.6820    9.7320   17.1014   90.0000  104.9640   90.0000   231     1
