@<TRIPOS>MOLECULE
SAPTEI
   129   134     2     0     0
SMALL
NO_CHARGES
****
Generated from the CSD

@<TRIPOS>ATOM
     1 Fe1     34.5936   1.9124   0.4088   Fe        1 RES1   0.0000
     2 O1      36.2738   1.6467  -0.5016   O.3       1 RES1   0.0000
     3 O2      35.4067   3.6501   0.8567   O.3       1 RES1   0.0000
     4 N1      34.9775   0.8950   2.2564   N.ar      1 RES1   0.0000
     5 N2      33.9747   0.1217   2.7964   N.ar      1 RES1   0.0000
     6 N3      33.6743   0.0750  -0.2663   N.ar      1 RES1   0.0000
     7 N4      32.9017  -0.6200   0.6495   N.ar      1 RES1   0.0000
     8 N5      32.6675   2.4167   1.2843   N.ar      1 RES1   0.0000
     9 N6      31.9886   1.3867   1.9072   N.ar      1 RES1   0.0000
    10 N7      33.8577   2.9684  -1.5284   N.1       1 RES1   0.0000
    11 C1      37.8767   2.1034   4.1414   C.3       1 RES1   0.0000
    12 C2      38.3137   0.7317   2.1336   C.3       1 RES1   0.0000
    13 C3      37.2914   1.5600   2.8556   C.3       1 RES1   0.0000
    14 C4      36.0116   0.8100   3.0879   C.ar      1 RES1   0.0000
    15 C5      35.6994  -0.0200   4.1562   C.ar      1 RES1   0.0000
    16 C6      34.4039  -0.4350   3.9520   C.ar      1 RES1   0.0000
    17 C7      33.5221  -1.2900   4.8309   C.3       1 RES1   0.0000
    18 C8      34.3454  -2.3084   5.5870   C.3       1 RES1   0.0000
    19 C9      32.7456  -0.4417   5.7926   C.3       1 RES1   0.0000
    20 C10     35.8750  -1.0017  -2.6292   C.3       1 RES1   0.0000
    21 C11     33.7601  -0.5967  -3.8188   C.3       1 RES1   0.0000
    22 C12     34.5444  -0.3100  -2.5582   C.3       1 RES1   0.0000
    23 C13     33.7679  -0.7100  -1.3479   C.ar      1 RES1   0.0000
    24 C14     33.0616  -1.8867  -1.1452   C.ar      1 RES1   0.0000
    25 C15     32.5310  -1.8050   0.1243   C.ar      1 RES1   0.0000
    26 C16     31.7584  -2.8401   0.8878   C.3       1 RES1   0.0000
    27 C17     30.9819  -3.7517  -0.0636   C.3       1 RES1   0.0000
    28 C18     32.6519  -3.6667   1.7548   C.3       1 RES1   0.0000
    29 C19     32.4256   5.8818   1.9501   C.3       1 RES1   0.0000
    30 C20     31.3526   5.3168  -0.2012   C.3       1 RES1   0.0000
    31 C21     32.3359   4.8418   0.8508   C.3       1 RES1   0.0000
    32 C22     31.9145   3.5117   1.4071   C.ar      1 RES1   0.0000
    33 C23     30.7478   3.1984   2.0922   C.ar      1 RES1   0.0000
    34 C24     30.8141   1.8734   2.3851   C.ar      1 RES1   0.0000
    35 C25     29.7840   1.0034   3.0495   C.3       1 RES1   0.0000
    36 C26     28.9489   1.8017   4.0378   C.3       1 RES1   0.0000
    37 C27     28.8826   0.3750   2.0359   C.3       1 RES1   0.0000
    38 C28     33.9240   3.8634  -2.1987   C.1       1 RES1   0.0000
    39 C29     33.9942   5.0418  -3.0258   C.3       1 RES1   0.0000
    40 C30     37.0963   2.6951  -0.4380   C.ar      1 RES1   0.0000
    41 C31     36.6281   3.7984   0.3211   C.ar      1 RES1   0.0000
    42 C32     37.4592   4.9151   0.5105   C.ar      1 RES1   0.0000
    43 C33     38.7274   4.8568  -0.0681   C.ar      1 RES1   0.0000
    44 C34     39.1878   3.8017  -0.8315   C.ar      1 RES1   0.0000
    45 C35     38.3684   2.7034  -1.0076   C.ar      1 RES1   0.0000
    46 C38     36.9949   6.1351   1.3094   C.3       1 RES1   0.0000
    47 C39     36.5813   5.7334   2.7165   C.3       1 RES1   0.0000
    48 C40     38.0757   7.2068   1.4352   C.3       1 RES1   0.0000
    49 C41     35.8243   6.7685   0.5844   C.3       1 RES1   0.0000
    50 C42     40.6393   3.7667  -1.3583   C.3       1 RES1   0.0000
    51 C43     40.6510   3.2967  -2.8112   C.3       1 RES1   0.0000
    52 C44     41.2793   5.1284  -1.4056   C.3       1 RES1   0.0000
    53 C45     41.4509   2.8417  -0.5356   C.3       1 RES1   0.0000
    54 B1      32.6285  -0.0133   2.0345   B         1 RES1   0.0000
    55 H1      39.3283   5.6434   0.0547   H         1 RES1   0.0000
    56 H2      38.7000   1.8834  -1.5521   H         1 RES1   0.0000
    57 H3      38.0523   1.4167   4.7658   H         1 RES1   0.0000
    58 H4      38.6649   2.6251   4.0127   H         1 RES1   0.0000
    59 H5      37.2251   2.7134   4.5764   H         1 RES1   0.0000
    60 H6      38.5283  -0.0700   2.6603   H         1 RES1   0.0000
    61 H7      37.9665   0.3950   1.2917   H         1 RES1   0.0000
    62 H8      39.1332   1.1734   1.9546   H         1 RES1   0.0000
    63 H9      37.1041   2.3267   2.2830   H         1 RES1   0.0000
    64 H10     36.3120  -0.2867   4.8945   H         1 RES1   0.0000
    65 H11     32.8665  -1.7667   4.2568   H         1 RES1   0.0000
    66 H12     33.8069  -2.9317   6.0945   H         1 RES1   0.0000
    67 H13     34.8449  -2.8867   4.9419   H         1 RES1   0.0000
    68 H14     34.9775  -1.9134   6.1418   H         1 RES1   0.0000
    69 H15     33.3348   0.0633   6.3608   H         1 RES1   0.0000
    70 H16     32.2110   0.2433   5.3073   H         1 RES1   0.0000
    71 H17     32.1291  -0.9117   6.3401   H         1 RES1   0.0000
    72 H18     35.7579  -1.9800  -2.6648   H         1 RES1   0.0000
    73 H19     36.4135  -0.7767  -3.3927   H         1 RES1   0.0000
    74 H20     36.4135  -0.8384  -1.8421   H         1 RES1   0.0000
    75 H21     32.8978  -0.1267  -3.7922   H         1 RES1   0.0000
    76 H22     34.1893  -0.3500  -4.6238   H         1 RES1   0.0000
    77 H23     33.5338  -1.5384  -3.8721   H         1 RES1   0.0000
    78 H24     34.7356   0.6433  -2.5597   H         1 RES1   0.0000
    79 H25     32.9524  -2.6601  -1.7888   H         1 RES1   0.0000
    80 H26     31.0833  -2.4267   1.4855   H         1 RES1   0.0000
    81 H27     30.3927  -3.2367  -0.6274   H         1 RES1   0.0000
    82 H28     31.6179  -4.1884  -0.6673   H         1 RES1   0.0000
    83 H29     30.4785  -4.4318   0.3581   H         1 RES1   0.0000
    84 H30     32.2149  -4.3368   2.3111   H         1 RES1   0.0000
    85 H31     33.3270  -4.1401   1.2473   H         1 RES1   0.0000
    86 H32     33.1670  -3.1134   2.3999   H         1 RES1   0.0000
    87 H33     33.0968   5.5784   2.6292   H         1 RES1   0.0000
    88 H34     32.7066   6.7418   1.6793   H         1 RES1   0.0000
    89 H35     31.6023   5.9568   2.4384   H         1 RES1   0.0000
    90 H36     31.5867   6.1735  -0.6140   H         1 RES1   0.0000
    91 H37     31.3175   4.6851  -0.9543   H         1 RES1   0.0000
    92 H38     30.4629   5.4001   0.1243   H         1 RES1   0.0000
    93 H39     33.2060   4.8034   0.4380   H         1 RES1   0.0000
    94 H40     30.0025   3.8367   2.2949   H         1 RES1   0.0000
    95 H41     30.2171   0.2750   3.5496   H         1 RES1   0.0000
    96 H42     29.4796   2.2134   4.6948   H         1 RES1   0.0000
    97 H43     28.4768   2.5084   3.5496   H         1 RES1   0.0000
    98 H44     28.2700   1.2717   4.4640   H         1 RES1   0.0000
    99 H45     28.4105   1.0467   1.5536   H         1 RES1   0.0000
   100 H46     29.3547  -0.1800   1.4352   H         1 RES1   0.0000
   101 H47     28.1998  -0.1867   2.4709   H         1 RES1   0.0000
   102 H48     34.8410   5.2134  -3.4682   H         1 RES1   0.0000
   103 H49     33.3348   5.0318  -3.7937   H         1 RES1   0.0000
   104 H50     33.7679   5.8935  -2.5775   H         1 RES1   0.0000
   105 H54     36.2691   6.4735   3.2596   H         1 RES1   0.0000
   106 H55     35.8867   5.0701   2.7195   H         1 RES1   0.0000
   107 H56     37.3304   5.3468   3.2078   H         1 RES1   0.0000
   108 H57     38.8873   6.8251   1.8747   H         1 RES1   0.0000
   109 H58     38.3879   7.4835   0.5608   H         1 RES1   0.0000
   110 H59     37.8416   7.9735   1.9294   H         1 RES1   0.0000
   111 H60     35.4185   7.5468   0.9928   H         1 RES1   0.0000
   112 H61     36.0623   7.0601  -0.3329   H         1 RES1   0.0000
   113 H62     35.0673   6.1451   0.4306   H         1 RES1   0.0000
   114 H63     40.2218   2.3800  -2.8719   H         1 RES1   0.0000
   115 H64     40.1594   3.8334  -3.4075   H         1 RES1   0.0000
   116 H65     41.5329   3.1467  -3.1885   H         1 RES1   0.0000
   117 H66     42.1806   5.1534  -1.7385   H         1 RES1   0.0000
   118 H67     40.7681   5.7668  -1.9279   H         1 RES1   0.0000
   119 H68     41.3222   5.5151  -0.5001   H         1 RES1   0.0000
   120 H69     41.0490   1.9217  -0.6066   H         1 RES1   0.0000
   121 H70     42.3562   2.6934  -0.9218   H         1 RES1   0.0000
   122 H71     41.5134   3.0667   0.3285   H         1 RES1   0.0000
   123 H72     32.0003  -0.6217   2.5464   H         1 RES1   0.0000
   124 N8      28.9294   2.5851  11.7229   N.1       2 RES2   0.0000
   125 C36     29.6435   2.0967  12.4553   C.1       2 RES2   0.0000
   126 C37     30.4902   1.5084  13.3815   C.3       2 RES2   0.0000
   127 H51     30.2522   0.5883  13.7647   H         2 RES2   0.0000
   128 H52     31.4735   1.3167  13.1418   H         2 RES2   0.0000
   129 H53     30.6697   1.9900  14.2826   H         2 RES2   0.0000
@<TRIPOS>BOND
     1     1     2    1
     2     2    40    1
     3     3     1    1
     4     4     1    1
     5     5     4   ar
     6     6     1    1
     7     7     6   ar
     8     8     1    1
     9     9     8   ar
    10    10     1    1
    11    11    13    1
    12    12    13    1
    13    13    14    1
    14    14     4   ar
    15    15    14   ar
    16    16     5   ar
    17    17    16    1
    18    18    17    1
    19    19    17    1
    20    20    22    1
    21    21    22    1
    22    22    23    1
    23    23     6   ar
    24    24    23   ar
    25    25     7   ar
    26    26    25    1
    27    27    26    1
    28    28    26    1
    29    29    31    1
    30    30    31    1
    31    31    32    1
    32    32     8   ar
    33    33    32   ar
    34    34     9   ar
    35    35    34    1
    36    36    35    1
    37    37    35    1
    38    38    10    3
    39    39    38    1
    40    40    41   ar
    41    41     3    1
    42    42    41   ar
    43    43    42   ar
    44    44    43   ar
    45    45    40   ar
    46    46    42    1
    47    47    46    1
    48    48    46    1
    49    49    46    1
    50    50    44    1
    51    51    50    1
    52    52    50    1
    53    53    50    1
    54    54     5    1
    55    55    43    1
    56    56    45    1
    57    57    11    1
    58    58    11    1
    59    59    11    1
    60    60    12    1
    61    61    12    1
    62    62    12    1
    63    63    13    1
    64    64    15    1
    65    65    17    1
    66    66    18    1
    67    67    18    1
    68    68    18    1
    69    69    19    1
    70    70    19    1
    71    71    19    1
    72    72    20    1
    73    73    20    1
    74    74    20    1
    75    75    21    1
    76    76    21    1
    77    77    21    1
    78    78    22    1
    79    79    24    1
    80    80    26    1
    81    81    27    1
    82    82    27    1
    83    83    27    1
    84    84    28    1
    85    85    28    1
    86    86    28    1
    87    87    29    1
    88    88    29    1
    89    89    29    1
    90    90    30    1
    91    91    30    1
    92    92    30    1
    93    93    31    1
    94    94    33    1
    95    95    35    1
    96    96    36    1
    97    97    36    1
    98    98    36    1
    99    99    37    1
   100   100    37    1
   101   101    37    1
   102   102    39    1
   103   103    39    1
   104   104    39    1
   105   105    47    1
   106   106    47    1
   107   107    47    1
   108   108    48    1
   109   109    48    1
   110   110    48    1
   111   111    49    1
   112   112    49    1
   113   113    49    1
   114   114    51    1
   115   115    51    1
   116   116    51    1
   117   117    52    1
   118   118    52    1
   119   119    52    1
   120   120    53    1
   121   121    53    1
   122   122    53    1
   123   123    54    1
   124     7    54    1
   125     9    54    1
   126    15    16   ar
   127    24    25   ar
   128    33    34   ar
   129    44    45   ar
   130   124   125    3
   131   125   126    1
   132   126   127    1
   133   128   126    1
   134   129   126    1
@<TRIPOS>SUBSTRUCTURE
     1 RES1        1 GROUP             0 ****  ****    0  
     2 RES2      124 GROUP             0 ****  ****    0  
@<TRIPOS>CRYSIN
   39.0200   16.6670   14.7960   90.0000   90.0000   90.0000    61     1
