@<TRIPOS>MOLECULE
SASMUV
   126   139     2     0     0
SMALL
NO_CHARGES
****
Generated from the CSD

@<TRIPOS>ATOM
     1 Fe1     13.9761   8.4268   3.3113   Fe        1 RES1   0.0000
     2 O1      14.9036   6.6822   3.7212   O.2       1 RES1   0.0000
     3 O2      15.7495   9.2892   3.5422   O.3       1 RES1   0.0000
     4 C1      16.1554   6.5068   3.6522   C.2       1 RES1   0.0000
     5 C2      16.7727   5.1269   3.8061   C.3       1 RES1   0.0000
     6 H1      16.2778   4.5872   4.4256   H         1 RES1   0.0000
     7 C3      17.0202   4.4281   2.4193   C.3       1 RES1   0.0000
     8 H2      16.6894   3.5266   2.4184   H         1 RES1   0.0000
     9 C4      16.5409   5.2017   1.1839   C.3       1 RES1   0.0000
    10 H3      15.7217   5.6650   1.3692   H         1 RES1   0.0000
    11 H4      16.4055   4.6184   0.4334   H         1 RES1   0.0000
    12 C5      17.6843   6.2078   0.8784   C.3       1 RES1   0.0000
    13 H5      17.3627   7.1093   0.9358   H         1 RES1   0.0000
    14 H6      18.0451   6.0658   0.0000   H         1 RES1   0.0000
    15 C6      18.7431   5.9535   1.9505   C.3       1 RES1   0.0000
    16 H7      19.6274   6.1235   1.6160   H         1 RES1   0.0000
    17 C7      18.4879   6.6570   3.3497   C.3       1 RES1   0.0000
    18 H8      19.2432   7.1748   3.6365   H         1 RES1   0.0000
    19 C8      17.1882   7.4420   3.4375   C.2       1 RES1   0.0000
    20 C9      18.2027   5.4388   4.2811   C.3       1 RES1   0.0000
    21 H9      18.2964   5.6073   5.2213   H         1 RES1   0.0000
    22 C10     19.0596   4.3174   3.7280   C.3       1 RES1   0.0000
    23 H10     18.8434   3.4673   4.1188   H         1 RES1   0.0000
    24 H11     20.0012   4.4858   3.8054   H         1 RES1   0.0000
    25 C11     18.5582   4.4468   2.3179   C.3       1 RES1   0.0000
    26 H12     18.9398   3.8214   1.6960   H         1 RES1   0.0000
    27 C12     16.9290   8.8250   3.3560   C.2       1 RES1   0.0000
    28 C13     18.0060   9.8794   3.1059   C.3       1 RES1   0.0000
    29 C14     18.8395   9.5394   1.8640   C.3       1 RES1   0.0000
    30 H13     18.2756   9.4645   1.0914   H         1 RES1   0.0000
    31 H14     19.4842  10.2381   1.7227   H         1 RES1   0.0000
    32 H15     19.2966   8.7080   2.0094   H         1 RES1   0.0000
    33 C15     17.3509  11.2457   2.8698   C.3       1 RES1   0.0000
    34 H16     16.7740  11.1958   2.1027   H         1 RES1   0.0000
    35 H17     16.8352  11.4906   3.6409   H         1 RES1   0.0000
    36 H18     18.0308  11.9055   2.7162   H         1 RES1   0.0000
    37 C16     18.9085   9.9886   4.3389   C.3       1 RES1   0.0000
    38 H19     19.3292   9.1416   4.5034   H         1 RES1   0.0000
    39 H20     19.5805  10.6546   4.1766   H         1 RES1   0.0000
    40 H21     18.3850  10.2413   5.1035   H         1 RES1   0.0000
    41 O3      12.2491   7.5020   2.8545   O.2       1 RES1   0.0000
    42 O4      14.3691   8.3658   1.3597   O.3       1 RES1   0.0000
    43 C17     11.7392   7.4521   1.6918   C.2       1 RES1   0.0000
    44 C18     10.3288   6.9346   1.4670   C.3       1 RES1   0.0000
    45 H22     10.0813   6.2436   2.0872   H         1 RES1   0.0000
    46 C19      9.2635   8.0951   1.3879   C.3       1 RES1   0.0000
    47 H23      8.5094   7.9204   1.9560   H         1 RES1   0.0000
    48 C20      9.8013   9.5144   1.6113   C.3       1 RES1   0.0000
    49 H24     10.4981   9.5144   2.2717   H         1 RES1   0.0000
    50 H25      9.0955  10.0962   1.9071   H         1 RES1   0.0000
    51 C21     10.3249   9.9683   0.2369   C.3       1 RES1   0.0000
    52 H26     11.2612  10.1757   0.2912   H         1 RES1   0.0000
    53 H27      9.8521  10.7388  -0.0822   H         1 RES1   0.0000
    54 C22     10.0996   8.7689  -0.6824   C.3       1 RES1   0.0000
    55 H28      9.9524   9.0418  -1.5915   H         1 RES1   0.0000
    56 C23     11.2039   7.6224  -0.5813   C.3       1 RES1   0.0000
    57 H29     11.5725   7.4072  -1.4404   H         1 RES1   0.0000
    58 C24     12.2823   7.8447   0.4534   C.2       1 RES1   0.0000
    59 C25     10.3874   6.4526   0.0160   C.3       1 RES1   0.0000
    60 H30     10.7729   5.5823  -0.1134   H         1 RES1   0.0000
    61 C26      8.9796   6.6102  -0.5139   C.3       1 RES1   0.0000
    62 H31      8.3518   6.0362  -0.0689   H         1 RES1   0.0000
    63 H32      8.9236   6.4901  -1.4648   H         1 RES1   0.0000
    64 C27      8.8584   8.0654  -0.0929   C.3       1 RES1   0.0000
    65 H33      8.0184   8.4850  -0.2956   H         1 RES1   0.0000
    66 C28     13.6080   8.2994   0.3439   C.2       1 RES1   0.0000
    67 C29     14.2683   8.6987  -0.9860   C.3       1 RES1   0.0000
    68 C30     13.3997   9.6735  -1.7800   C.3       1 RES1   0.0000
    69 H34     13.2616  10.4768  -1.2714   H         1 RES1   0.0000
    70 H35     13.8399   9.8903  -2.6051   H         1 RES1   0.0000
    71 H36     12.5519   9.2649  -1.9672   H         1 RES1   0.0000
    72 C31     15.6097   9.3647  -0.7142   C.3       1 RES1   0.0000
    73 H37     15.4639  10.1679  -0.2067   H         1 RES1   0.0000
    74 H38     16.1723   8.7689  -0.2134   H         1 RES1   0.0000
    75 H39     16.0369   9.5846  -1.5448   H         1 RES1   0.0000
    76 C32     14.5119   7.4166  -1.8002   C.3       1 RES1   0.0000
    77 H40     15.0575   6.8083  -1.2937   H         1 RES1   0.0000
    78 H41     13.6640   7.0048  -1.9872   H         1 RES1   0.0000
    79 H42     14.9534   7.6302  -2.6251   H         1 RES1   0.0000
    80 O5      13.4274   8.5017   5.2371   O.2       1 RES1   0.0000
    81 O6      13.1702  10.2352   3.1206   O.3       1 RES1   0.0000
    82 C33     13.3098   9.6049   5.8704   C.2       1 RES1   0.0000
    83 C34     13.2994   9.6486   7.3761   C.3       1 RES1   0.0000
    84 H43     12.8735   8.8827   7.7664   H         1 RES1   0.0000
    85 C35     14.7333   9.9496   7.9876   C.3       1 RES1   0.0000
    86 H44     14.9507   9.3335   8.6911   H         1 RES1   0.0000
    87 C36     15.8819  10.0681   6.9791   C.3       1 RES1   0.0000
    88 H45     15.7660   9.4349   6.2660   H         1 RES1   0.0000
    89 H46     16.7297   9.9090   7.3996   H         1 RES1   0.0000
    90 C37     15.7803  11.5140   6.4392   C.3       1 RES1   0.0000
    91 H47     15.6241  11.5202   5.4925   H         1 RES1   0.0000
    92 H48     16.5904  11.9944   6.6239   H         1 RES1   0.0000
    93 C38     14.6043  12.1379   7.1751   C.3       1 RES1   0.0000
    94 H49     14.7372  13.0784   7.3152   H         1 RES1   0.0000
    95 C39     13.1809  11.8447   6.5616   C.3       1 RES1   0.0000
    96 H50     12.6782  12.6479   6.3994   H         1 RES1   0.0000
    97 C40     13.1965  10.9132   5.3569   C.2       1 RES1   0.0000
    98 C41     12.5388  10.9619   7.6557   C.3       1 RES1   0.0000
    99 H51     11.5829  10.8948   7.6041   H         1 RES1   0.0000
   100 C42     13.1027  11.4859   8.9687   C.3       1 RES1   0.0000
   101 H52     12.9035  10.9026   9.7047   H         1 RES1   0.0000
   102 H53     12.8306  12.3843   9.1690   H         1 RES1   0.0000
   103 C43     14.5457  11.3970   8.5172   C.3       1 RES1   0.0000
   104 H54     15.2034  11.6762   9.1601   H         1 RES1   0.0000
   105 C44     13.0988  11.1740   3.9910   C.2       1 RES1   0.0000
   106 C45     12.8735  12.5859   3.4153   C.3       1 RES1   0.0000
   107 C46     14.0027  13.5292   3.8896   C.3       1 RES1   0.0000
   108 H55     14.8505  13.1814   3.6031   H         1 RES1   0.0000
   109 H56     13.8724  14.4042   3.5142   H         1 RES1   0.0000
   110 H57     13.9857  13.5869   4.8479   H         1 RES1   0.0000
   111 C47     12.9100  12.5325   1.8994   C.3       1 RES1   0.0000
   112 H58     13.7630  12.1956   1.6160   H         1 RES1   0.0000
   113 H59     12.2159  11.9414   1.5937   H         1 RES1   0.0000
   114 H60     12.7706  13.4060   1.5293   H         1 RES1   0.0000
   115 C48     11.4983  13.1190   3.8665   C.3       1 RES1   0.0000
   116 H61     11.3641  13.9955   3.5009   H         1 RES1   0.0000
   117 H62     10.8067  12.5325   3.5520   H         1 RES1   0.0000
   118 H63     11.4696  13.1642   4.8257   H         1 RES1   0.0000
   119 O7       9.9381   7.5289   4.6732   O.3       2 RES2   0.0000
   120 C49      9.7571   8.5162   5.6325   C.3       2 RES2   0.0000
   121 H64      9.4979   9.3413   5.2146   H         2 RES2   0.0000
   122 H65     10.5736   8.6628   6.1171   H         2 RES2   0.0000
   123 C50      8.6996   8.0483   6.5439   C.3       2 RES2   0.0000
   124 H66      8.5433   8.7111   7.2218   H         2 RES2   0.0000
   125 H67      8.9744   7.2278   6.9595   H         2 RES2   0.0000
   126 H68      7.8908   7.9016   6.0482   H         2 RES2   0.0000
@<TRIPOS>BOND
     1     1     2    1
     2     2     4    2
     3     3     1    1
     4     4     5    1
     5     5     6    1
     6     7     5    1
     7     8     7    1
     8     9     7    1
     9    10     9    1
    10    11     9    1
    11    12     9    1
    12    13    12    1
    13    14    12    1
    14    15    12    1
    15    16    15    1
    16    17    15    1
    17    18    17    1
    18    19     4    1
    19    20     5    1
    20    21    20    1
    21    22    20    1
    22    23    22    1
    23    24    22    1
    24    25     7    1
    25    26    25    1
    26    27     3    1
    27    28    27    1
    28    29    28    1
    29    30    29    1
    30    31    29    1
    31    32    29    1
    32    33    28    1
    33    34    33    1
    34    35    33    1
    35    36    33    1
    36    37    28    1
    37    38    37    1
    38    39    37    1
    39    40    37    1
    40    41     1    1
    41    42     1    1
    42    43    41    2
    43    44    43    1
    44    45    44    1
    45    46    44    1
    46    47    46    1
    47    48    46    1
    48    49    48    1
    49    50    48    1
    50    51    48    1
    51    52    51    1
    52    53    51    1
    53    54    51    1
    54    55    54    1
    55    56    54    1
    56    57    56    1
    57    58    43    1
    58    59    44    1
    59    60    59    1
    60    61    59    1
    61    62    61    1
    62    63    61    1
    63    64    46    1
    64    65    64    1
    65    66    42    1
    66    67    66    1
    67    68    67    1
    68    69    68    1
    69    70    68    1
    70    71    68    1
    71    72    67    1
    72    73    72    1
    73    74    72    1
    74    75    72    1
    75    76    67    1
    76    77    76    1
    77    78    76    1
    78    79    76    1
    79    80     1    1
    80    81     1    1
    81    82    80    2
    82    83    82    1
    83    84    83    1
    84    85    83    1
    85    86    85    1
    86    87    85    1
    87    88    87    1
    88    89    87    1
    89    90    87    1
    90    91    90    1
    91    92    90    1
    92    93    90    1
    93    94    93    1
    94    95    93    1
    95    96    95    1
    96    97    82    1
    97    98    83    1
    98    99    98    1
    99   100    98    1
   100   101   100    1
   101   102   100    1
   102   103    85    1
   103   104   103    1
   104   105    81    1
   105   106   105    1
   106   107   106    1
   107   108   107    1
   108   109   107    1
   109   110   107    1
   110   111   106    1
   111   112   111    1
   112   113   111    1
   113   114   111    1
   114   115   106    1
   115   116   115    1
   116   117   115    1
   117   118   115    1
   118    15    25    1
   119    17    19    1
   120    17    20    1
   121    19    27    2
   122    22    25    1
   123    54    64    1
   124    56    58    1
   125    56    59    1
   126    58    66    2
   127    61    64    1
   128    93   103    1
   129    95    97    1
   130    95    98    1
   131    97   105    2
   132   100   103    1
   133   119   120    1
   134   120   121    1
   135   122   120    1
   136   123   120    1
   137   124   123    1
   138   125   123    1
   139   126   123    1
@<TRIPOS>SUBSTRUCTURE
     1 RES1        1 GROUP             0 ****  ****    0  
     2 RES2      119 GROUP             0 ****  ****    0  
@<TRIPOS>CRYSIN
   13.0233   15.5974   22.2278   90.0000   90.0000   90.0000    19     1
