@<TRIPOS>MOLECULE
SASREK
    80    81     5     0     0
SMALL
USER_CHARGES
****
Generated from the CSD

@<TRIPOS>ATOM
     1 Tb1      3.0944  16.2550  16.8399   Tb        1 RES1   3.0000
     2 N1      -0.0237  16.7954  20.0575   N.am      1 RES1   0.0000
     3 N2       4.6244  12.8025  19.3098   N.am      1 RES1   0.0000
     4 N3       5.9015  19.0155  19.0269   N.am      1 RES1   0.0000
     5 O1       1.6652  16.8883  18.6025   O.2       1 RES1   0.0000
     6 O2       0.9713  14.9836  17.1363   O.3       1 RES1   0.0000
     7 O3       3.5536  14.5386  18.3735   O.2       1 RES1   0.0000
     8 O4       4.6823  17.3406  18.1916   O.2       1 RES1   0.0000
     9 O5       3.0944  18.7295  16.8399   O.3       1 RES1   0.0000
    10 C1       0.6092  16.3528  18.9977   C.2       1 RES1   0.0000
    11 C2       0.0612  15.1890  18.2096   C.3       1 RES1   0.0000
    12 C3       0.5800  13.9028  16.3145   C.3       1 RES1   0.0000
    13 C4       4.5164  13.7512  18.4094   C.2       1 RES1   0.0000
    14 C5       1.8090  17.7808  21.4316   C.3       1 RES1   0.0000
    15 C6       0.4618  18.0033  20.7962   C.3       1 RES1   0.0000
    16 C7       0.4132  19.2332  19.9407   C.3       1 RES1   0.0000
    17 C8      -2.4597  17.0619  20.4123   C.3       1 RES1   0.0000
    18 C9      -1.2586  16.1548  20.5627   C.3       1 RES1   0.0000
    19 C10     -1.0911  15.6658  21.9840   C.3       1 RES1   0.0000
    20 C11      3.4648  13.8759  21.2543   C.3       1 RES1   0.0000
    21 C12      3.5717  12.6387  20.3584   C.3       1 RES1   0.0000
    22 C13      2.2961  12.2010  19.7679   C.3       1 RES1   0.0000
    23 C14      6.5255  11.9223  20.5829   C.3       1 RES1   0.0000
    24 C15      5.7723  11.8514  19.3188   C.3       1 RES1   0.0000
    25 C16      5.2959  10.4577  19.0336   C.3       1 RES1   0.0000
    26 C17      4.8997  18.5632  18.3084   C.2       1 RES1   0.0000
    27 C18      4.0210  19.5168  17.5674   C.3       1 RES1   0.0000
    28 C19      6.0793  17.2575  20.7850   C.3       1 RES1   0.0000
    29 C20      6.8135  18.0717  19.7342   C.3       1 RES1   0.0000
    30 C21      7.5802  17.2624  18.7575   C.3       1 RES1   0.0000
    31 C22      6.1710  20.9349  20.5402   C.3       1 RES1   0.0000
    32 C23      6.2055  20.4704  19.1324   C.3       1 RES1   0.0000
    33 C24      7.5281  20.7980  18.4566   C.3       1 RES1   0.0000
    34 N1A      6.2126  16.7954  13.6224   N.am      1 RES1   0.0000
    35 N2A      1.5645  12.8025  14.3701   N.am      1 RES1   0.0000
    36 N3A      0.2874  19.0155  14.6530   N.am      1 RES1   0.0000
    37 O1A      4.5237  16.8883  15.0774   O.2       1 RES1   0.0000
    38 O2A      5.2176  14.9836  16.5436   O.3       1 RES1   0.0000
    39 O3A      2.6352  14.5386  15.3064   O.2       1 RES1   0.0000
    40 O4A      1.5066  17.3406  15.4883   O.2       1 RES1   0.0000
    41 C1A      5.5797  16.3528  14.6822   C.2       1 RES1   0.0000
    42 C2A      6.1277  15.1890  15.4703   C.3       1 RES1   0.0000
    43 C3A      5.6089  13.9028  17.3654   C.3       1 RES1   0.0000
    44 C4A      1.6724  13.7512  15.2705   C.2       1 RES1   0.0000
    45 C5A      4.3799  17.7808  12.2483   C.3       1 RES1   0.0000
    46 C6A      5.7271  18.0033  12.8837   C.3       1 RES1   0.0000
    47 C7A      5.7756  19.2332  13.7392   C.3       1 RES1   0.0000
    48 C8A      8.6486  17.0619  13.2676   C.3       1 RES1   0.0000
    49 C9A      7.4475  16.1548  13.1172   C.3       1 RES1   0.0000
    50 C10A     7.2800  15.6658  11.6959   C.3       1 RES1   0.0000
    51 C11A     2.7240  13.8759  12.4256   C.3       1 RES1   0.0000
    52 C12A     2.6171  12.6387  13.3215   C.3       1 RES1   0.0000
    53 C13A     3.8927  12.2010  13.9120   C.3       1 RES1   0.0000
    54 C14A    -0.3366  11.9223  13.0970   C.3       1 RES1   0.0000
    55 C15A     0.4165  11.8514  14.3611   C.3       1 RES1   0.0000
    56 C16A     0.8930  10.4577  14.6463   C.3       1 RES1   0.0000
    57 C17A     1.2892  18.5632  15.3715   C.2       1 RES1   0.0000
    58 C18A     2.1679  19.5168  16.1125   C.3       1 RES1   0.0000
    59 C19A     0.1096  17.2575  12.8949   C.3       1 RES1   0.0000
    60 C20A    -0.6246  18.0717  13.9457   C.3       1 RES1   0.0000
    61 C21A    -1.3914  17.2624  14.9224   C.3       1 RES1   0.0000
    62 C22A     0.0179  20.9349  13.1396   C.3       1 RES1   0.0000
    63 C23A    -0.0167  20.4704  14.5475   C.3       1 RES1   0.0000
    64 C24A    -1.3392  20.7980  15.2233   C.3       1 RES1   0.0000
    65 Fe1      3.0944  24.0867  16.8399   Fe        2 RES2   0.0000
    66 N4       2.1558  21.9619  18.8787   N.1       2 RES2   0.0000
    67 N5       5.7881  23.9938  18.2814   N.1       2 RES2   0.0000
    68 N6       2.1528  26.2824  18.7934   N.1       2 RES2   0.0000
    69 C25      2.4999  22.7370  18.1086   C.1       2 RES2   0.0000
    70 C26      4.7740  24.0304  17.7179   C.1       2 RES2  -1.0000
    71 C27      2.5055  25.4437  18.0704   C.1       2 RES2   0.0000
    72 N4A      4.0331  21.9619  14.8012   N.1       2 RES2   0.0000
    73 N5A      0.4008  23.9938  15.3984   N.1       2 RES2   0.0000
    74 N6A      4.0361  26.2824  14.8865   N.1       2 RES2   0.0000
    75 C25A     3.6890  22.7370  15.5713   C.1       2 RES2  -1.0000
    76 C26A     1.4149  24.0304  15.9620   C.1       2 RES2   0.0000
    77 C27A     3.6833  25.4437  15.6095   C.1       2 RES2  -1.0000
    78 O6       5.0062  24.6637  21.1218   O.3       3 RES3   0.0000
    79 O7       2.6604   1.9683  21.5731   O.3       4 RES4   0.0000
    80 O8       2.8761  22.3311  21.6360   O.3       5 RES5   0.0000
@<TRIPOS>BOND
     1     1     5    1
     2     2    10   am
     3     3    13   am
     4     4    26   am
     5     5    10    2
     6     6     1    1
     7     7     1    1
     8     8     1    1
     9     9     1    1
    10    10    11    1
    11    11     6    1
    12    12     6    1
    13    13     7    2
    14    14    15    1
    15    15     2    1
    16    16    15    1
    17    17    18    1
    18    18     2    1
    19    19    18    1
    20    20    21    1
    21    21     3    1
    22    22    21    1
    23    23    24    1
    24    24     3    1
    25    25    24    1
    26    26     8    2
    27    27     9    1
    28    28    29    1
    29    29     4    1
    30    30    29    1
    31    31    32    1
    32    32     4    1
    33    33    32    1
    34    34    41   am
    35    35    44   am
    36    36    57   am
    37    37     1    1
    38    38     1    1
    39    39     1    1
    40    40     1    1
    41    41    37    2
    42    42    38    1
    43    43    13    1
    44    44    12    1
    45    45    46    1
    46    46    34    1
    47    47    46    1
    48    48    49    1
    49    49    34    1
    50    50    49    1
    51    51    52    1
    52    52    35    1
    53    53    52    1
    54    54    55    1
    55    55    35    1
    56    56    55    1
    57    57    40    2
    58    58     9    1
    59    59    60    1
    60    60    36    1
    61    61    60    1
    62    62    63    1
    63    63    36    1
    64    64    63    1
    65    26    27    1
    66    38    43    1
    67    39    44    2
    68    41    42    1
    69    57    58    1
    70    65    69    1
    71    66    69    3
    72    67    70    3
    73    68    71    3
    74    70    65    1
    75    71    65    1
    76    72    75    3
    77    73    76    3
    78    74    77    3
    79    75    65    1
    80    76    65    1
    81    77    65    1
@<TRIPOS>SUBSTRUCTURE
     1 RES1        1 GROUP             0 ****  ****    0  
     2 RES2       65 GROUP             0 ****  ****    0  
     3 RES3       78 GROUP             0 ****  ****    0  
     4 RES4       79 GROUP             0 ****  ****    0  
     5 RES5       80 GROUP             0 ****  ****    0  
@<TRIPOS>CRYSIN
   13.5760   24.4510   22.9870   90.0000  102.3710   90.0000    15     1
