@<TRIPOS>MOLECULE
SAVTAN
   116   121     3     0     0
SMALL
USER_CHARGES
****
Generated from the CSD

@<TRIPOS>ATOM
     1 Fe1     -1.1964  10.2777   5.7895   Fe        1 RES1   2.0000
     2 S1      -4.4470   9.6152   6.3559   S.3       1 RES1   0.0000
     3 S2      -3.2698  11.0417   5.3925   S.3       1 RES1   0.0000
     4 S3      -3.5438  10.5380   3.3930   S.3       1 RES1   0.0000
     5 N1      -1.0408   7.6945   6.9392   N.ar      1 RES1   0.0000
     6 N2      -1.9672   8.6255   6.5664   N.ar      1 RES1   0.0000
     7 C1      -3.2518   8.3876   6.7528   C.ar      1 RES1   0.0000
     8 C2      -3.7404   7.1687   7.3098   C.ar      1 RES1   0.0000
     9 C3      -2.7950   6.2606   7.6826   C.ar      1 RES1   0.0000
    10 H1      -3.0544   5.4378   8.0798   H         1 RES1   0.0000
    11 C4      -1.4281   6.5457   7.4753   C.ar      1 RES1   0.0000
    12 C5      -5.2178   6.9245   7.4394   C.3       1 RES1   0.0000
    13 H2      -5.3691   6.0632   7.8818   H         1 RES1   0.0000
    14 H3      -5.6273   6.9112   6.5490   H         1 RES1   0.0000
    15 H4      -5.6218   7.6413   7.9732   H         1 RES1   0.0000
    16 C6      -0.3699   5.5470   7.9049   C.3       1 RES1   0.0000
    17 C7       1.0337   6.0199   7.5298   C.3       1 RES1   0.0000
    18 H5       1.0925   6.1305   6.5583   H         1 RES1   0.0000
    19 H6       1.6913   5.3552   7.8227   H         1 RES1   0.0000
    20 H7       1.2173   6.8768   7.9686   H         1 RES1   0.0000
    21 C8      -0.4506   5.3613   9.4218   C.3       1 RES1   0.0000
    22 H8      -0.3216   6.2256   9.8641   H         1 RES1   0.0000
    23 H9       0.2482   4.7376   9.7112   H         1 RES1   0.0000
    24 H10     -1.3300   5.0004   9.6603   H         1 RES1   0.0000
    25 C9      -0.6465   4.2025   7.1928   C.3       1 RES1   0.0000
    26 H11     -1.5173   3.8550   7.4777   H         1 RES1   0.0000
    27 H12      0.0547   3.5584   7.4256   H         1 RES1   0.0000
    28 H13     -0.6527   4.3420   6.2225   H         1 RES1   0.0000
    29 N3      -0.0010   8.7938   3.7215   N.ar      1 RES1   0.0000
    30 N4      -1.1474   9.4749   3.9866   N.ar      1 RES1   0.0000
    31 C10     -2.1164   9.5555   3.0765   C.ar      1 RES1   0.0000
    32 C11     -2.0097   8.9352   1.8190   C.ar      1 RES1   0.0000
    33 C12     -0.8606   8.2453   1.5713   C.ar      1 RES1   0.0000
    34 H14     -0.7497   7.7885   0.7457   H         1 RES1   0.0000
    35 C13      0.1552   8.2088   2.5335   C.ar      1 RES1   0.0000
    36 C14     -3.1148   9.0479   0.8128   C.3       1 RES1   0.0000
    37 H15     -2.8193   8.6711  -0.0417   H         1 RES1   0.0000
    38 H16     -3.3480   9.9924   0.6889   H         1 RES1   0.0000
    39 H17     -3.8995   8.5562   1.1336   H         1 RES1   0.0000
    40 C15      1.4938   7.5283   2.2579   C.3       1 RES1   0.0000
    41 C16      1.2324   6.1546   1.6199   C.3       1 RES1   0.0000
    42 H18      0.6496   5.6278   2.2046   H         1 RES1   0.0000
    43 H19      2.0841   5.6842   1.4972   H         1 RES1   0.0000
    44 H20      0.7984   6.2770   0.7492   H         1 RES1   0.0000
    45 C17      2.3126   7.3441   3.5327   C.3       1 RES1   0.0000
    46 H21      2.5653   8.2230   3.8870   H         1 RES1   0.0000
    47 H22      3.1209   6.8287   3.3301   H         1 RES1   0.0000
    48 H23      1.7766   6.8642   4.1985   H         1 RES1   0.0000
    49 C18      2.2833   8.3933   1.2609   C.3       1 RES1   0.0000
    50 H24      1.7504   8.5236   0.4493   H         1 RES1   0.0000
    51 H25      3.1233   7.9438   1.0328   H         1 RES1   0.0000
    52 H26      2.4785   9.2628   1.6674   H         1 RES1   0.0000
    53 S1A      2.0543  10.9403   5.2230   S.3       1 RES1   0.0000
    54 S2A      0.8771   9.5138   6.1864   S.3       1 RES1   0.0000
    55 S3A      1.1511  10.0175   8.1859   S.3       1 RES1   0.0000
    56 N1A     -1.3519  12.8610   4.6397   N.ar      1 RES1   0.0000
    57 N2A     -0.4255  11.9300   5.0125   N.ar      1 RES1   0.0000
    58 C1A      0.8591  12.1679   4.8261   C.ar      1 RES1   0.0000
    59 C2A      1.3477  13.3868   4.2691   C.ar      1 RES1   0.0000
    60 C3A      0.4023  14.2948   3.8963   C.ar      1 RES1   0.0000
    61 H1A      0.6617  15.1177   3.4991   H         1 RES1   0.0000
    62 C4A     -0.9646  14.0098   4.1036   C.ar      1 RES1   0.0000
    63 C5A      2.8251  13.6310   4.1395   C.3       1 RES1   0.0000
    64 H2A      2.9764  14.4922   3.6971   H         1 RES1   0.0000
    65 H3A      3.2346  13.6443   5.0299   H         1 RES1   0.0000
    66 H4A      3.2291  12.9142   3.6057   H         1 RES1   0.0000
    67 C6A     -2.0228  15.0085   3.6740   C.3       1 RES1   0.0000
    68 C7A     -3.4264  14.5356   4.0491   C.3       1 RES1   0.0000
    69 H5A     -3.4852  14.4249   5.0206   H         1 RES1   0.0000
    70 H6A     -4.0840  15.2003   3.7562   H         1 RES1   0.0000
    71 H7A     -3.6100  13.6787   3.6103   H         1 RES1   0.0000
    72 C8A     -1.9421  15.1942   2.1572   C.3       1 RES1   0.0000
    73 H8A     -2.0711  14.3299   1.7148   H         1 RES1   0.0000
    74 H9A     -2.6409  15.8179   1.8677   H         1 RES1   0.0000
    75 H10A    -1.0627  15.5551   1.9186   H         1 RES1   0.0000
    76 C9A     -1.7462  16.3530   4.3861   C.3       1 RES1   0.0000
    77 H11A    -0.8754  16.7005   4.1012   H         1 RES1   0.0000
    78 H12A    -2.4474  16.9971   4.1534   H         1 RES1   0.0000
    79 H13A    -1.7400  16.2135   5.3564   H         1 RES1   0.0000
    80 N3A     -2.3917  11.7617   7.8574   N.ar      1 RES1   0.0000
    81 N4A     -1.2453  11.0806   7.5923   N.ar      1 RES1   0.0000
    82 C10A    -0.2763  11.0000   8.5024   C.ar      1 RES1   0.0000
    83 C11A    -0.3830  11.6203   9.7599   C.ar      1 RES1   0.0000
    84 C12A    -1.5321  12.3101  10.0076   C.ar      1 RES1   0.0000
    85 H14A    -1.6430  12.7669  10.8332   H         1 RES1   0.0000
    86 C13A    -2.5479  12.3467   9.0454   C.ar      1 RES1   0.0000
    87 C14A     0.7221  11.5076  10.7661   C.3       1 RES1   0.0000
    88 H15A     0.4266  11.8844  11.6206   H         1 RES1   0.0000
    89 H16A     0.9553  10.5631  10.8900   H         1 RES1   0.0000
    90 H17A     1.5068  11.9993  10.4453   H         1 RES1   0.0000
    91 C15A    -3.8865  13.0272   9.3210   C.3       1 RES1   0.0000
    92 C16A    -3.6251  14.4008   9.9590   C.3       1 RES1   0.0000
    93 H18A    -3.0423  14.9276   9.3743   H         1 RES1   0.0000
    94 H19A    -4.4768  14.8712  10.0818   H         1 RES1   0.0000
    95 H20A    -3.1911  14.2785  10.8298   H         1 RES1   0.0000
    96 C17A    -4.7053  13.2114   8.0462   C.3       1 RES1   0.0000
    97 H21A    -4.9580  12.3325   7.6919   H         1 RES1   0.0000
    98 H22A    -5.5136  13.7268   8.2488   H         1 RES1   0.0000
    99 H23A    -4.1693  13.6913   7.3804   H         1 RES1   0.0000
   100 C18A    -4.6760  12.1621  10.3180   C.3       1 RES1   0.0000
   101 H24A    -4.1431  12.0318  11.1296   H         1 RES1   0.0000
   102 H25A    -5.5160  12.6117  10.5461   H         1 RES1   0.0000
   103 H26A    -4.8712  11.2927   9.9115   H         1 RES1   0.0000
   104 O1      -4.6793   4.4260   2.4026   O.2       2 RES2   0.0000
   105 O2      -3.0601   5.9403   1.4173   O.2       2 RES2   0.0000
   106 O3      -2.3582   3.7415   2.1988   O.3       2 RES2  -1.0000
   107 S4      -3.3011   4.8365   2.2999   S.o2      2 RES2   0.0000
   108 C19     -2.9480   5.5334   3.9554   C.3       2 RES2   0.0000
   109 F1      -1.6912   5.9087   4.0769   F         2 RES2   0.0000
   110 F2      -3.2028   4.6406   4.9129   F         2 RES2   0.0000
   111 F3      -3.7015   6.6221   4.1742   F         2 RES2   0.0000
   112 C20     -0.4335  11.4704  -0.3277   C.3       3 RES3   0.0000
   113 H27     -0.6557  10.5153  -0.4562   H         3 RES3   0.0000
   114 H28      0.3001  11.7023  -0.9506   H         3 RES3   0.0000
   115 Cl1      0.0990  11.7363   1.3385   Cl        3 RES3   0.0000
   116 Cl2     -1.8628  12.4692  -0.6909   Cl        3 RES3   0.0000
@<TRIPOS>BOND
     1     1     3    1
     2     2     3    1
     3     3     4    1
     4     4    31    1
     5     5     6   ar
     6     6     1    1
     7     7     2    1
     8     8     7   ar
     9     9     8   ar
    10    10     9    1
    11    11     5   ar
    12    12     8    1
    13    13    12    1
    14    14    12    1
    15    15    12    1
    16    16    11    1
    17    17    16    1
    18    18    17    1
    19    19    17    1
    20    20    17    1
    21    21    16    1
    22    22    21    1
    23    23    21    1
    24    24    21    1
    25    25    16    1
    26    26    25    1
    27    27    25    1
    28    28    25    1
    29    29    30   ar
    30    30     1    1
    31    31    30   ar
    32    32    31   ar
    33    33    32   ar
    34    34    33    1
    35    35    29   ar
    36    36    32    1
    37    37    36    1
    38    38    36    1
    39    39    36    1
    40    40    35    1
    41    41    40    1
    42    42    41    1
    43    43    41    1
    44    44    41    1
    45    45    40    1
    46    46    45    1
    47    47    45    1
    48    48    45    1
    49    49    40    1
    50    50    49    1
    51    51    49    1
    52    52    49    1
    53    53    54    1
    54    54     1    1
    55    55    54    1
    56    56    57   ar
    57    57     1    1
    58    58    53    1
    59    59    58   ar
    60    60    59   ar
    61    61    60    1
    62    62    56   ar
    63    63    59    1
    64    64    63    1
    65    65    63    1
    66    66    63    1
    67    67    62    1
    68    68    67    1
    69    69    68    1
    70    70    68    1
    71    71    68    1
    72    72    67    1
    73    73    72    1
    74    74    72    1
    75    75    72    1
    76    76    67    1
    77    77    76    1
    78    78    76    1
    79    79    76    1
    80    80    81   ar
    81    81     1    1
    82    82    55    1
    83    83    82   ar
    84    84    83   ar
    85    85    84    1
    86    86    80   ar
    87    87    83    1
    88    88    87    1
    89    89    87    1
    90    90    87    1
    91    91    86    1
    92    92    91    1
    93    93    92    1
    94    94    92    1
    95    95    92    1
    96    96    91    1
    97    97    96    1
    98    98    96    1
    99    99    96    1
   100   100    91    1
   101   101   100    1
   102   102   100    1
   103   103   100    1
   104     6     7   ar
   105     9    11   ar
   106    33    35   ar
   107    57    58   ar
   108    60    62   ar
   109    81    82   ar
   110    84    86   ar
   111   104   107    2
   112   105   107    2
   113   106   107    1
   114   107   108    1
   115   108   109    1
   116   110   108    1
   117   111   108    1
   118   112   113    1
   119   114   112    1
   120   115   112    1
   121   116   112    1
@<TRIPOS>SUBSTRUCTURE
     1 RES1        1 GROUP             0 ****  ****    0  
     2 RES2      104 GROUP             0 ****  ****    0  
     3 RES3      112 GROUP             0 ****  ****    0  
@<TRIPOS>CRYSIN
    9.3920   13.2370   13.4400  105.1540  110.4470  105.5330     2     1
