@<TRIPOS>MOLECULE
SAXTEQ
   231   251     3     0     0
SMALL
USER_CHARGES
****
Generated from the CSD

@<TRIPOS>ATOM
     1 Fe1      6.1730   2.6419   4.0266   Fe        1 RES1   0.0000
     2 N1       5.7529   4.5199   3.8061   N.1       1 RES1   0.0000
     3 O1       4.8608   5.0593   4.4772   O.2       1 RES1   0.0000
     4 O2       6.3821   5.2160   2.9908   O.2       1 RES1   0.0000
     5 N2       6.2386   2.4110   2.0477   N.2       1 RES1   0.0000
     6 N3       8.0935   3.1329   4.0444   N.2       1 RES1   0.0000
     7 N4       6.0963   2.8438   6.0010   N.2       1 RES1  -1.0000
     8 N5       4.2329   2.1938   3.9965   N.2       1 RES1   0.0000
     9 N6       9.4062   4.9621   0.1017   N.am      1 RES1   0.0000
    10 N7       8.8080   6.4259   6.9576   N.am      1 RES1   0.0000
    11 N8       2.5868   4.5132   7.5697   N.am      1 RES1   0.0000
    12 N9       2.3914   4.3279   0.6498   N.am      1 RES1   0.0000
    13 O3      10.5659   6.4444  -1.1428   O.2       1 RES1   0.0000
    14 O4      10.2020   8.1775   7.1978   O.2       1 RES1   0.0000
    15 O5       1.4116   5.9369   8.8368   O.2       1 RES1   0.0000
    16 O6       0.8051   5.6985  -0.2303   O.2       1 RES1   0.0000
    17 C1       7.3557   2.4555   1.2527   C.2       1 RES1   0.0000
    18 C2       5.1797   2.2080   1.1871   C.2       1 RES1   0.0000
    19 C3       8.9646   3.1292   2.9795   C.2       1 RES1   0.0000
    20 C4       8.8246   3.5987   5.1117   C.2       1 RES1   0.0000
    21 C5       7.1068   3.2585   6.8349   C.2       1 RES1   0.0000
    22 C6       5.0299   2.5801   6.8262   C.2       1 RES1   0.0000
    23 C7       3.3872   2.0854   5.0751   C.2       1 RES1   0.0000
    24 C8       3.4203   2.0608   2.8889   C.2       1 RES1   0.0000
    25 C9       6.9919   2.2537  -0.1303   C.2       1 RES1   0.0000
    26 C10      5.6517   2.1221  -0.1708   C.2       1 RES1   0.0000
    27 C11     10.2612   3.6034   3.3898   C.2       1 RES1   0.0000
    28 C12     10.1676   3.9235   4.6935   C.2       1 RES1   0.0000
    29 C13      6.6700   3.2256   8.2120   C.2       1 RES1   0.0000
    30 C14      5.3919   2.7981   8.1964   C.2       1 RES1   0.0000
    31 C15      2.0308   1.8580   4.6279   C.2       1 RES1   0.0000
    32 C16      2.0482   1.8564   3.2867   C.2       1 RES1   0.0000
    33 C17      8.6499   2.7451   1.6812   C.2       1 RES1   0.0000
    34 C18      8.3784   3.6552   6.4229   C.2       1 RES1   0.0000
    35 C19      3.7514   2.2309   6.4052   C.2       1 RES1   0.0000
    36 C20      3.8436   2.0888   1.5673   C.2       1 RES1   0.0000
    37 C21      9.7530   2.6585   0.6600   C.ar      1 RES1   0.0000
    38 C22     10.1021   3.7609  -0.1265   C.ar      1 RES1   0.0000
    39 C23     11.0912   3.6286  -1.1154   C.ar      1 RES1   0.0000
    40 C24     11.6890   2.3992  -1.3221   C.ar      1 RES1   0.0000
    41 C25     11.3557   1.3063  -0.5526   C.ar      1 RES1   0.0000
    42 C26     10.3870   1.4433   0.4427   C.ar      1 RES1   0.0000
    43 C27      9.6388   6.1995  -0.3943   C.2       1 RES1   0.0000
    44 C28      8.6566   7.2748   0.0632   C.3       1 RES1   0.0000
    45 C29      8.7693   8.4735  -0.8662   C.3       1 RES1   0.0000
    46 C30      7.2178   6.7736   0.0781   C.3       1 RES1   0.0000
    47 C31      9.0718   7.6930   1.4790   C.3       1 RES1   0.0000
    48 C32      9.2971   4.1318   7.5100   C.ar      1 RES1   0.0000
    49 C33      9.4601   5.4962   7.7910   C.ar      1 RES1   0.0000
    50 C34     10.1906   5.9007   8.9102   C.ar      1 RES1   0.0000
    51 C35     10.7819   4.9511   9.7219   C.ar      1 RES1   0.0000
    52 C36     10.6781   3.6158   9.4326   C.ar      1 RES1   0.0000
    53 C37      9.9260   3.2055   8.3370   C.ar      1 RES1   0.0000
    54 C38      9.2057   7.6954   6.6976   C.2       1 RES1   0.0000
    55 C39      8.3388   8.5151   5.7282   C.3       1 RES1   0.0000
    56 C40      7.5713   9.5157   6.5638   C.3       1 RES1   0.0000
    57 C41      9.2718   9.2626   4.7903   C.3       1 RES1   0.0000
    58 C42      7.3722   7.6599   4.9106   C.3       1 RES1   0.0000
    59 C43      2.6513   2.1106   7.4189   C.ar      1 RES1   0.0000
    60 C44      2.0471   3.2725   7.9437   C.ar      1 RES1   0.0000
    61 C45      0.9434   3.1450   8.8002   C.ar      1 RES1   0.0000
    62 C46      0.4712   1.8917   9.1384   C.ar      1 RES1   0.0000
    63 C47      1.0817   0.7554   8.6603   C.ar      1 RES1   0.0000
    64 C48      2.1688   0.8723   7.8014   C.ar      1 RES1   0.0000
    65 C49      2.3372   5.7414   8.0843   C.2       1 RES1   0.0000
    66 C50      3.2971   6.8554   7.6601   C.3       1 RES1   0.0000
    67 C51      3.0456   7.2054   6.1940   C.3       1 RES1   0.0000
    68 C52      3.0423   8.0732   8.5319   C.3       1 RES1   0.0000
    69 C53      4.7537   6.4052   7.8191   C.3       1 RES1   0.0000
    70 C54      2.7867   1.9595   0.5127   C.ar      1 RES1   0.0000
    71 C55      2.4652   0.7217  -0.0116   C.ar      1 RES1   0.0000
    72 C56      1.4568   0.5751  -0.9521   C.ar      1 RES1   0.0000
    73 C57      0.7680   1.6794  -1.3717   C.ar      1 RES1   0.0000
    74 C58      1.0439   2.9359  -0.8721   C.ar      1 RES1   0.0000
    75 C59      2.0559   3.0884   0.0857   C.ar      1 RES1   0.0000
    76 C60      1.7929   5.5495   0.4748   C.2       1 RES1   0.0000
    77 C61      2.4036   6.7095   1.2589   C.3       1 RES1   0.0000
    78 C62      1.7335   6.7503   2.6147   C.3       1 RES1   0.0000
    79 C63      3.9021   6.5864   1.4330   C.3       1 RES1   0.0000
    80 C64      2.1170   7.9898   0.4849   C.3       1 RES1   0.0000
    81 S1       6.7206   0.3339   4.2230   S.3       1 RES1   0.0000
    82 C65      6.5669  -0.2085   5.9458   C.3       1 RES1   0.0000
    83 C66      7.1834  -1.5846   6.1782   C.3       1 RES1   0.0000
    84 C67      8.6626  -1.6329   5.8863   C.3       1 RES1   0.0000
    85 C68      8.9844  -1.2683   4.4661   C.3       1 RES1   0.0000
    86 C69      8.5175   0.1283   4.0940   C.3       1 RES1   0.0000
    87 H1       7.5988   2.2192  -0.8683   H         1 RES1   0.0000
    88 H2       5.1131   1.9946  -0.9533   H         1 RES1   0.0000
    89 H3      11.0404   3.6797   2.8410   H         1 RES1   0.0000
    90 H4      10.8580   4.3005   5.2337   H         1 RES1   0.0000
    91 H5       7.1887   3.4648   8.9855   H         1 RES1   0.0000
    92 H6       4.8250   2.6666   8.9524   H         1 RES1   0.0000
    93 H7       1.2626   1.7383   5.1865   H         1 RES1   0.0000
    94 H8       1.2914   1.7403   2.7018   H         1 RES1   0.0000
    95 H9      11.3526   4.3872  -1.6423   H         1 RES1   0.0000
    96 H10     12.3513   2.3040  -2.0057   H         1 RES1   0.0000
    97 H11     11.7831   0.4572  -0.7055   H         1 RES1   0.0000
    98 H12     10.1572   0.6898   0.9934   H         1 RES1   0.0000
    99 H13     10.2770   6.8331   9.1176   H         1 RES1   0.0000
   100 H14     11.2731   5.2229  10.4909   H         1 RES1   0.0000
   101 H15     11.1183   2.9741   9.9812   H         1 RES1   0.0000
   102 H16      9.8366   2.2665   8.1384   H         1 RES1   0.0000
   103 H17      0.5192   3.9300   9.1506   H         1 RES1   0.0000
   104 H18     -0.2973   1.8211   9.7075   H         1 RES1   0.0000
   105 H19      0.7658  -0.1183   8.9241   H         1 RES1   0.0000
   106 H20      2.5934   0.0828   7.4611   H         1 RES1   0.0000
   107 H21      1.2449  -0.2937  -1.3167   H         1 RES1   0.0000
   108 H22      0.0693   1.5787  -2.0198   H         1 RES1   0.0000
   109 H23      0.5436   3.7053  -1.1845   H         1 RES1   0.0000
   110 H24      2.9572  -0.0552   0.2973   H         1 RES1   0.0000
   111 H25      8.6954   4.8977   0.6607   H         1 RES1   0.0000
   112 H26      8.0462   6.1433   6.5527   H         1 RES1   0.0000
   113 H27      3.1792   4.4858   6.8807   H         1 RES1   0.0000
   114 H28      3.1049   4.3202   1.2128   H         1 RES1   0.0000
   115 H29      8.1668   9.1647  -0.6088   H         1 RES1   0.0000
   116 H30      8.5635   8.2285  -1.7650   H         1 RES1   0.0000
   117 H31      9.6529   8.8316  -0.8565   H         1 RES1   0.0000
   118 H32      6.6187   7.4599   0.3634   H         1 RES1   0.0000
   119 H33      7.1183   6.0329   0.6654   H         1 RES1   0.0000
   120 H34      6.9448   6.4961  -0.7928   H         1 RES1   0.0000
   121 H35      9.9713   8.0117   1.4984   H         1 RES1   0.0000
   122 H36      9.0106   6.9612   2.0883   H         1 RES1   0.0000
   123 H37      8.5099   8.3921   1.8122   H         1 RES1   0.0000
   124 H38      7.0043  10.0634   6.0171   H         1 RES1   0.0000
   125 H39      8.1550  10.0949   7.0411   H         1 RES1   0.0000
   126 H40      7.0095   9.0760   7.1992   H         1 RES1   0.0000
   127 H41      8.7786   9.7914   4.1529   H         1 RES1   0.0000
   128 H42      9.8129   8.6562   4.2804   H         1 RES1   0.0000
   129 H43      9.8554   9.8506   5.2549   H         1 RES1   0.0000
   130 H44      6.8405   8.1950   4.3181   H         1 RES1   0.0000
   131 H45      6.7627   7.1839   5.4743   H         1 RES1   0.0000
   132 H46      7.8348   7.0184   4.3795   H         1 RES1   0.0000
   133 H47      3.6283   7.8974   5.8967   H         1 RES1   0.0000
   134 H48      2.1453   7.4973   6.0524   H         1 RES1   0.0000
   135 H49      3.1901   6.4448   5.6301   H         1 RES1   0.0000
   136 H50      3.6109   8.7961   8.3012   H         1 RES1   0.0000
   137 H51      3.1861   7.8678   9.4550   H         1 RES1   0.0000
   138 H52      2.1336   8.3763   8.4498   H         1 RES1   0.0000
   139 H53      5.3702   7.0854   7.5579   H         1 RES1   0.0000
   140 H54      4.9448   5.6289   7.2936   H         1 RES1   0.0000
   141 H55      4.9519   6.1788   8.7306   H         1 RES1   0.0000
   142 H56      2.0812   7.4599   3.1501   H         1 RES1   0.0000
   143 H57      1.8776   5.9344   3.0958   H         1 RES1   0.0000
   144 H58      0.7917   6.8765   2.5390   H         1 RES1   0.0000
   145 H59      4.2577   7.3199   1.9302   H         1 RES1   0.0000
   146 H60      4.3513   6.5592   0.5970   H         1 RES1   0.0000
   147 H61      4.1295   5.7866   1.9089   H         1 RES1   0.0000
   148 H62      2.4744   8.7547   0.9439   H         1 RES1   0.0000
   149 H63      1.1751   8.1359   0.3917   H         1 RES1   0.0000
   150 H64      2.5006   7.9683  -0.3799   H         1 RES1   0.0000
   151 H101     5.6521  -0.2109   6.2058   H         1 RES1   0.0000
   152 H102     7.0336   0.4237   6.5173   H         1 RES1   0.0000
   153 H103     6.7382  -2.2074   5.5970   H         1 RES1   0.0000
   154 H104     7.0220  -1.8605   7.0789   H         1 RES1   0.0000
   155 H105     9.0041  -2.5090   6.0831   H         1 RES1   0.0000
   156 H106     9.1120  -1.0111   6.4654   H         1 RES1   0.0000
   157 H107     8.5326  -1.8960   3.8745   H         1 RES1   0.0000
   158 H108     9.9232  -1.3560   4.2969   H         1 RES1   0.0000
   159 H109     8.7994   0.3449   3.2067   H         1 RES1   0.0000
   160 H110     8.9477   0.7509   4.6957   H         1 RES1   0.0000
   161 K1      14.7526   4.0049   4.1581   K         2 RES2   1.0000
   162 N10     14.3728   4.3062   7.1086   N.3       2 RES2   0.0000
   163 N11     15.1692   3.7532   1.2159   N.3       2 RES2   0.0000
   164 O7      13.6354   1.8686   5.5852   O.3       2 RES2   0.0000
   165 O8      13.5953   1.7866   2.7910   O.3       2 RES2   0.0000
   166 O9      17.3897   3.8385   3.1411   O.3       2 RES2   0.0000
   167 O10     16.9944   4.5061   5.8616   O.3       2 RES2   0.0000
   168 O11     13.0112   6.0308   5.1758   O.3       2 RES2   0.0000
   169 O12     13.6858   5.9781   2.4427   O.3       2 RES2   0.0000
   170 O13     15.8260   6.3956   3.7919   O.3       2 RES2   0.0000
   171 C70     14.0906   2.9749   7.6428   C.3       2 RES2   0.0000
   172 C71     13.1148   2.1593   6.8545   C.3       2 RES2   0.0000
   173 C72     12.7609   1.0097   4.8568   C.3       2 RES2   0.0000
   174 C73     13.4009   0.6321   3.5649   C.3       2 RES2   0.0000
   175 C74     14.2819   1.4723   1.5913   C.3       2 RES2   0.0000
   176 C75     14.3158   2.6745   0.7081   C.3       2 RES2   0.0000
   177 C76     16.5765   3.4550   0.9446   C.3       2 RES2   0.0000
   178 C77     17.5504   4.2059   1.7971   C.3       2 RES2   0.0000
   179 C78     18.3793   4.4501   3.9623   C.3       2 RES2   0.0000
   180 C79     18.2159   4.0157   5.3561   C.3       2 RES2   0.0000
   181 C80     16.8634   4.2552   7.2521   C.3       2 RES2   0.0000
   182 C81     15.5842   4.8681   7.7358   C.3       2 RES2   0.0000
   183 C82     13.2472   5.1973   7.3863   C.3       2 RES2   0.0000
   184 C83     13.2186   6.4171   6.5248   C.3       2 RES2   0.0000
   185 C84     12.8788   7.1490   4.3299   C.3       2 RES2   0.0000
   186 C85     12.5905   6.6752   2.9054   C.3       2 RES2   0.0000
   187 C86     13.5220   5.5944   1.0838   C.3       2 RES2   0.0000
   188 C87     14.8097   5.0199   0.5800   C.3       2 RES2   0.0000
   189 H65     13.7547   3.0628   8.5371   H         2 RES2   0.0000
   190 H66     14.9076   2.4735   7.6806   H         2 RES2   0.0000
   191 H67     12.2946   2.6647   6.7627   H         2 RES2   0.0000
   192 H68     12.9018   1.3520   7.3172   H         2 RES2   0.0000
   193 H69     11.9267   1.4624   4.6839   H         2 RES2   0.0000
   194 H70     12.5617   0.2326   5.3800   H         2 RES2   0.0000
   195 H71     12.8442   0.0020   3.0935   H         2 RES2   0.0000
   196 H72     14.2396   0.2010   3.7377   H         2 RES2   0.0000
   197 H73     13.8531   0.7430   1.1397   H         2 RES2   0.0000
   198 H74     15.1849   1.2062   1.7862   H         2 RES2   0.0000
   199 H75     13.4156   2.9977   0.6229   H         2 RES2   0.0000
   200 H76     14.6200   2.4124  -0.1605   H         2 RES2   0.0000
   201 H77     16.7271   2.4991   1.1279   H         2 RES2   0.0000
   202 H78     16.7747   3.5890   0.0283   H         2 RES2   0.0000
   203 H79     18.4504   4.0679   1.5125   H         2 RES2   0.0000
   204 H80     17.3618   5.1578   1.7013   H         2 RES2   0.0000
   205 H81     18.2796   5.4022   3.9193   H         2 RES2   0.0000
   206 H82     19.2485   4.2236   3.6480   H         2 RES2   0.0000
   207 H83     18.9434   4.3380   5.8967   H         2 RES2   0.0000
   208 H84     18.2247   3.0588   5.4035   H         2 RES2   0.0000
   209 H85     17.6185   4.5922   7.7372   H         2 RES2   0.0000
   210 H86     16.8316   3.2953   7.4163   H         2 RES2   0.0000
   211 H87     15.6251   5.8161   7.5083   H         2 RES2   0.0000
   212 H88     15.5200   4.8011   8.6740   H         2 RES2   0.0000
   213 H89     13.2882   5.4673   8.3130   H         2 RES2   0.0000
   214 H90     12.4270   4.7203   7.2629   H         2 RES2   0.0000
   215 H91     14.0571   6.8804   6.6117   H         2 RES2   0.0000
   216 H92     12.5236   7.0085   6.8146   H         2 RES2   0.0000
   217 H93     12.1785   7.7180   4.6485   H         2 RES2   0.0000
   218 H94     13.6966   7.6569   4.3370   H         2 RES2   0.0000
   219 H95     12.5584   7.6254   3.0250   H         2 RES2   0.0000
   220 H96     11.9047   6.2931   3.4710   H         2 RES2   0.0000
   221 H97     13.2731   6.3640   0.5545   H         2 RES2   0.0000
   222 H98     12.8244   4.9489   0.9981   H         2 RES2   0.0000
   223 H99     15.5063   5.6644   0.7645   H         2 RES2   0.0000
   224 H100    14.7534   4.9016  -0.3563   H         2 RES2   0.0000
   225 Cl1      5.2755   9.6710  -2.3188   Cl        3 RES3   0.0000
   226 C88      3.9497  10.4458  -1.5005   C.ar      3 RES3   0.0000
   227 C89      2.7043  10.5094  -2.1109   C.ar      3 RES3   0.0000
   228 C90      1.6944  11.1454  -1.4500   C.ar      3 RES3   0.0000
   229 C91      1.8802  11.6679  -0.1708   C.ar      3 RES3   0.0000
   230 C92      3.1189  11.5739   0.4148   C.ar      3 RES3   0.0000
   231 C93      4.1828  10.9491  -0.2414   C.ar      3 RES3   0.0000
@<TRIPOS>BOND
     1     1     2    1
     2     2     3    2
     3     4     2    2
     4     5     1    1
     5     6     1    1
     6     7     1    1
     7     8     1    1
     8     9    38    1
     9    10    49    1
    10    11    60    1
    11    12    75    1
    12    13    43    2
    13    14    54    2
    14    15    65    2
    15    16    76    2
    16    17     5    1
    17    18     5    1
    18    19     6    2
    19    20     6    1
    20    21     7    1
    21    22     7    1
    22    23     8    1
    23    24     8    2
    24    25    17    1
    25    26    18    1
    26    27    19    1
    27    28    20    1
    28    29    21    2
    29    30    22    2
    30    31    23    1
    31    32    24    1
    32    33    17    2
    33    34    20    2
    34    35    22    1
    35    36    18    2
    36    37    33    1
    37    38    37   ar
    38    39    38   ar
    39    40    39   ar
    40    41    40   ar
    41    42    37   ar
    42    43     9   am
    43    44    43    1
    44    45    44    1
    45    46    44    1
    46    47    44    1
    47    48    34    1
    48    49    48   ar
    49    50    49   ar
    50    51    50   ar
    51    52    51   ar
    52    53    48   ar
    53    54    10   am
    54    55    54    1
    55    56    55    1
    56    57    55    1
    57    58    55    1
    58    59    35    1
    59    60    59   ar
    60    61    60   ar
    61    62    61   ar
    62    63    62   ar
    63    64    59   ar
    64    65    11   am
    65    66    65    1
    66    67    66    1
    67    68    66    1
    68    69    66    1
    69    70    36    1
    70    71    70   ar
    71    72    71   ar
    72    73    72   ar
    73    74    73   ar
    74    75    70   ar
    75    76    12   am
    76    77    76    1
    77    78    77    1
    78    79    77    1
    79    80    77    1
    80    81     1    1
    81    82    81    1
    82    83    82    1
    83    84    83    1
    84    85    84    1
    85    86    81    1
    86    87    25    1
    87    88    26    1
    88    89    27    1
    89    90    28    1
    90    91    29    1
    91    92    30    1
    92    93    31    1
    93    94    32    1
    94    95    39    1
    95    96    40    1
    96    97    41    1
    97    98    42    1
    98    99    50    1
    99   100    51    1
   100   101    52    1
   101   102    53    1
   102   103    61    1
   103   104    62    1
   104   105    63    1
   105   106    64    1
   106   107    72    1
   107   108    73    1
   108   109    74    1
   109   110    71    1
   110   111     9    1
   111   112    10    1
   112   113    11    1
   113   114    12    1
   114   115    45    1
   115   116    45    1
   116   117    45    1
   117   118    46    1
   118   119    46    1
   119   120    46    1
   120   121    47    1
   121   122    47    1
   122   123    47    1
   123   124    56    1
   124   125    56    1
   125   126    56    1
   126   127    57    1
   127   128    57    1
   128   129    57    1
   129   130    58    1
   130   131    58    1
   131   132    58    1
   132   133    67    1
   133   134    67    1
   134   135    67    1
   135   136    68    1
   136   137    68    1
   137   138    68    1
   138   139    69    1
   139   140    69    1
   140   141    69    1
   141   142    78    1
   142   143    78    1
   143   144    78    1
   144   145    79    1
   145   146    79    1
   146   147    79    1
   147   148    80    1
   148   149    80    1
   149   150    80    1
   150   151    82    1
   151   152    82    1
   152   153    83    1
   153   154    83    1
   154   155    84    1
   155   156    84    1
   156   157    85    1
   157   158    85    1
   158   159    86    1
   159   160    86    1
   160    19    33    1
   161    21    34    1
   162    23    35    2
   163    24    36    1
   164    25    26    2
   165    27    28    2
   166    29    30    1
   167    31    32    2
   168    41    42   ar
   169    52    53   ar
   170    63    64   ar
   171    74    75   ar
   172    85    86    1
   173   161   162    1
   174   162   171    1
   175   163   161    1
   176   164   161    1
   177   165   161    1
   178   166   161    1
   179   167   161    1
   180   168   161    1
   181   169   161    1
   182   170   161    1
   183   171   172    1
   184   172   164    1
   185   173   164    1
   186   174   165    1
   187   175   165    1
   188   176   163    1
   189   177   163    1
   190   178   166    1
   191   179   166    1
   192   180   167    1
   193   181   167    1
   194   182   162    1
   195   183   162    1
   196   184   168    1
   197   185   168    1
   198   186   169    1
   199   187   169    1
   200   188   163    1
   201   189   171    1
   202   190   171    1
   203   191   172    1
   204   192   172    1
   205   193   173    1
   206   194   173    1
   207   195   174    1
   208   196   174    1
   209   197   175    1
   210   198   175    1
   211   199   176    1
   212   200   176    1
   213   201   177    1
   214   202   177    1
   215   203   178    1
   216   204   178    1
   217   205   179    1
   218   206   179    1
   219   207   180    1
   220   208   180    1
   221   209   181    1
   222   210   181    1
   223   211   182    1
   224   212   182    1
   225   213   183    1
   226   214   183    1
   227   215   184    1
   228   216   184    1
   229   217   185    1
   230   218   185    1
   231   219   186    1
   232   220   186    1
   233   221   187    1
   234   222   187    1
   235   223   188    1
   236   224   188    1
   237   173   174    1
   238   175   176    1
   239   177   178    1
   240   179   180    1
   241   181   182    1
   242   183   184    1
   243   185   186    1
   244   187   188    1
   245   225   226    1
   246   226   227   ar
   247   227   228   ar
   248   228   229   ar
   249   229   230   ar
   250   230   231   ar
   251   231   226   ar
@<TRIPOS>SUBSTRUCTURE
     1 RES1        1 GROUP             0 ****  ****    0  
     2 RES2      161 GROUP             0 ****  ****    0  
     3 RES3      225 GROUP             0 ****  ****    0  
@<TRIPOS>CRYSIN
   19.1010   19.7090   24.3940   90.0000  104.6930   90.0000   231     1
