@<TRIPOS>MOLECULE
SAZLUD
   105   114     1     0     0
SMALL
NO_CHARGES
****
Generated from the CSD

@<TRIPOS>ATOM
     1 Fe1     10.7946   4.0803  12.4089   Fe        1 RES1   0.0000
     2 S1      13.2710   5.5216  10.6662   S.o2      1 RES1   0.0000
     3 F1      13.3663   3.7188   8.7945   F         1 RES1   0.0000
     4 F2      13.4919   5.7393   8.1137   F         1 RES1   0.0000
     5 F3      11.6052   4.9306   8.7337   F         1 RES1   0.0000
     6 O1      10.8889   5.7622  13.8067   O.2       1 RES1   0.0000
     7 O2      12.6367   4.5234  11.5021   O.3       1 RES1   0.0000
     8 O3      12.6206   6.7953  10.7223   O.2       1 RES1   0.0000
     9 O4      14.6842   5.4978  10.7313   O.2       1 RES1   0.0000
    10 N1       9.6973   5.5663  11.3405   N.2       1 RES1   0.0000
    11 N2       8.4266   7.0581  10.2984   N.pl3     1 RES1   0.0000
    12 C1      10.1437   6.6713  13.4496   C.2       1 RES1   0.0000
    13 H1       9.9989   7.4057  14.0340   H         1 RES1   0.0000
    14 C2       9.4835   6.6542  12.1722   C.2       1 RES1   0.0000
    15 C3       8.7034   7.5722  11.5346   C.2       1 RES1   0.0000
    16 H2       8.4099   8.4062  11.8816   H         1 RES1   0.0000
    17 C4       9.0594   5.8397  10.2334   C.2       1 RES1   0.0000
    18 H3       9.0357   5.2669   9.4762   H         1 RES1   0.0000
    19 C5       7.7606   7.7811   9.1588   C.3       1 RES1   0.0000
    20 C6       6.6507   8.6796   9.7537   C.ar      1 RES1   0.0000
    21 C7       5.3205   8.3385   9.7232   C.ar      1 RES1   0.0000
    22 H4       5.0564   7.5298   9.2998   H         1 RES1   0.0000
    23 C8       4.3547   9.1488  10.2969   C.ar      1 RES1   0.0000
    24 H5       3.4395   8.8951  10.2605   H         1 RES1   0.0000
    25 C9       4.7179  10.3199  10.9199   C.ar      1 RES1   0.0000
    26 H6       4.0581  10.8707  11.3246   H         1 RES1   0.0000
    27 C10      6.0393  10.6879  10.9529   C.ar      1 RES1   0.0000
    28 H7       6.2904  11.4999  11.3773   H         1 RES1   0.0000
    29 C11      7.0117   9.8858  10.3719   C.ar      1 RES1   0.0000
    30 H8       7.9226  10.1534  10.3935   H         1 RES1   0.0000
    31 C12      8.8449   8.6372   8.4512   C.ar      1 RES1   0.0000
    32 C13      8.4463   9.7633   7.7298   C.ar      1 RES1   0.0000
    33 H9       7.5278  10.0033   7.6883   H         1 RES1   0.0000
    34 C14      9.3950  10.5313   7.0746   C.ar      1 RES1   0.0000
    35 H10      9.1235  11.3024   6.5916   H         1 RES1   0.0000
    36 C15     10.7208  10.1893   7.1153   C.ar      1 RES1   0.0000
    37 H11     11.3634  10.7214   6.6609   H         1 RES1   0.0000
    38 C16     11.1195   9.0770   7.8142   C.ar      1 RES1   0.0000
    39 H12     12.0390   8.8379   7.8444   H         1 RES1   0.0000
    40 C17     10.1783   8.3034   8.4756   C.ar      1 RES1   0.0000
    41 H13     10.4596   7.5314   8.9526   H         1 RES1   0.0000
    42 C18      7.2121   6.7015   8.2038   C.ar      1 RES1   0.0000
    43 C19      7.4232   6.7700   6.8321   C.ar      1 RES1   0.0000
    44 H14      7.9183   7.4947   6.4683   H         1 RES1   0.0000
    45 C20      6.9210   5.7932   5.9905   C.ar      1 RES1   0.0000
    46 H15      7.0625   5.8626   5.0537   H         1 RES1   0.0000
    47 C21      6.2208   4.7283   6.4929   C.ar      1 RES1   0.0000
    48 H16      5.8943   4.0501   5.9134   H         1 RES1   0.0000
    49 C22      5.9956   4.6540   7.8621   C.ar      1 RES1   0.0000
    50 H17      5.5038   3.9252   8.2217   H         1 RES1   0.0000
    51 C23      6.4827   5.6292   8.6977   C.ar      1 RES1   0.0000
    52 H18      6.3163   5.5688   9.6311   H         1 RES1   0.0000
    53 C24     12.9075   4.9478   8.9920   C.3       1 RES1   0.0000
    54 S1B      8.3183   2.6390  14.1517   S.o2      1 RES1   0.0000
    55 F1B      8.2229   4.4418  16.0234   F         1 RES1   0.0000
    56 F2B      8.0973   2.4213  16.7042   F         1 RES1   0.0000
    57 F3B      9.9840   3.2300  16.0842   F         1 RES1   0.0000
    58 O1B     10.7003   2.3984  11.0112   O.2       1 RES1   0.0000
    59 O2B      8.9525   3.6372  13.3158   O.3       1 RES1   0.0000
    60 O3B      8.9686   1.3653  14.0956   O.2       1 RES1   0.0000
    61 O4B      6.9051   2.6628  14.0866   O.2       1 RES1   0.0000
    62 N1B     11.8919   2.5943  13.4774   N.2       1 RES1   0.0000
    63 N2B     13.1626   1.1025  14.5195   N.pl3     1 RES1   0.0000
    64 C1B     11.4455   1.4893  11.3683   C.2       1 RES1   0.0000
    65 H1B     11.5903   0.7549  10.7839   H         1 RES1   0.0000
    66 C2B     12.1057   1.5064  12.6457   C.2       1 RES1   0.0000
    67 C3B     12.8858   0.5884  13.2833   C.2       1 RES1   0.0000
    68 H2B     13.1794  -0.2456  12.9363   H         1 RES1   0.0000
    69 C4B     12.5298   2.3209  14.5845   C.2       1 RES1   0.0000
    70 H3B     12.5535   2.8937  15.3417   H         1 RES1   0.0000
    71 C5B     13.8286   0.3795  15.6591   C.3       1 RES1   0.0000
    72 C6B     14.9386  -0.5190  15.0642   C.ar      1 RES1   0.0000
    73 C7B     16.2687  -0.1779  15.0947   C.ar      1 RES1   0.0000
    74 H4B     16.5328   0.6308  15.5181   H         1 RES1   0.0000
    75 C8B     17.2345  -0.9882  14.5209   C.ar      1 RES1   0.0000
    76 H5B     18.1497  -0.7345  14.5574   H         1 RES1   0.0000
    77 C9B     16.8713  -2.1593  13.8980   C.ar      1 RES1   0.0000
    78 H6B     17.5312  -2.7101  13.4932   H         1 RES1   0.0000
    79 C10B    15.5499  -2.5273  13.8650   C.ar      1 RES1   0.0000
    80 H7B     15.2988  -3.3393  13.4406   H         1 RES1   0.0000
    81 C11B    14.5776  -1.7252  14.4460   C.ar      1 RES1   0.0000
    82 H8B     13.6666  -1.9928  14.4244   H         1 RES1   0.0000
    83 C12B    12.7443  -0.4766  16.3667   C.ar      1 RES1   0.0000
    84 C13B    13.1429  -1.6027  17.0881   C.ar      1 RES1   0.0000
    85 H9B     14.0614  -1.8427  17.1296   H         1 RES1   0.0000
    86 C14B    12.1942  -2.3707  17.7433   C.ar      1 RES1   0.0000
    87 H10B    12.4657  -3.1418  18.2263   H         1 RES1   0.0000
    88 C15B    10.8684  -2.0287  17.7026   C.ar      1 RES1   0.0000
    89 H11B    10.2258  -2.5608  18.1570   H         1 RES1   0.0000
    90 C16B    10.4698  -0.9164  17.0037   C.ar      1 RES1   0.0000
    91 H12B     9.5502  -0.6773  16.9734   H         1 RES1   0.0000
    92 C17B    11.4109  -0.1428  16.3423   C.ar      1 RES1   0.0000
    93 H13B    11.1297   0.6292  15.8653   H         1 RES1   0.0000
    94 C18B    14.3771   1.4591  16.6141   C.ar      1 RES1   0.0000
    95 C19B    14.1660   1.3906  17.9858   C.ar      1 RES1   0.0000
    96 H14B    13.6710   0.6659  18.3496   H         1 RES1   0.0000
    97 C20B    14.6683   2.3674  18.8273   C.ar      1 RES1   0.0000
    98 H15B    14.5268   2.2980  19.7642   H         1 RES1   0.0000
    99 C21B    15.3685   3.4323  18.3250   C.ar      1 RES1   0.0000
   100 H16B    15.6949   4.1105  18.9045   H         1 RES1   0.0000
   101 C22B    15.5936   3.5066  16.9558   C.ar      1 RES1   0.0000
   102 H17B    16.0854   4.2354  16.5962   H         1 RES1   0.0000
   103 C23B    15.1065   2.5314  16.1202   C.ar      1 RES1   0.0000
   104 H18B    15.2729   2.5918  15.1868   H         1 RES1   0.0000
   105 C24B     8.6817   3.2128  15.8259   C.3       1 RES1   0.0000
@<TRIPOS>BOND
     1     1     6    1
     2     2     7    1
     3     3    53    1
     4     4    53    1
     5     5    53    1
     6     6    12    2
     7     7     1    1
     8     8     2    2
     9     9     2    2
    10    10     1    1
    11    11    15    1
    12    12    13    1
    13    14    10    1
    14    15    14    2
    15    16    15    1
    16    17    10    2
    17    18    17    1
    18    19    11    1
    19    20    19    1
    20    21    20   ar
    21    22    21    1
    22    23    21   ar
    23    24    23    1
    24    25    23   ar
    25    26    25    1
    26    27    25   ar
    27    28    27    1
    28    29    20   ar
    29    30    29    1
    30    31    19    1
    31    32    31   ar
    32    33    32    1
    33    34    32   ar
    34    35    34    1
    35    36    34   ar
    36    37    36    1
    37    38    36   ar
    38    39    38    1
    39    40    31   ar
    40    41    40    1
    41    42    19    1
    42    43    42   ar
    43    44    43    1
    44    45    43   ar
    45    46    45    1
    46    47    45   ar
    47    48    47    1
    48    49    47   ar
    49    50    49    1
    50    51    42   ar
    51    52    51    1
    52    53     2    1
    53    54    59    1
    54    55   105    1
    55    56   105    1
    56    57   105    1
    57    58     1    1
    58    59     1    1
    59    60    54    2
    60    61    54    2
    61    62     1    1
    62    63    67    1
    63    64    58    2
    64    65    64    1
    65    66    62    1
    66    67    66    2
    67    68    67    1
    68    69    62    2
    69    70    69    1
    70    71    63    1
    71    72    71    1
    72    73    72   ar
    73    74    73    1
    74    75    73   ar
    75    76    75    1
    76    77    75   ar
    77    78    77    1
    78    79    77   ar
    79    80    79    1
    80    81    72   ar
    81    82    81    1
    82    83    71    1
    83    84    83   ar
    84    85    84    1
    85    86    84   ar
    86    87    86    1
    87    88    86   ar
    88    89    88    1
    89    90    88   ar
    90    91    90    1
    91    92    83   ar
    92    93    92    1
    93    94    71    1
    94    95    94   ar
    95    96    95    1
    96    97    95   ar
    97    98    97    1
    98    99    97   ar
    99   100    99    1
   100   101    99   ar
   101   102   101    1
   102   103    94   ar
   103   104   103    1
   104   105    54    1
   105    11    17    1
   106    12    14    1
   107    27    29   ar
   108    38    40   ar
   109    49    51   ar
   110    63    69    1
   111    64    66    1
   112    79    81   ar
   113    90    92   ar
   114   101   103   ar
@<TRIPOS>SUBSTRUCTURE
     1 RES1        1 GROUP             0 ****  ****    0  
@<TRIPOS>CRYSIN
   10.8323    8.1606   24.8180   90.0000   90.1740   90.0000    14     1
