@<TRIPOS>MOLECULE
SEBWEC
   109   117     4     0     0
SMALL
NO_CHARGES
****
Generated from the CSD

@<TRIPOS>ATOM
     1 Fe1      0.7966   1.1917   3.5363   Fe        1 RES1   0.0000
     2 O1       2.4334   3.3419   4.5067   O.3       1 RES1   0.0000
     3 O2       3.4088   2.0292   2.6734   O.3       1 RES1   0.0000
     4 O3       1.6638   3.6636   2.2179   O.3       1 RES1   0.0000
     5 O4      -1.2240  -0.6136   2.5155   O.3       1 RES1   0.0000
     6 O5       0.1152  -1.4850   4.3631   O.3       1 RES1   0.0000
     7 O6      -1.5894   0.2100   4.8028   O.3       1 RES1   0.0000
     8 N1       1.3728   2.5232   4.7685   N.2       1 RES1   0.0000
     9 N2       2.6107   0.9692   3.0061   N.2       1 RES1   0.0000
    10 N3       0.7364   2.6103   2.2040   N.2       1 RES1   0.0000
    11 N4      -0.4360   0.4663   2.2615   N.2       1 RES1   0.0000
    12 N5       1.1337  -0.6232   4.0398   N.2       1 RES1   0.0000
    13 N6      -0.6453   1.2023   4.7813   N.2       1 RES1   0.0000
    14 Cl1     -1.8607   0.7220   0.0497   Cl        1 RES1   0.0000
    15 B1       2.8200   3.3385   3.0643   B         1 RES1   0.0000
    16 F1       3.7797   4.2806   2.9037   F         1 RES1   0.0000
    17 B2      -1.2118  -0.9577   3.9904   B         1 RES1   0.0000
    18 F2      -2.1235  -1.9338   4.1761   F         1 RES1   0.0000
    19 C1       0.5690   2.8794   5.7413   C.2       1 RES1   0.0000
    20 C2       0.7471   4.1023   6.5528   C.ar      1 RES1   0.0000
    21 C3      -0.3488   4.9363   6.7895   C.ar      1 RES1   0.0000
    22 H1      -1.1879   4.7055   6.4607   H         1 RES1   0.0000
    23 C4      -0.1883   6.1031   7.5131   C.ar      1 RES1   0.0000
    24 H2      -0.9191   6.6629   7.6486   H         1 RES1   0.0000
    25 C5       1.0285   6.4436   8.0331   C.ar      1 RES1   0.0000
    26 H3       1.1179   7.2227   8.5334   H         1 RES1   0.0000
    27 C6       2.1183   5.6364   7.8165   C.ar      1 RES1   0.0000
    28 H4       2.9459   5.8697   8.1698   H         1 RES1   0.0000
    29 C7       1.9829   4.4658   7.0683   C.ar      1 RES1   0.0000
    30 H5       2.7243   3.9263   6.9152   H         1 RES1   0.0000
    31 C8      -0.5701   1.9842   5.8383   C.2       1 RES1   0.0000
    32 C9      -1.4529   1.8860   7.0231   C.ar      1 RES1   0.0000
    33 C10     -0.8962   1.9409   8.2831   C.ar      1 RES1   0.0000
    34 H6       0.0208   2.0709   8.3728   H         1 RES1   0.0000
    35 C11     -1.6818   1.8057   9.4244   C.ar      1 RES1   0.0000
    36 H7      -1.2921   1.8108  10.2698   H         1 RES1   0.0000
    37 C12     -3.0523   1.6616   9.2856   C.ar      1 RES1   0.0000
    38 H8      -3.5867   1.5494  10.0395   H         1 RES1   0.0000
    39 C13     -3.6155   1.6871   8.0486   C.ar      1 RES1   0.0000
    40 H9      -4.5407   1.6514   7.9668   H         1 RES1   0.0000
    41 C14     -2.8245   1.7649   6.8934   C.ar      1 RES1   0.0000
    42 H10     -3.2171   1.7355   6.0516   H         1 RES1   0.0000
    43 C15      2.2809  -1.1732   3.7152   C.2       1 RES1   0.0000
    44 C16      2.5404  -2.6282   3.6876   C.ar      1 RES1   0.0000
    45 C17      2.0780  -3.4787   4.6892   C.ar      1 RES1   0.0000
    46 H11      1.6095  -3.1344   5.4152   H         1 RES1   0.0000
    47 C18      2.3216  -4.8419   4.5995   C.ar      1 RES1   0.0000
    48 H12      2.0142  -5.4094   5.2698   H         1 RES1   0.0000
    49 C19      3.0071  -5.3571   3.5367   C.ar      1 RES1   0.0000
    50 H13      3.1616  -6.2727   3.4849   H         1 RES1   0.0000
    51 C20      3.4665  -4.5295   2.5497   C.ar      1 RES1   0.0000
    52 H14      3.9297  -4.8891   1.8273   H         1 RES1   0.0000
    53 C21      3.2522  -3.1701   2.6100   C.ar      1 RES1   0.0000
    54 H15      3.5792  -2.6142   1.9394   H         1 RES1   0.0000
    55 C22      3.2250  -0.1671   3.2431   C.2       1 RES1   0.0000
    56 C23      4.6847  -0.3443   3.1300   C.ar      1 RES1   0.0000
    57 C24      5.3818  -0.9449   4.1507   C.ar      1 RES1   0.0000
    58 H16      4.9284  -1.3147   4.8728   H         1 RES1   0.0000
    59 C25      6.7882  -0.9959   4.0934   C.ar      1 RES1   0.0000
    60 H17      7.2746  -1.3594   4.7970   H         1 RES1   0.0000
    61 C26      7.4366  -0.4986   2.9819   C.ar      1 RES1   0.0000
    62 H18      8.3654  -0.5292   2.9425   H         1 RES1   0.0000
    63 C27      6.7484   0.0255   1.9588   C.ar      1 RES1   0.0000
    64 H19      7.2046   0.3188   1.2030   H         1 RES1   0.0000
    65 C28      5.3712   0.1390   2.0076   C.ar      1 RES1   0.0000
    66 H20      4.9070   0.5305   1.3030   H         1 RES1   0.0000
    67 C29     -0.6727   1.1643   1.2012   C.2       1 RES1   0.0000
    68 C30      0.1649   2.3425   1.0537   C.2       1 RES1   0.0000
    69 N7       0.2471   2.9636  -0.1391   N.pl3     1 RES1   0.0000
    70 H21     -0.3332   2.7162  -0.7243   H         1 RES1   0.0000
    71 N8       2.9499   5.3750  -2.3537   N.3       1 RES1   0.0000
    72 O7       3.7437   6.1605  -2.9825   O.3       1 RES1   0.0000
    73 C31      1.1820   3.9990  -0.5855   C.3       1 RES1   0.0000
    74 H22      1.2123   4.7195   0.0788   H         1 RES1   0.0000
    75 C32      2.5802   3.4673  -0.8194   C.3       1 RES1   0.0000
    76 H23      2.5450   2.7723  -1.4940   H         1 RES1   0.0000
    77 H24      2.9069   3.0656   0.0000   H         1 RES1   0.0000
    78 C33      3.5659   4.5525  -1.2706   C.3       1 RES1   0.0000
    79 C34      3.9877   5.4655  -0.1115   C.3       1 RES1   0.0000
    80 H25      3.2079   5.8685   0.2788   H         1 RES1   0.0000
    81 H26      4.5729   6.1516  -0.4424   H         1 RES1   0.0000
    82 H27      4.4456   4.9465   0.5546   H         1 RES1   0.0000
    83 C35      4.8122   3.9021  -1.8709   C.3       1 RES1   0.0000
    84 H28      4.5559   3.3385  -2.6031   H         1 RES1   0.0000
    85 H29      5.2535   3.3767  -1.2000   H         1 RES1   0.0000
    86 H30      5.4088   4.5856  -2.1849   H         1 RES1   0.0000
    87 C36      1.5155   5.7001  -2.4403   C.3       1 RES1   0.0000
    88 C37      1.1963   5.9259  -3.9131   C.3       1 RES1   0.0000
    89 H31      1.7229   6.6553  -4.2455   H         1 RES1   0.0000
    90 H32      0.2643   6.1337  -4.0091   H         1 RES1   0.0000
    91 H33      1.4006   5.1301  -4.4091   H         1 RES1   0.0000
    92 C38      1.2372   6.9983  -1.6658   C.3       1 RES1   0.0000
    93 H34      1.7833   7.7048  -2.0182   H         1 RES1   0.0000
    94 H35      1.4428   6.8670  -0.7364   H         1 RES1   0.0000
    95 H36      0.3107   7.2329  -1.7576   H         1 RES1   0.0000
    96 C39      0.6584   4.5423  -1.8970   C.3       1 RES1   0.0000
    97 H37     -0.2515   4.8547  -1.7697   H         1 RES1   0.0000
    98 H38      0.6391   3.8269  -2.5515   H         1 RES1   0.0000
    99 C40     -4.6572   3.5374   2.5182   C.3       2 RES2   0.0000
   100 H39     -5.4447   3.1128   2.8909   H         2 RES2   0.0000
   101 H40     -4.6757   4.4760   2.7637   H         2 RES2   0.0000
   102 Cl2     -3.2032   2.7806   3.1897   Cl        2 RES2   0.0000
   103 Cl3     -4.6832   3.3885   0.7906   Cl        2 RES2   0.0000
   104 C41      5.6890   3.9187   6.1092   C.3       3 RES3   0.0000
   105 H41      4.8851   4.3191   5.7425   H         3 RES3   0.0000
   106 H42      6.4317   4.4453   5.7728   H         3 RES3   0.0000
   107 Cl4      5.8150   2.5345   5.4431   Cl        3 RES3   0.0000
   108 Cl5      5.6366   4.1865   7.6856   Cl        3 RES3   0.0000
   109 O8       7.9677   4.8700   6.2577   O.3       4 RES4   0.0000
@<TRIPOS>BOND
     1     1     8    1
     2     2     8    1
     3     3     9    1
     4     4    10    1
     5     5    11    1
     6     6    12    1
     7     7    13    1
     8     8    19    2
     9     9     1    1
    10    10     1    1
    11    11     1    1
    12    12     1    1
    13    13     1    1
    14    14    67    1
    15    15     2    1
    16    16    15    1
    17    17     5    1
    18    18    17    1
    19    19    20    1
    20    20    21   ar
    21    21    22    1
    22    23    21   ar
    23    24    23    1
    24    25    23   ar
    25    26    25    1
    26    27    25   ar
    27    28    27    1
    28    29    20   ar
    29    30    29    1
    30    31    13    2
    31    32    31    1
    32    33    32   ar
    33    34    33    1
    34    35    33   ar
    35    36    35    1
    36    37    35   ar
    37    38    37    1
    38    39    37   ar
    39    40    39    1
    40    41    32   ar
    41    42    41    1
    42    43    12    2
    43    44    43    1
    44    45    44   ar
    45    46    45    1
    46    47    45   ar
    47    48    47    1
    48    49    47   ar
    49    50    49    1
    50    51    49   ar
    51    52    51    1
    52    53    44   ar
    53    54    53    1
    54    55     9    2
    55    56    55    1
    56    57    56   ar
    57    58    57    1
    58    59    57   ar
    59    60    59    1
    60    61    59   ar
    61    62    61    1
    62    63    61   ar
    63    64    63    1
    64    65    56   ar
    65    66    65    1
    66    67    11    2
    67    68    10    2
    68    69    68    1
    69    70    69    1
    70    71    72    1
    71    73    69    1
    72    74    73    1
    73    75    73    1
    74    76    75    1
    75    77    75    1
    76    78    71    1
    77    79    78    1
    78    80    79    1
    79    81    79    1
    80    82    79    1
    81    83    78    1
    82    84    83    1
    83    85    83    1
    84    86    83    1
    85    87    71    1
    86    88    87    1
    87    89    88    1
    88    90    88    1
    89    91    88    1
    90    92    87    1
    91    93    92    1
    92    94    92    1
    93    95    92    1
    94    96    73    1
    95    97    96    1
    96    98    96    1
    97     3    15    1
    98     4    15    1
    99     6    17    1
   100     7    17    1
   101    19    31    1
   102    27    29   ar
   103    39    41   ar
   104    43    55    1
   105    51    53   ar
   106    63    65   ar
   107    67    68    1
   108    75    78    1
   109    87    96    1
   110    99   100    1
   111   101    99    1
   112   102    99    1
   113   103    99    1
   114   104   105    1
   115   106   104    1
   116   107   104    1
   117   108   104    1
@<TRIPOS>SUBSTRUCTURE
     1 RES1        1 GROUP             0 ****  ****    0  
     2 RES2       99 GROUP             0 ****  ****    0  
     3 RES3      104 GROUP             0 ****  ****    0  
     4 RES4      109 GROUP             0 ****  ****    0  
@<TRIPOS>CRYSIN
   12.2550   12.7520   30.5220   90.0000   96.8610   90.0000   231     1
