@<TRIPOS>MOLECULE
SEDQOI
   139   137     4     0     0
SMALL
USER_CHARGES
****
Generated from the CSD

@<TRIPOS>ATOM
     1 Fe1      5.5202   7.8859  15.3368   Fe        1 RES1  -2.0000
     2 C1       3.8161   8.6319  15.7737   C.1       1 RES1   0.0000
     3 C2       5.9887   7.8859  17.2145   C.1       1 RES1   0.0000
     4 C3       4.8131   6.0905  15.5811   C.1       1 RES1   0.0000
     5 C4       5.0426   7.8085  13.4590   C.1       1 RES1   0.0000
     6 C5       6.1324   9.7206  15.1285   C.1       1 RES1   0.0000
     7 N1       7.3739   7.1544  14.8962   N.ar      1 RES1   0.0000
     8 N2       2.8144   9.1008  16.0681   N.1       1 RES1   0.0000
     9 N3       6.2886   7.8215  18.3280   N.1       1 RES1   0.0000
    10 N4       4.4308   5.0288  15.7627   N.1       1 RES1   0.0000
    11 N5       4.8060   7.7250  12.3361   N.1       1 RES1   0.0000
    12 N6       6.4615  10.8046  15.0142   N.1       1 RES1   0.0000
    13 C6       7.9080   6.1175  15.5435   C.ar      1 RES1   0.0000
    14 H1       7.3801   5.6709  16.1668   H         1 RES1   0.0000
    15 C7       9.1885   5.6693  15.3477   C.ar      1 RES1   0.0000
    16 H2       9.5224   4.9462  15.8285   H         1 RES1   0.0000
    17 C8       9.9665   6.3178  14.4190   C.ar      1 RES1   0.0000
    18 H3      10.8451   6.0524  14.2734   H         1 RES1   0.0000
    19 C9       9.4394   7.3461  13.7221   C.ar      1 RES1   0.0000
    20 H4       9.9397   7.7800  13.0691   H         1 RES1   0.0000
    21 C10      8.1650   7.7339  13.9931   C.ar      1 RES1   0.0000
    22 H5       7.8212   8.4539  13.5138   H         1 RES1   0.0000
    23 C11      4.4748  11.4499   9.4357   C.3       2 RES2   0.0000
    24 H6       3.8439  12.1778   9.3245   H         2 RES2   0.0000
    25 H7       5.2140  11.6120   8.8296   H         2 RES2   0.0000
    26 C12      3.7944  10.1673   9.0223   C.3       2 RES2   0.0000
    27 H8       4.3872   9.4171   9.1883   H         2 RES2   0.0000
    28 H9       2.9905  10.0401   9.5485   H         2 RES2   0.0000
    29 C13      3.4442  10.2181   7.5674   C.3       2 RES2   0.0000
    30 H10      2.9747  11.0478   7.3873   H         2 RES2   0.0000
    31 H11      4.2623  10.2245   7.0474   H         2 RES2   0.0000
    32 C14      2.6013   9.0881   7.1163   C.3       2 RES2   0.0000
    33 H12      3.0705   8.2632   7.2589   H         2 RES2   0.0000
    34 H13      2.4041   9.1882   6.1829   H         2 RES2   0.0000
    35 H14      1.7820   9.0801   7.6175   H         2 RES2   0.0000
    36 C15      3.9381  11.0748  11.8553   C.3       2 RES2   0.0000
    37 H15      3.7004  10.1514  11.6784   H         2 RES2   0.0000
    38 H16      4.3299  11.1066  12.7433   H         2 RES2   0.0000
    39 C16      2.6738  11.8933  11.8726   C.3       2 RES2   0.0000
    40 H17      2.3589  12.0348  10.9658   H         2 RES2   0.0000
    41 H18      2.8432  12.7580  12.2751   H         2 RES2   0.0000
    42 C17      1.6040  11.1320  12.6885   C.3       2 RES2   0.0000
    43 H19      1.4713  10.2531  12.3001   H         2 RES2   0.0000
    44 H20      1.9209  11.0128  13.5968   H         2 RES2   0.0000
    45 C18      0.3176  11.8568  12.7089   C.3       2 RES2   0.0000
    46 H21      0.4459  12.7246  13.1004   H         2 RES2   0.0000
    47 H22     -0.3196  11.3625  13.2304   H         2 RES2   0.0000
    48 H23     -0.0083  11.9553  11.8131   H         2 RES2   0.0000
    49 C19      6.1302  10.5106  11.0488   C.3       2 RES2   0.0000
    50 H24      6.4911  10.6425  11.9399   H         2 RES2   0.0000
    51 H25      5.7589   9.6142  11.0175   H         2 RES2   0.0000
    52 C20      7.2721  10.5773  10.0669   C.3       2 RES2   0.0000
    53 H26      7.6371  11.4753  10.0465   H         2 RES2   0.0000
    54 H27      6.9563  10.3564   9.1773   H         2 RES2   0.0000
    55 C21      8.3534   9.5887  10.4913   C.3       2 RES2   0.0000
    56 H28      8.7016   9.8557  11.3573   H         2 RES2   0.0000
    57 H29      7.9554   8.7098  10.5915   H         2 RES2   0.0000
    58 C22      9.4612   9.5013   9.5407   C.3       2 RES2   0.0000
    59 H30      9.1329   9.1962   8.6934   H         2 RES2   0.0000
    60 H31     10.1187   8.8846   9.8711   H         2 RES2   0.0000
    61 H32      9.8615  10.3675   9.4357   H         2 RES2   0.0000
    62 C23      5.4527  12.9137  11.0676   C.3       2 RES2   0.0000
    63 H33      6.1084  13.1251  10.3832   H         2 RES2   0.0000
    64 H34      4.6904  13.4938  10.9219   H         2 RES2   0.0000
    65 C24      6.0464  13.2618  12.3941   C.3       2 RES2   0.0000
    66 H35      5.7304  14.1439  12.6447   H         2 RES2   0.0000
    67 H36      5.7061  12.6356  13.0518   H         2 RES2   0.0000
    68 C25      7.5290  13.2618  12.4849   C.3       2 RES2   0.0000
    69 H37      7.8864  13.7640  11.7347   H         2 RES2   0.0000
    70 H38      7.8469  12.3495  12.4066   H         2 RES2   0.0000
    71 C26      8.0663  13.8578  13.7738   C.3       2 RES2   0.0000
    72 H39      7.8504  14.7924  13.8083   H         2 RES2   0.0000
    73 H40      9.0216  13.7481  13.8020   H         2 RES2   0.0000
    74 H41      7.6714  13.4096  14.5240   H         2 RES2   0.0000
    75 N7       5.0020  11.4925  10.8504   N.4       2 RES2   1.0000
    76 C27      5.5058   3.3886  11.3056   C.3       3 RES3   0.0000
    77 H42      6.0262   2.5700  11.2900   H         3 RES3   0.0000
    78 H43      5.3076   3.6254  10.3863   H         3 RES3   0.0000
    79 C28      6.3556   4.4805  11.9039   C.3       3 RES3   0.0000
    80 H44      6.5828   4.2548  12.8185   H         3 RES3   0.0000
    81 H45      5.8624   5.3149  11.9086   H         3 RES3   0.0000
    82 C29      7.6297   4.6410  11.0801   C.3       3 RES3   0.0000
    83 H46      7.3933   4.6855  10.1405   H         3 RES3   0.0000
    84 H47      8.0526   5.4802  11.3182   H         3 RES3   0.0000
    85 C30      8.5624   3.5841  11.2696   C.3       3 RES3   0.0000
    86 H48      8.8036   3.5316  12.1967   H         3 RES3   0.0000
    87 H49      9.3476   3.7525  10.7434   H         3 RES3   0.0000
    88 H50      8.1663   2.7544  10.9956   H         3 RES3   0.0000
    89 C31      4.4287   2.7067  13.4794   C.3       3 RES3   0.0000
    90 H51      4.8530   3.4474  13.9414   H         3 RES3   0.0000
    91 H52      3.5657   2.5573  13.8975   H         3 RES3   0.0000
    92 C32      5.2616   1.4908  13.6704   C.3       3 RES3   0.0000
    93 H53      6.1344   1.6069  13.2648   H         3 RES3   0.0000
    94 H54      4.8319   0.7168  13.2742   H         3 RES3   0.0000
    95 C33      5.3912   1.3208  15.2538   C.3       3 RES3   0.0000
    96 H55      4.8397   1.9947  15.6813   H         3 RES3   0.0000
    97 H56      5.0317   0.4530  15.4996   H         3 RES3   0.0000
    98 C34      6.3622   1.3955  15.6375   C.3       3 RES3   0.0000
    99 H57      6.4930   0.7263  16.3156   H         3 RES3   0.0000
   100 H58      6.4910   2.2665  16.0196   H         3 RES3   0.0000
   101 H59      6.9983   1.2604  14.9296   H         3 RES3   0.0000
   102 C35      3.5426   1.9883  11.2540   C.3       3 RES3   0.0000
   103 H60      3.4721   2.2506  10.3237   H         3 RES3   0.0000
   104 H61      4.1187   1.2095  11.2962   H         3 RES3   0.0000
   105 C36      2.1767   1.6021  11.7473   C.3       3 RES3   0.0000
   106 H62      1.5590   2.3284  11.5781   H         3 RES3   0.0000
   107 H63      2.2125   1.4559  12.7057   H         3 RES3   0.0000
   108 C37      1.6733   0.3560  11.0754   C.3       3 RES3   0.0000
   109 H64      1.6813   0.4927  10.1154   H         3 RES3   0.0000
   110 H65      2.2812  -0.3751  11.2743   H         3 RES3   0.0000
   111 C38      0.3029  -0.0334  11.4920   C.3       3 RES3   0.0000
   112 H66      0.2369   0.0095  12.4489   H         3 RES3   0.0000
   113 H67      0.1219  -0.9282  11.1991   H         3 RES3   0.0000
   114 H68     -0.3328   0.5690  11.1005   H         3 RES3   0.0000
   115 C39      3.3331   4.3549  12.0417   C.3       3 RES3   0.0000
   116 H69      2.5188   4.1483  12.5256   H         3 RES3   0.0000
   117 H70      3.8031   5.0399  12.5460   H         3 RES3   0.0000
   118 C40      2.9586   4.9255  10.7403   C.3       3 RES3   0.0000
   119 H71      2.5600   4.2421  10.1796   H         3 RES3   0.0000
   120 H72      3.7441   5.2736  10.2908   H         3 RES3   0.0000
   121 C41      1.9416   6.0651  10.9924   C.3       3 RES3   0.0000
   122 H73      1.1181   5.6773  11.3260   H         3 RES3   0.0000
   123 H74      2.2921   6.6468  11.6846   H         3 RES3   0.0000
   124 C42      1.6559   6.8105   9.9149   C.3       3 RES3   0.0000
   125 H75      2.4716   7.0791   9.4858   H         3 RES3   0.0000
   126 H76      1.1661   7.5909  10.1874   H         3 RES3   0.0000
   127 H77      1.1246   6.2971   9.3026   H         3 RES3   0.0000
   128 N8       4.1982   3.1120  12.0213   N.4       3 RES3   1.0000
   129 C43      1.0987   4.9589  15.1238   C.ar      4 RES4   0.0000
   130 H78      2.0030   5.1289  15.2585   H         4 RES4   0.0000
   131 C44      0.7386   3.8781  14.8356   C.ar      4 RES4   0.0000
   132 H79      1.3909   3.2344  14.6837   H         4 RES4   0.0000
   133 C45     -0.3872   3.5491  14.7229   C.ar      4 RES4   0.0000
   134 H80     -0.5376   2.6527  14.5255   H         4 RES4   0.0000
   135 C46      0.2209   5.9204  15.2538   C.ar      4 RES4   0.0000
   136 H81      0.4924   6.7978  15.3978   H         4 RES4   0.0000
   137 C47     -1.0711   5.6089  15.1770   C.ar      4 RES4   0.0000
   138 H82     -1.7177   6.2574  15.3415   H         4 RES4   0.0000
   139 N9      -1.4582   4.3088  14.8466   N.ar      4 RES4   0.0000
@<TRIPOS>BOND
     1     1     2    1
     2     2     8    3
     3     3     1    1
     4     4     1    1
     5     5     1    1
     6     6     1    1
     7     7     1    1
     8     9     3    3
     9    10     4    3
    10    11     5    3
    11    12     6    3
    12    13     7   ar
    13    14    13    1
    14    15    13   ar
    15    16    15    1
    16    17    15   ar
    17    18    17    1
    18    19    17   ar
    19    20    19    1
    20    21     7   ar
    21    22    21    1
    22    19    21   ar
    23    23    24    1
    24    25    23    1
    25    26    23    1
    26    27    26    1
    27    28    26    1
    28    29    26    1
    29    30    29    1
    30    31    29    1
    31    32    29    1
    32    33    32    1
    33    34    32    1
    34    35    32    1
    35    36    37    1
    36    38    36    1
    37    39    36    1
    38    40    39    1
    39    41    39    1
    40    42    39    1
    41    43    42    1
    42    44    42    1
    43    45    42    1
    44    46    45    1
    45    47    45    1
    46    48    45    1
    47    49    50    1
    48    51    49    1
    49    52    49    1
    50    53    52    1
    51    54    52    1
    52    55    52    1
    53    56    55    1
    54    57    55    1
    55    58    55    1
    56    59    58    1
    57    60    58    1
    58    61    58    1
    59    62    63    1
    60    64    62    1
    61    65    62    1
    62    66    65    1
    63    67    65    1
    64    68    65    1
    65    69    68    1
    66    70    68    1
    67    71    68    1
    68    72    71    1
    69    73    71    1
    70    74    71    1
    71    75    23    1
    72    36    75    1
    73    49    75    1
    74    62    75    1
    75    76    77    1
    76    78    76    1
    77    79    76    1
    78    80    79    1
    79    81    79    1
    80    82    79    1
    81    83    82    1
    82    84    82    1
    83    85    82    1
    84    86    85    1
    85    87    85    1
    86    88    85    1
    87    89    90    1
    88    91    89    1
    89    92    89    1
    90    93    92    1
    91    94    92    1
    92    95    92    1
    93    96    95    1
    94    97    95    1
    95    98    95    1
    96    99    98    1
    97   100    98    1
    98   101    98    1
    99   102   103    1
   100   104   102    1
   101   105   102    1
   102   106   105    1
   103   107   105    1
   104   108   105    1
   105   109   108    1
   106   110   108    1
   107   111   108    1
   108   112   111    1
   109   113   111    1
   110   114   111    1
   111   115   116    1
   112   117   115    1
   113   118   115    1
   114   119   118    1
   115   120   118    1
   116   121   118    1
   117   122   121    1
   118   123   121    1
   119   124   121    1
   120   125   124    1
   121   126   124    1
   122   127   124    1
   123   128    76    1
   124    89   128    1
   125   102   128    1
   126   115   128    1
   127   129   130    1
   128   131   129   ar
   129   132   131    1
   130   133   131   ar
   131   134   133    1
   132   135   129   ar
   133   136   135    1
   134   137   135   ar
   135   138   137    1
   136   139   133   ar
   137   137   139   ar
@<TRIPOS>SUBSTRUCTURE
     1 RES1        1 GROUP             0 ****  ****    0  
     2 RES2       23 GROUP             0 ****  ****    0  
     3 RES3       76 GROUP             0 ****  ****    0  
     4 RES4      129 GROUP             0 ****  ****    0  
@<TRIPOS>CRYSIN
   20.7980   15.8938   15.6801   90.0000   92.8320   90.0000    14     1
