@<TRIPOS>MOLECULE
SEDYOR
   113   119     5     0     0
SMALL
USER_CHARGES
****
Generated from the CSD

@<TRIPOS>ATOM
     1 Fe1     11.1573   9.4108   5.4999   Fe        1 RES1   2.0000
     2 N1      12.3120  10.3484   4.2211   N.ar      1 RES1   0.0000
     3 N2       9.4874  10.0382   4.6600   N.ar      1 RES1   0.0000
     4 N3       9.8819   8.6429   6.7860   N.ar      1 RES1   0.0000
     5 N4      12.7192   8.6123   6.3766   N.ar      1 RES1   0.0000
     6 N5      11.1765   7.6970   4.5382   N.ar      1 RES1   0.0000
     7 N6      11.3205  11.1079   6.4743   N.ar      1 RES1   0.0000
     8 C1      12.1261  12.0358   5.8675   C.ar      1 RES1   0.0000
     9 C2      12.6610  11.6171   4.5547   C.ar      1 RES1   0.0000
    10 C3       8.3520   9.6695   5.3008   C.ar      1 RES1   0.0000
    11 C4      13.4187  12.4295   3.7448   C.ar      1 RES1   0.0000
    12 H1      13.6445  13.2892   4.0140   H         1 RES1   0.0000
    13 C5      12.9312   7.2977   6.1013   C.ar      1 RES1   0.0000
    14 C6      12.7456   9.8907   3.0223   C.ar      1 RES1   0.0000
    15 H2      12.5359   9.0213   2.7673   H         1 RES1   0.0000
    16 C7       8.5787   8.8822   6.5145   C.ar      1 RES1   0.0000
    17 C8      10.7794  11.4404   7.6431   C.ar      1 RES1   0.0000
    18 H3      10.2043  10.8339   8.0516   H         1 RES1   0.0000
    19 C9       8.1205  11.1511   3.0317   C.ar      1 RES1   0.0000
    20 H4       8.0654  11.6616   2.2549   H         1 RES1   0.0000
    21 C10     10.1512   7.9390   7.8958   C.ar      1 RES1   0.0000
    22 H5      11.0403   7.7568   8.0988   H         1 RES1   0.0000
    23 C11      9.3563  10.7810   3.5418   C.ar      1 RES1   0.0000
    24 H6      10.1239  11.0565   3.0979   H         1 RES1   0.0000
    25 C12     12.4102  13.2558   6.4649   C.ar      1 RES1   0.0000
    26 H7      12.9648  13.8693   6.0375   H         1 RES1   0.0000
    27 C13     10.4298   7.3214   3.5063   C.ar      1 RES1   0.0000
    28 H8       9.8223   7.9334   3.1593   H         1 RES1   0.0000
    29 C14      7.8658   7.7206   8.4530   C.ar      1 RES1   0.0000
    30 H9       7.1942   7.4076   9.0150   H         1 RES1   0.0000
    31 C15     13.4943  10.6781   2.1605   C.ar      1 RES1   0.0000
    32 H10     13.7615  10.3442   1.3341   H         1 RES1   0.0000
    33 C16     13.8349  11.9454   2.5312   C.ar      1 RES1   0.0000
    34 H11     14.3465  12.4782   1.9645   H         1 RES1   0.0000
    35 C17     11.0278  12.6493   8.2830   C.ar      1 RES1   0.0000
    36 H12     10.6265  12.8371   9.1000   H         1 RES1   0.0000
    37 C18      7.0967  10.0201   4.8286   C.ar      1 RES1   0.0000
    38 H13      6.3337   9.7544   5.2890   H         1 RES1   0.0000
    39 C19     12.0526   6.7719   5.0317   C.ar      1 RES1   0.0000
    40 C20     11.8623  13.5521   7.7069   C.ar      1 RES1   0.0000
    41 H14     12.0621  14.3534   8.1342   H         1 RES1   0.0000
    42 C21      7.5465   8.4301   7.3267   C.ar      1 RES1   0.0000
    43 H15      6.6592   8.6053   7.1095   H         1 RES1   0.0000
    44 C22     13.5726   9.2105   7.2276   C.ar      1 RES1   0.0000
    45 H16     13.4572  10.1133   7.4164   H         1 RES1   0.0000
    46 C23     13.9020   6.5479   6.7364   C.ar      1 RES1   0.0000
    47 H17     13.9775   5.6353   6.5782   H         1 RES1   0.0000
    48 C24     11.3558   5.1512   3.4355   C.ar      1 RES1   0.0000
    49 H18     11.4157   4.3055   3.0530   H         1 RES1   0.0000
    50 C25      6.9873  10.7560   3.6811   C.ar      1 RES1   0.0000
    51 H19      6.1495  10.9855   3.3481   H         1 RES1   0.0000
    52 C26      9.1797   7.4744   8.7505   C.ar      1 RES1   0.0000
    53 H20      9.4110   7.0000   9.5155   H         1 RES1   0.0000
    54 C27     10.5046   6.0680   2.9231   C.ar      1 RES1   0.0000
    55 H21      9.9765   5.8593   2.1864   H         1 RES1   0.0000
    56 C28     12.1354   5.4712   4.5287   C.ar      1 RES1   0.0000
    57 H22     12.6981   4.8424   4.9160   H         1 RES1   0.0000
    58 C29     14.6231   8.5247   7.8391   C.ar      1 RES1   0.0000
    59 H23     15.2243   8.9684   8.3916   H         1 RES1   0.0000
    60 C30     14.7484   7.1822   7.6006   C.ar      1 RES1   0.0000
    61 H24     15.4152   6.6981   8.0327   H         1 RES1   0.0000
    62 O1       3.7204  13.3713   1.1603   O.3       2 RES2   0.0000
    63 H25      3.7211  12.5964   1.4261   H         2 RES2   0.0000
    64 O2       5.8938  13.2753   1.6696   O.2       2 RES2   0.0000
    65 O3       2.2665  14.8667  -0.8649   O.2       2 RES2   0.0000
    66 C31      5.0128  15.2965   0.7697   C.ar      2 RES2   0.0000
    67 O4       5.4343  20.2419   0.7381   O.3       2 RES2   0.0000
    68 H26      5.4951  21.0195   0.4864   H         2 RES2   0.0000
    69 O5       8.7500  16.9436   0.8578   O.3       2 RES2   0.0000
    70 H27      9.4907  17.2914   0.8028   H         2 RES2   0.0000
    71 O6       1.7043  15.7626   1.1017   O.3       2 RES2   0.0000
    72 H28      0.9736  15.4287   0.9350   H         2 RES2   0.0000
    73 C32      7.8453  17.7713   0.4061   C.2       2 RES2   0.0000
    74 C33      4.9234  13.8595   1.2467   C.2       2 RES2   0.0000
    75 O7       5.4804  19.7967  -1.4309   O.2       2 RES2   0.0000
    76 O8       8.0964  18.8550  -0.0614   O.2       2 RES2   0.0000
    77 C34      6.4512  17.2260   0.4652   C.ar      2 RES2   0.0000
    78 C35      6.2692  15.8850   0.8028   C.ar      2 RES2   0.0000
    79 H29      7.0048  15.3758   1.0578   H         2 RES2   0.0000
    80 C36      3.9180  16.0477   0.3613   C.ar      2 RES2   0.0000
    81 C37      5.4495  19.4420  -0.3022   C.2       2 RES2   0.0000
    82 C38      4.0945  17.3971   0.0543   C.ar      2 RES2   0.0000
    83 H30      3.3573  17.9076  -0.1936   H         2 RES2   0.0000
    84 C39      2.5543  15.4690   0.1322   C.2       2 RES2   0.0000
    85 C40      5.3433  17.9911   0.1086   C.ar      2 RES2   0.0000
    86 O9       2.7223  10.4249   0.1993   O.co2     3 RES3   0.0000
    87 O10      3.4029  11.1274   2.2039   O.co2     3 RES3  -1.0000
    88 C41      2.5624   8.9420   2.0542   C.ar      3 RES3   0.0000
    89 O11      4.0259   9.8601   5.0033   O.2       3 RES3   0.0000
    90 O12      1.8656  10.3762   4.8574   O.3       3 RES3   0.0000
    91 H31      2.0654  10.9313   5.4260   H         3 RES3   0.0000
    92 C42      1.8180   6.6425   1.6977   C.ar      3 RES3   0.0000
    93 C43      2.6296   8.7097   3.4261   C.ar      3 RES3   0.0000
    94 O13      2.3420   4.9690   4.9183   O.co2     3 RES3   0.0000
    95 C44      2.9422   9.7405   4.4721   C.2       3 RES3   0.0000
    96 O14      0.6223   4.6671   0.9421   O.3       3 RES3   0.0000
    97 H32      0.5354   4.6379   1.7567   H         3 RES3   0.0000
    98 C45      1.9884   6.3879   3.0695   C.ar      3 RES3   0.0000
    99 C46      2.1333   7.9056   1.2325   C.ar      3 RES3   0.0000
   100 H33      2.0534   8.0726   0.3211   H         3 RES3   0.0000
   101 C47      2.9026  10.2677   1.4356   C.2       3 RES3   0.0000
   102 C48      2.3824   7.4326   3.9007   C.ar      3 RES3   0.0000
   103 H34      2.4835   7.2671   4.8097   H         3 RES3   0.0000
   104 O15      1.5324   5.9650  -0.5572   O.2       3 RES3   0.0000
   105 O16      1.0604   4.1775   3.2844   O.co2     3 RES3  -1.0000
   106 C49      1.7792   5.0761   3.8039   C.2       3 RES3   0.0000
   107 C50      1.3110   5.7244   0.6163   C.2       3 RES3   0.0000
   108 O17     -0.9093  15.4551   0.8597   O.3       4 RES4   0.0000
   109 H35     -1.4183  16.0408   0.4297   H         4 RES4   0.0000
   110 H36     -1.2868  14.7484   0.7815   H         4 RES4   0.0000
   111 O18     -0.2121   1.7570   3.9408   O.3       5 RES5   0.0000
   112 H37      0.2884   2.4942   3.7968   H         5 RES5   0.0000
   113 H38      0.1013   2.1882   4.7507   H         5 RES5   0.0000
@<TRIPOS>BOND
     1     1     2    1
     2     2     9   ar
     3     3     1    1
     4     4     1    1
     5     5     1    1
     6     6     1    1
     7     7     1    1
     8     8     7   ar
     9     9     8    1
    10    10     3   ar
    11    11     9   ar
    12    12    11    1
    13    13     5   ar
    14    14     2   ar
    15    15    14    1
    16    16     4   ar
    17    17     7   ar
    18    18    17    1
    19    19    20    1
    20    21     4   ar
    21    22    21    1
    22    23     3   ar
    23    24    23    1
    24    25     8   ar
    25    26    25    1
    26    27     6   ar
    27    28    27    1
    28    29    30    1
    29    31    14   ar
    30    32    31    1
    31    33    11   ar
    32    34    33    1
    33    35    17   ar
    34    36    35    1
    35    37    10   ar
    36    38    37    1
    37    39     6   ar
    38    40    25   ar
    39    41    40    1
    40    42    16   ar
    41    43    42    1
    42    44     5   ar
    43    45    44    1
    44    46    13   ar
    45    47    46    1
    46    48    49    1
    47    50    19   ar
    48    51    50    1
    49    52    21   ar
    50    53    52    1
    51    54    27   ar
    52    55    54    1
    53    56    39   ar
    54    57    56    1
    55    58    44   ar
    56    59    58    1
    57    60    46   ar
    58    61    60    1
    59    10    16    1
    60    13    39    1
    61    19    23   ar
    62    29    42   ar
    63    29    52   ar
    64    31    33   ar
    65    35    40   ar
    66    37    50   ar
    67    48    54   ar
    68    48    56   ar
    69    58    60   ar
    70    62    63    1
    71    64    74    2
    72    65    84    2
    73    66    74    1
    74    67    68    1
    75    69    70    1
    76    71    72    1
    77    73    69    1
    78    74    62    1
    79    75    81    2
    80    76    73    2
    81    77    73    1
    82    78    66   ar
    83    79    78    1
    84    80    66   ar
    85    81    67    1
    86    82    80   ar
    87    83    82    1
    88    84    71    1
    89    85    77   ar
    90    77    78   ar
    91    80    84    1
    92    81    85    1
    93    82    85   ar
    94    86   101    2
    95    87   101    1
    96    88    93   ar
    97    89    95    2
    98    90    91    1
    99    92    98   ar
   100    93    95    1
   101    94   106    2
   102    95    90    1
   103    96    97    1
   104    98   102   ar
   105    99    88   ar
   106   100    99    1
   107   101    88    1
   108   102    93   ar
   109   103   102    1
   110   104   107    2
   111   105   106    1
   112   106    98    1
   113   107    92    1
   114    92    99   ar
   115    96   107    1
   116   108   109    1
   117   110   108    1
   118   111   112    1
   119   113   111    1
@<TRIPOS>SUBSTRUCTURE
     1 RES1        1 GROUP             0 ****  ****    0  
     2 RES2       62 GROUP             0 ****  ****    0  
     3 RES3       86 GROUP             0 ****  ****    0  
     4 RES4      108 GROUP             0 ****  ****    0  
     5 RES5      111 GROUP             0 ****  ****    0  
@<TRIPOS>CRYSIN
   13.7670   13.9110   24.2020   90.0000  102.6800   90.0000   231     1
