@<TRIPOS>MOLECULE
SEDZAD
   104   108     1     0     0
SMALL
NO_CHARGES
****
Generated from the CSD

@<TRIPOS>ATOM
     1 Fe1      2.8198   8.8408   3.4786   Fe        1 RES1   0.0000
     2 H1       3.1847  10.3351   3.6896   H         1 RES1   0.0000
     3 H2       1.8743   9.4603   2.3952   H         1 RES1   0.0000
     4 H3       1.7437   9.0832   4.4687   H         1 RES1   0.0000
     5 P1       2.0724   6.7568   3.1444   P.3       1 RES1   0.0000
     6 P2       3.9163   8.1773   5.3128   P.3       1 RES1   0.0000
     7 P3       4.6077   8.4454   2.1244   P.3       1 RES1   0.0000
     8 Si1      1.8222  10.7129   3.3101   Si        1 RES1   0.0000
     9 B1       4.8633   5.9517   3.6759   B         1 RES1   0.0000
    10 C1       2.2154  12.1865   2.2282   C.3       1 RES1   0.0000
    11 H4       1.4277  12.4497   1.7472   H         1 RES1   0.0000
    12 H5       2.9059  11.9508   1.6054   H         1 RES1   0.0000
    13 H6       2.5149  12.9154   2.7763   H         1 RES1   0.0000
    14 C2       0.2902  11.2788   4.2625   C.ar      1 RES1   0.0000
    15 C3      -0.5849  10.3690   4.8556   C.ar      1 RES1   0.0000
    16 H7      -0.3636   9.4662   4.8635   H         1 RES1   0.0000
    17 C4      -1.7777  10.7764   5.4330   C.ar      1 RES1   0.0000
    18 H8      -2.3530  10.1484   5.8058   H         1 RES1   0.0000
    19 C5      -2.1100  12.1172   5.4543   C.ar      1 RES1   0.0000
    20 H9      -2.9135  12.3924   5.8332   H         1 RES1   0.0000
    21 C6      -1.2495  13.0448   4.9140   C.ar      1 RES1   0.0000
    22 H10     -1.4598  13.9499   4.9520   H         1 RES1   0.0000
    23 C7      -0.0701  12.6351   4.3125   C.ar      1 RES1   0.0000
    24 H11      0.4933  13.2713   3.9350   H         1 RES1   0.0000
    25 C8       1.8177   6.2272   1.3642   C.3       1 RES1   0.0000
    26 H12      2.7219   6.1424   0.9956   H         1 RES1   0.0000
    27 C9       1.1201   7.2512   0.4641   C.3       1 RES1   0.0000
    28 H13      1.2464   7.0061  -0.4559   H         1 RES1   0.0000
    29 H14      1.4959   8.1217   0.6175   H         1 RES1   0.0000
    30 H15      0.1811   7.2676   0.6663   H         1 RES1   0.0000
    31 C10      1.1810   4.8496   1.1616   C.3       1 RES1   0.0000
    32 H16      0.2497   4.8904   1.3920   H         1 RES1   0.0000
    33 H17      1.6223   4.2081   1.7228   H         1 RES1   0.0000
    34 H18      1.2724   4.5870   0.2424   H         1 RES1   0.0000
    35 C11      0.4457   6.4120   4.0195   C.3       1 RES1   0.0000
    36 H19      0.5012   6.8930   4.8712   H         1 RES1   0.0000
    37 C12      0.1701   4.9482   4.3937   C.3       1 RES1   0.0000
    38 H20     -0.6544   4.8927   4.8803   H         1 RES1   0.0000
    39 H21      0.8876   4.6176   4.9398   H         1 RES1   0.0000
    40 H22      0.1066   4.4203   3.5951   H         1 RES1   0.0000
    41 C13     -0.7542   7.0190   3.2860   C.3       1 RES1   0.0000
    42 H23     -0.9677   6.4789   2.5217   H         1 RES1   0.0000
    43 H24     -0.5365   7.9095   2.9989   H         1 RES1   0.0000
    44 H25     -1.5089   7.0486   3.8771   H         1 RES1   0.0000
    45 C14      3.2626   5.4914   3.7117   C.3       1 RES1   0.0000
    46 H26      3.0349   5.2423   4.6211   H         1 RES1   0.0000
    47 H27      3.1584   4.7017   3.1590   H         1 RES1   0.0000
    48 C15      4.6573   9.5058   6.4341   C.3       1 RES1   0.0000
    49 H28      4.5748   9.1506   7.3441   H         1 RES1   0.0000
    50 C16      6.1278   9.8023   6.2532   C.3       1 RES1   0.0000
    51 H29      6.2686  10.2181   5.4002   H         1 RES1   0.0000
    52 H30      6.6266   8.9824   6.2952   H         1 RES1   0.0000
    53 H31      6.4232  10.3915   6.9507   H         1 RES1   0.0000
    54 C17      3.8611  10.8139   6.4392   C.3       1 RES1   0.0000
    55 H32      4.1116  11.3372   7.2038   H         1 RES1   0.0000
    56 H33      2.9217  10.6176   6.4796   H         1 RES1   0.0000
    57 H34      4.0510  11.3067   5.6380   H         1 RES1   0.0000
    58 C18      2.8624   7.2906   6.6019   C.3       1 RES1   0.0000
    59 H35      2.3279   6.6303   6.1137   H         1 RES1   0.0000
    60 C19      1.8684   8.2142   7.2982   C.3       1 RES1   0.0000
    61 H36      1.2360   7.6890   7.7923   H         1 RES1   0.0000
    62 H37      1.4055   8.7388   6.6412   H         1 RES1   0.0000
    63 H38      2.3396   8.7967   7.8991   H         1 RES1   0.0000
    64 C20      3.6650   6.5086   7.6463   C.3       1 RES1   0.0000
    65 H39      4.3111   7.0894   8.0546   H         1 RES1   0.0000
    66 H40      4.1170   5.7760   7.2206   H         1 RES1   0.0000
    67 H41      3.0691   6.1696   8.3183   H         1 RES1   0.0000
    68 C21      5.2318   6.9721   4.9460   C.3       1 RES1   0.0000
    69 H42      6.0477   7.4523   4.7370   H         1 RES1   0.0000
    70 H43      5.3987   6.4382   5.7387   H         1 RES1   0.0000
    71 C22      4.4399   8.6442   0.2688   C.3       1 RES1   0.0000
    72 H44      3.8878   7.8881  -0.0213   H         1 RES1   0.0000
    73 C23      3.7048   9.8950  -0.2311   C.3       1 RES1   0.0000
    74 H45      4.2492  10.6692  -0.0762   H         1 RES1   0.0000
    75 H46      2.8739   9.9884   0.2424   H         1 RES1   0.0000
    76 H47      3.5298   9.8095  -1.1709   H         1 RES1   0.0000
    77 C24      5.7615   8.4842  -0.4758   C.3       1 RES1   0.0000
    78 H48      5.5892   8.3813  -1.4148   H         1 RES1   0.0000
    79 H49      6.2212   7.7084  -0.1479   H         1 RES1   0.0000
    80 H50      6.3053   9.2619  -0.3339   H         1 RES1   0.0000
    81 C25      6.0665   9.5002   2.6495   C.3       1 RES1   0.0000
    82 H51      5.9784   9.5637   3.6240   H         1 RES1   0.0000
    83 C26      5.9694  10.9488   2.1703   C.3       1 RES1   0.0000
    84 H52      6.5965  11.4894   2.6559   H         1 RES1   0.0000
    85 H53      5.0791  11.2765   2.3220   H         1 RES1   0.0000
    86 H54      6.1716  10.9906   1.2319   H         1 RES1   0.0000
    87 C27      7.4857   8.9643   2.4353   C.3       1 RES1   0.0000
    88 H55      7.6793   8.9387   1.4957   H         1 RES1   0.0000
    89 H56      7.5516   8.0781   2.8007   H         1 RES1   0.0000
    90 H57      8.1151   9.5399   2.8754   H         1 RES1   0.0000
    91 C28      5.2137   6.7166   2.2558   C.3       1 RES1   0.0000
    92 H58      4.8332   6.2010   1.5277   H         1 RES1   0.0000
    93 H59      6.1767   6.7190   2.1375   H         1 RES1   0.0000
    94 C29      5.8127   4.6259   3.8338   C.ar      1 RES1   0.0000
    95 C30      7.1830   4.6592   3.5507   C.ar      1 RES1   0.0000
    96 H60      7.5552   5.4601   3.2612   H         1 RES1   0.0000
    97 C31      8.0141   3.5542   3.6815   C.ar      1 RES1   0.0000
    98 H61      8.9177   3.6270   3.4761   H         1 RES1   0.0000
    99 C32      7.5054   2.3528   4.1124   C.ar      1 RES1   0.0000
   100 H62      8.0566   1.6083   4.2003   H         1 RES1   0.0000
   101 C33      6.1678   2.2716   4.4112   C.ar      1 RES1   0.0000
   102 H63      5.8084   1.4642   4.7019   H         1 RES1   0.0000
   103 C34      5.3460   3.3842   4.2843   C.ar      1 RES1   0.0000
   104 H64      4.4465   3.3006   4.5083   H         1 RES1   0.0000
@<TRIPOS>BOND
     1     1     2    1
     2     2     8    1
     3     3     1    1
     4     4     1    1
     5     5     1    1
     6     6     1    1
     7     7     1    1
     8     8     3    1
     9     9    45    1
    10    10     8    1
    11    11    10    1
    12    12    10    1
    13    13    10    1
    14    14     8    1
    15    15    14   ar
    16    16    15    1
    17    17    15   ar
    18    18    17    1
    19    19    17   ar
    20    20    19    1
    21    21    19   ar
    22    22    21    1
    23    23    14   ar
    24    24    23    1
    25    25     5    1
    26    26    25    1
    27    27    25    1
    28    28    27    1
    29    29    27    1
    30    30    27    1
    31    31    25    1
    32    32    31    1
    33    33    31    1
    34    34    31    1
    35    35     5    1
    36    36    35    1
    37    37    35    1
    38    38    37    1
    39    39    37    1
    40    40    37    1
    41    41    35    1
    42    42    41    1
    43    43    41    1
    44    44    41    1
    45    45     5    1
    46    46    45    1
    47    47    45    1
    48    48     6    1
    49    49    48    1
    50    50    48    1
    51    51    50    1
    52    52    50    1
    53    53    50    1
    54    54    48    1
    55    55    54    1
    56    56    54    1
    57    57    54    1
    58    58     6    1
    59    59    58    1
    60    60    58    1
    61    61    60    1
    62    62    60    1
    63    63    60    1
    64    64    58    1
    65    65    64    1
    66    66    64    1
    67    67    64    1
    68    68     6    1
    69    69    68    1
    70    70    68    1
    71    71     7    1
    72    72    71    1
    73    73    71    1
    74    74    73    1
    75    75    73    1
    76    76    73    1
    77    77    71    1
    78    78    77    1
    79    79    77    1
    80    80    77    1
    81    81     7    1
    82    82    81    1
    83    83    81    1
    84    84    83    1
    85    85    83    1
    86    86    83    1
    87    87    81    1
    88    88    87    1
    89    89    87    1
    90    90    87    1
    91    91     7    1
    92    92    91    1
    93    93    91    1
    94    94     9    1
    95    95    94   ar
    96    96    95    1
    97    97    95   ar
    98    98    97    1
    99    99    97   ar
   100   100    99    1
   101   101    99   ar
   102   102   101    1
   103   103    94   ar
   104   104   103    1
   105     9    68    1
   106     9    91    1
   107    21    23   ar
   108   101   103   ar
@<TRIPOS>SUBSTRUCTURE
     1 RES1        1 GROUP             0 ****  ****    0  
@<TRIPOS>CRYSIN
   11.3852   12.0036   16.1029   95.1720  107.3520   95.8050     2     1
