@<TRIPOS>MOLECULE
SEKJUQ
   200   214     2     0     0
SMALL
NO_CHARGES
****
Generated from the CSD

@<TRIPOS>ATOM
     1 Fe1      0.1729   4.4793  12.0842   Fe        1 RES1   0.0000
     2 N1       1.8552   4.8441  10.7428   N.2       1 RES1   0.0000
     3 N2       3.5352   4.4562   9.3480   N.pl3     1 RES1   0.0000
     4 C1       2.4934   3.9317  10.0369   C.2       1 RES1   0.0000
     5 H1       2.2506   3.0139  10.0142   H         1 RES1   0.0000
     6 C2       2.5304   6.0175  10.5072   C.2       1 RES1   0.0000
     7 H2       2.3098   6.8595  10.8867   H         1 RES1   0.0000
     8 C3       3.5575   5.7965   9.6542   C.2       1 RES1   0.0000
     9 H3       4.1747   6.4418   9.3302   H         1 RES1   0.0000
    10 C4       4.5642   3.6616   8.5935   C.3       1 RES1   0.0000
    11 C5       3.8397   2.4422   7.9965   C.ar      1 RES1   0.0000
    12 C6       4.3302   1.1472   8.1288   C.ar      1 RES1   0.0000
    13 H4       5.1321   0.9924   8.6148   H         1 RES1   0.0000
    14 C7       3.6555   0.0810   7.5543   C.ar      1 RES1   0.0000
    15 H5       4.0043  -0.7981   7.6457   H         1 RES1   0.0000
    16 C8       2.4894   0.2769   6.8547   C.ar      1 RES1   0.0000
    17 H6       2.0369  -0.4603   6.4626   H         1 RES1   0.0000
    18 C9       1.9845   1.5465   6.7264   C.ar      1 RES1   0.0000
    19 H7       1.1756   1.6894   6.2500   H         1 RES1   0.0000
    20 C10      2.6501   2.6172   7.2894   C.ar      1 RES1   0.0000
    21 H8       2.2906   3.4914   7.1937   H         1 RES1   0.0000
    22 C11      5.1738   4.5732   7.5024   C.ar      1 RES1   0.0000
    23 C12      4.8481   4.4701   6.1545   C.ar      1 RES1   0.0000
    24 H9       4.2233   3.8119   5.8729   H         1 RES1   0.0000
    25 C13      5.4239   5.3163   5.2140   C.ar      1 RES1   0.0000
    26 H10      5.1886   5.2311   4.2971   H         1 RES1   0.0000
    27 C14      6.3340   6.2783   5.5984   C.ar      1 RES1   0.0000
    28 H11      6.7202   6.8604   4.9533   H         1 RES1   0.0000
    29 C15      6.6782   6.3865   6.9304   C.ar      1 RES1   0.0000
    30 H12      7.3059   7.0440   7.2046   H         1 RES1   0.0000
    31 C16      6.1136   5.5413   7.8672   C.ar      1 RES1   0.0000
    32 H13      6.3694   5.6197   8.7792   H         1 RES1   0.0000
    33 C17      5.6778   3.2241   9.5657   C.ar      1 RES1   0.0000
    34 C18      6.8969   2.7823   9.0455   C.ar      1 RES1   0.0000
    35 H14      7.0332   2.7931   8.1049   H         1 RES1   0.0000
    36 C19      7.9041   2.3329   9.8680   C.ar      1 RES1   0.0000
    37 H15      8.7221   2.0269   9.4934   H         1 RES1   0.0000
    38 C20      7.7257   2.3272  11.2395   C.ar      1 RES1   0.0000
    39 H16      8.4212   2.0252  11.8123   H         1 RES1   0.0000
    40 C21      6.5342   2.7632  11.7664   C.ar      1 RES1   0.0000
    41 H17      6.4096   2.7582  12.7090   H         1 RES1   0.0000
    42 C22      5.5061   3.2114  10.9402   C.ar      1 RES1   0.0000
    43 H18      4.6866   3.5084  11.3193   H         1 RES1   0.0000
    44 N3      -1.2436   5.5031  10.7801   N.2       1 RES1   0.0000
    45 N4      -2.1141   7.2400   9.7190   N.pl3     1 RES1   0.0000
    46 C23     -1.0531   6.7493  10.3898   C.2       1 RES1   0.0000
    47 H19     -0.2594   7.2429  10.5616   H         1 RES1   0.0000
    48 C24     -2.5036   5.1730  10.3379   C.2       1 RES1   0.0000
    49 H20     -2.9251   4.3326  10.4710   H         1 RES1   0.0000
    50 C25     -3.0515   6.2225   9.6853   C.2       1 RES1   0.0000
    51 H21     -3.9115   6.2552   9.2819   H         1 RES1   0.0000
    52 C26     -2.2932   8.6249   9.1655   C.3       1 RES1   0.0000
    53 C27     -2.9339   8.4568   7.7720   C.ar      1 RES1   0.0000
    54 C28     -2.4481   7.4669   6.9175   C.ar      1 RES1   0.0000
    55 H22     -1.7726   6.8740   7.2264   H         1 RES1   0.0000
    56 C29     -2.9284   7.3328   5.6343   C.ar      1 RES1   0.0000
    57 H23     -2.5749   6.6586   5.0657   H         1 RES1   0.0000
    58 C30     -3.9210   8.1710   5.1683   C.ar      1 RES1   0.0000
    59 H24     -4.2407   8.0892   4.2778   H         1 RES1   0.0000
    60 C31     -4.4418   9.1288   6.0124   C.ar      1 RES1   0.0000
    61 H25     -5.1396   9.6965   5.7062   H         1 RES1   0.0000
    62 C32     -3.9569   9.2724   7.3078   C.ar      1 RES1   0.0000
    63 H26     -4.3288   9.9340   7.8789   H         1 RES1   0.0000
    64 C33     -3.1684   9.4587  10.1215   C.ar      1 RES1   0.0000
    65 C34     -3.8628   8.9111  11.1853   C.ar      1 RES1   0.0000
    66 H27     -3.8155   7.9765  11.3471   H         1 RES1   0.0000
    67 C35     -4.6278   9.7199  12.0190   C.ar      1 RES1   0.0000
    68 H28     -5.1092   9.3336  12.7428   H         1 RES1   0.0000
    69 C36     -4.6929  11.0725  11.8027   C.ar      1 RES1   0.0000
    70 H29     -5.2193  11.6207  12.3730   H         1 RES1   0.0000
    71 C37     -3.9954  11.6368  10.7550   C.ar      1 RES1   0.0000
    72 H30     -4.0365  12.5743  10.6039   H         1 RES1   0.0000
    73 C38     -3.2380  10.8333   9.9266   C.ar      1 RES1   0.0000
    74 H31     -2.7547  11.2278   9.2094   H         1 RES1   0.0000
    75 C39     -0.8893   9.2746   9.0861   C.ar      1 RES1   0.0000
    76 C40     -0.3134   9.7695  10.2519   C.ar      1 RES1   0.0000
    77 H32     -0.8057   9.7414  11.0643   H         1 RES1   0.0000
    78 C41      0.9667  10.3024  10.2474   C.ar      1 RES1   0.0000
    79 H33      1.3521  10.6199  11.0559   H         1 RES1   0.0000
    80 C42      1.6751  10.3712   9.0740   C.ar      1 RES1   0.0000
    81 H34      2.5536  10.7347   9.0692   H         1 RES1   0.0000
    82 C43      1.1152   9.9135   7.9055   C.ar      1 RES1   0.0000
    83 H35      1.6020   9.9722   7.0922   H         1 RES1   0.0000
    84 C44     -0.1581   9.3673   7.9112   C.ar      1 RES1   0.0000
    85 H36     -0.5349   9.0524   7.0983   H         1 RES1   0.0000
    86 S1      -0.7396   1.9391  10.0316   S.o2      1 RES1   0.0000
    87 F1      -0.2178  -0.4550  10.9440   F         1 RES1   0.0000
    88 F2      -0.1380  -0.2859   8.8032   F         1 RES1   0.0000
    89 F3       1.4566   0.5180  10.0032   F         1 RES1   0.0000
    90 O1      -0.2021   2.4902  11.2633   O.3       1 RES1   0.0000
    91 O2      -0.3253   2.6318   8.8527   O.2       1 RES1   0.0000
    92 O3      -2.1179   1.5731  10.1150   O.2       1 RES1   0.0000
    93 C45      0.1375   0.3458   9.9405   C.3       1 RES1   0.0000
    94 N1A     -1.5095   4.1145  13.4257   N.2       1 RES1   0.0000
    95 N2A     -3.1895   4.5024  14.8205   N.pl3     1 RES1   0.0000
    96 C1A     -2.1476   5.0269  14.1315   C.2       1 RES1   0.0000
    97 H1A     -1.9049   5.9447  14.1542   H         1 RES1   0.0000
    98 C2A     -2.1846   2.9411  13.6612   C.2       1 RES1   0.0000
    99 H2A     -1.9640   2.0991  13.2818   H         1 RES1   0.0000
   100 C3A     -3.2118   3.1621  14.5142   C.2       1 RES1   0.0000
   101 H3A     -3.8289   2.5168  14.8382   H         1 RES1   0.0000
   102 C4A     -4.2184   5.2970  15.5750   C.3       1 RES1   0.0000
   103 C5A     -3.4940   6.5164  16.1719   C.ar      1 RES1   0.0000
   104 C6A     -3.9844   7.8114  16.0396   C.ar      1 RES1   0.0000
   105 H4A     -4.7864   7.9662  15.5536   H         1 RES1   0.0000
   106 C7A     -3.3098   8.8776  16.6141   C.ar      1 RES1   0.0000
   107 H5A     -3.6586   9.7567  16.5228   H         1 RES1   0.0000
   108 C8A     -2.1436   8.6817  17.3138   C.ar      1 RES1   0.0000
   109 H6A     -1.6912   9.4189  17.7058   H         1 RES1   0.0000
   110 C9A     -1.6387   7.4121  17.4420   C.ar      1 RES1   0.0000
   111 H7A     -0.8298   7.2692  17.9185   H         1 RES1   0.0000
   112 C10A    -2.3043   6.3415  16.8790   C.ar      1 RES1   0.0000
   113 H8A     -1.9448   5.4672  16.9747   H         1 RES1   0.0000
   114 C11A    -4.8281   4.3854  16.6661   C.ar      1 RES1   0.0000
   115 C12A    -4.5024   4.4885  18.0139   C.ar      1 RES1   0.0000
   116 H9A     -3.8775   5.1467  18.2955   H         1 RES1   0.0000
   117 C13A    -5.0781   3.6423  18.9545   C.ar      1 RES1   0.0000
   118 H10A    -4.8428   3.7275  19.8713   H         1 RES1   0.0000
   119 C14A    -5.9882   2.6803  18.5701   C.ar      1 RES1   0.0000
   120 H11A    -6.3744   2.0982  19.2151   H         1 RES1   0.0000
   121 C15A    -6.3324   2.5721  17.2380   C.ar      1 RES1   0.0000
   122 H12A    -6.9602   1.9146  16.9638   H         1 RES1   0.0000
   123 C16A    -5.7678   3.4174  16.3013   C.ar      1 RES1   0.0000
   124 H13A    -6.0236   3.3389  15.3893   H         1 RES1   0.0000
   125 C17A    -5.3321   5.7345  14.6027   C.ar      1 RES1   0.0000
   126 C18A    -6.5511   6.1763  15.1229   C.ar      1 RES1   0.0000
   127 H14A    -6.6875   6.1655  16.0636   H         1 RES1   0.0000
   128 C19A    -7.5583   6.6257  14.3005   C.ar      1 RES1   0.0000
   129 H15A    -8.3764   6.9317  14.6751   H         1 RES1   0.0000
   130 C20A    -7.3800   6.6314  12.9289   C.ar      1 RES1   0.0000
   131 H16A    -8.0755   6.9334  12.3561   H         1 RES1   0.0000
   132 C21A    -6.1885   6.1954  12.4020   C.ar      1 RES1   0.0000
   133 H17A    -6.0639   6.2004  11.4595   H         1 RES1   0.0000
   134 C22A    -5.1604   5.7472  13.2282   C.ar      1 RES1   0.0000
   135 H18A    -4.3408   5.4502  12.8492   H         1 RES1   0.0000
   136 N3A      1.5894   3.4555  13.3883   N.2       1 RES1   0.0000
   137 N4A      2.4598   1.7187  14.4495   N.pl3     1 RES1   0.0000
   138 C23A     1.3988   2.2093  13.7787   C.2       1 RES1   0.0000
   139 H19A     0.6051   1.7157  13.6068   H         1 RES1   0.0000
   140 C24A     2.8494   3.7856  13.8305   C.2       1 RES1   0.0000
   141 H20A     3.2709   4.6260  13.6975   H         1 RES1   0.0000
   142 C25A     3.3973   2.7361  14.4832   C.2       1 RES1   0.0000
   143 H21A     4.2573   2.7034  14.8866   H         1 RES1   0.0000
   144 C26A     2.6390   0.3337  15.0029   C.3       1 RES1   0.0000
   145 C27A     3.2796   0.5018  16.3965   C.ar      1 RES1   0.0000
   146 C28A     2.7938   1.4917  17.2509   C.ar      1 RES1   0.0000
   147 H22A     2.1183   2.0846  16.9421   H         1 RES1   0.0000
   148 C29A     3.2741   1.6258  18.5342   C.ar      1 RES1   0.0000
   149 H23A     2.9206   2.3000  19.1027   H         1 RES1   0.0000
   150 C30A     4.2667   0.7876  19.0001   C.ar      1 RES1   0.0000
   151 H24A     4.5864   0.8694  19.8906   H         1 RES1   0.0000
   152 C31A     4.7876  -0.1702  18.1561   C.ar      1 RES1   0.0000
   153 H25A     5.4853  -0.7379  18.4623   H         1 RES1   0.0000
   154 C32A     4.3027  -0.3138  16.8606   C.ar      1 RES1   0.0000
   155 H26A     4.6746  -0.9754  16.2895   H         1 RES1   0.0000
   156 C33A     3.5142  -0.5001  14.0469   C.ar      1 RES1   0.0000
   157 C34A     4.2086   0.0475  12.9832   C.ar      1 RES1   0.0000
   158 H27A     4.1613   0.9821  12.8214   H         1 RES1   0.0000
   159 C35A     4.9736  -0.7613  12.1495   C.ar      1 RES1   0.0000
   160 H28A     5.4550  -0.3750  11.4256   H         1 RES1   0.0000
   161 C36A     5.0387  -2.1139  12.3658   C.ar      1 RES1   0.0000
   162 H29A     5.5650  -2.6621  11.7954   H         1 RES1   0.0000
   163 C37A     4.3412  -2.6782  13.4135   C.ar      1 RES1   0.0000
   164 H30A     4.3823  -3.6157  13.5645   H         1 RES1   0.0000
   165 C38A     3.5837  -1.8747  14.2419   C.ar      1 RES1   0.0000
   166 H31A     3.1004  -2.2692  14.9591   H         1 RES1   0.0000
   167 C39A     1.2350  -0.3160  15.0823   C.ar      1 RES1   0.0000
   168 C40A     0.6591  -0.8109  13.9166   C.ar      1 RES1   0.0000
   169 H32A     1.1514  -0.7828  13.1041   H         1 RES1   0.0000
   170 C41A    -0.6210  -1.3438  13.9210   C.ar      1 RES1   0.0000
   171 H33A    -1.0063  -1.6613  13.1126   H         1 RES1   0.0000
   172 C42A    -1.3293  -1.4126  15.0944   C.ar      1 RES1   0.0000
   173 H34A    -2.2078  -1.7761  15.0992   H         1 RES1   0.0000
   174 C43A    -0.7695  -0.9549  16.2629   C.ar      1 RES1   0.0000
   175 H35A    -1.2562  -1.0136  17.0762   H         1 RES1   0.0000
   176 C44A     0.5039  -0.4087  16.2573   C.ar      1 RES1   0.0000
   177 H36A     0.8807  -0.0938  17.0702   H         1 RES1   0.0000
   178 S1A      1.0854   7.0195  14.1368   S.o2      1 RES1   0.0000
   179 F1A      0.5636   9.4136  13.2245   F         1 RES1   0.0000
   180 F2A      0.4837   9.2445  15.3652   F         1 RES1   0.0000
   181 F3A     -1.1108   8.4406  14.1652   F         1 RES1   0.0000
   182 O1A      0.5478   6.4684  12.9051   O.3       1 RES1   0.0000
   183 O2A      0.6710   6.3268  15.3158   O.2       1 RES1   0.0000
   184 O3A      2.4637   7.3855  14.0535   O.2       1 RES1   0.0000
   185 C45A     0.2083   8.6128  14.2280   C.3       1 RES1   0.0000
   186 O4       6.5079  11.1461   7.8788   O.3       2 RES2   0.0000
   187 C46      5.6512   9.2953   9.1055   C.3       2 RES2   0.0000
   188 H37      5.1482   9.0048   8.3164   H         2 RES2   0.0000
   189 H38      5.1481   9.0733   9.9151   H         2 RES2   0.0000
   190 H39      6.5189   8.8397   9.1248   H         2 RES2   0.0000
   191 C47      5.8629  10.7505   9.0426   C.3       2 RES2   0.0000
   192 H40      4.9872  11.2068   9.0982   H         2 RES2   0.0000
   193 H41      6.4026  11.0317   9.8233   H         2 RES2   0.0000
   194 C48      6.8144  12.4979   7.8028   C.3       2 RES2   0.0000
   195 H42      7.3930  12.7387   8.5689   H         2 RES2   0.0000
   196 H43      5.9786  13.0218   7.8789   H         2 RES2   0.0000
   197 C49      7.4854  12.8650   6.5786   C.3       2 RES2   0.0000
   198 H44      6.9412  12.5893   5.8113   H         2 RES2   0.0000
   199 H45      8.3583  12.4194   6.5376   H         2 RES2   0.0000
   200 H46      7.6142  13.8367   6.5545   H         2 RES2   0.0000
@<TRIPOS>BOND
     1     1     2    1
     2     2     4    2
     3     3     4    1
     4     4     5    1
     5     6     2    1
     6     7     6    1
     7     8     3    1
     8     9     8    1
     9    10     3    1
    10    11    10    1
    11    12    11   ar
    12    13    12    1
    13    14    12   ar
    14    15    14    1
    15    16    14   ar
    16    17    16    1
    17    18    16   ar
    18    19    18    1
    19    20    11   ar
    20    21    20    1
    21    22    10    1
    22    23    22   ar
    23    24    23    1
    24    25    23   ar
    25    26    25    1
    26    27    25   ar
    27    28    27    1
    28    29    27   ar
    29    30    29    1
    30    31    22   ar
    31    32    31    1
    32    33    10    1
    33    34    33   ar
    34    35    34    1
    35    36    34   ar
    36    37    36    1
    37    38    36   ar
    38    39    38    1
    39    40    38   ar
    40    41    40    1
    41    42    33   ar
    42    43    42    1
    43    44     1    1
    44    45    46    1
    45    46    44    2
    46    47    46    1
    47    48    44    1
    48    49    48    1
    49    50    45    1
    50    51    50    1
    51    52    45    1
    52    53    52    1
    53    54    53   ar
    54    55    54    1
    55    56    54   ar
    56    57    56    1
    57    58    56   ar
    58    59    58    1
    59    60    58   ar
    60    61    60    1
    61    62    53   ar
    62    63    62    1
    63    64    52    1
    64    65    64   ar
    65    66    65    1
    66    67    65   ar
    67    68    67    1
    68    69    67   ar
    69    70    69    1
    70    71    69   ar
    71    72    71    1
    72    73    64   ar
    73    74    73    1
    74    75    52    1
    75    76    75   ar
    76    77    76    1
    77    78    76   ar
    78    79    78    1
    79    80    78   ar
    80    81    80    1
    81    82    80   ar
    82    83    82    1
    83    84    75   ar
    84    85    84    1
    85    86    90    1
    86    87    93    1
    87    88    93    1
    88    89    93    1
    89    90     1    1
    90    91    86    2
    91    92    86    2
    92    93    86    1
    93    94     1    1
    94    95    96    1
    95    96    94    2
    96    97    96    1
    97    98    94    1
    98    99    98    1
    99   100    95    1
   100   101   100    1
   101   102    95    1
   102   103   102    1
   103   104   103   ar
   104   105   104    1
   105   106   104   ar
   106   107   106    1
   107   108   106   ar
   108   109   108    1
   109   110   108   ar
   110   111   110    1
   111   112   103   ar
   112   113   112    1
   113   114   102    1
   114   115   114   ar
   115   116   115    1
   116   117   115   ar
   117   118   117    1
   118   119   117   ar
   119   120   119    1
   120   121   119   ar
   121   122   121    1
   122   123   114   ar
   123   124   123    1
   124   125   102    1
   125   126   125   ar
   126   127   126    1
   127   128   126   ar
   128   129   128    1
   129   130   128   ar
   130   131   130    1
   131   132   130   ar
   132   133   132    1
   133   134   125   ar
   134   135   134    1
   135   136     1    1
   136   137   138    1
   137   138   136    2
   138   139   138    1
   139   140   136    1
   140   141   140    1
   141   142   137    1
   142   143   142    1
   143   144   137    1
   144   145   144    1
   145   146   145   ar
   146   147   146    1
   147   148   146   ar
   148   149   148    1
   149   150   148   ar
   150   151   150    1
   151   152   150   ar
   152   153   152    1
   153   154   145   ar
   154   155   154    1
   155   156   144    1
   156   157   156   ar
   157   158   157    1
   158   159   157   ar
   159   160   159    1
   160   161   159   ar
   161   162   161    1
   162   163   161   ar
   163   164   163    1
   164   165   156   ar
   165   166   165    1
   166   167   144    1
   167   168   167   ar
   168   169   168    1
   169   170   168   ar
   170   171   170    1
   171   172   170   ar
   172   173   172    1
   173   174   172   ar
   174   175   174    1
   175   176   167   ar
   176   177   176    1
   177   178   182    1
   178   179   185    1
   179   180   185    1
   180   181   185    1
   181   182     1    1
   182   183   178    2
   183   184   178    2
   184   185   178    1
   185     6     8    2
   186    18    20   ar
   187    29    31   ar
   188    40    42   ar
   189    48    50    2
   190    60    62   ar
   191    71    73   ar
   192    82    84   ar
   193    98   100    2
   194   110   112   ar
   195   121   123   ar
   196   132   134   ar
   197   140   142    2
   198   152   154   ar
   199   163   165   ar
   200   174   176   ar
   201   186   191    1
   202   187   188    1
   203   189   187    1
   204   190   187    1
   205   191   187    1
   206   192   191    1
   207   193   191    1
   208   194   186    1
   209   195   194    1
   210   196   194    1
   211   197   194    1
   212   198   197    1
   213   199   197    1
   214   200   197    1
@<TRIPOS>SUBSTRUCTURE
     1 RES1        1 GROUP             0 ****  ****    0  
     2 RES2      186 GROUP             0 ****  ****    0  
@<TRIPOS>CRYSIN
   13.2342   13.5131   13.7025   98.0060  116.1990   93.3490     2     1
