@<TRIPOS>MOLECULE
SEPDEZ
   153   159     2     0     0
SMALL
NO_CHARGES
****
Generated from the CSD

@<TRIPOS>ATOM
     1 Fe1      3.3130   6.6826  12.2760   Fe        1 RES1   0.0000
     2 N1       4.1538   7.4286   9.3571   N.pl3     1 RES1   0.0000
     3 N2       5.7561   6.6898  10.6216   N.pl3     1 RES1   0.0000
     4 N3       3.8501   3.5996  12.4620   N.pl3     1 RES1   0.0000
     5 N4       5.6180   4.8285  12.1924   N.pl3     1 RES1   0.0000
     6 N5       4.8977   8.5873  14.1475   N.pl3     1 RES1   0.0000
     7 N6       6.0800   7.1526  13.0338   N.pl3     1 RES1   0.0000
     8 N7       0.0034   5.9494  14.7779   N.pl3     1 RES1   0.0000
     9 N8       3.3907   5.5731  16.3735   N.pl3     1 RES1   0.0000
    10 N9       1.7009   9.1332  11.9464   N.1       1 RES1   0.0000
    11 O1       1.0360   5.5033  10.6363   O.2       1 RES1   0.0000
    12 C1       4.4305   6.9949  10.6349   C.3       1 RES1   0.0000
    13 C2       5.2979   7.3560   8.5556   C.2       1 RES1   0.0000
    14 C3       6.2756   6.8872   9.3564   C.2       1 RES1   0.0000
    15 C4       2.8138   7.8600   8.9111   C.3       1 RES1   0.0000
    16 C5       2.2266   6.9207   7.8598   C.3       1 RES1   0.0000
    17 C6       2.7926   9.3119   8.4760   C.3       1 RES1   0.0000
    18 C7       5.4329   7.7748   7.1108   C.3       1 RES1   0.0000
    19 C8       6.1640   9.1043   6.9847   C.3       1 RES1   0.0000
    20 C9       6.1683   6.6934   6.3158   C.3       1 RES1   0.0000
    21 C10      4.2761   4.9075  12.3751   C.3       1 RES1   0.0000
    22 C11      4.9318   2.7191  12.2938   C.2       1 RES1   0.0000
    23 C12      6.0107   3.5036  12.1096   C.2       1 RES1   0.0000
    24 C13      2.4409   3.2037  12.6803   C.3       1 RES1   0.0000
    25 C14      1.8863   2.4244  11.4866   C.3       1 RES1   0.0000
    26 C15      2.2247   2.4920  14.0111   C.3       1 RES1   0.0000
    27 C16      4.9089   1.2102  12.3207   C.3       1 RES1   0.0000
    28 C17      5.1263   0.6126  10.9359   C.3       1 RES1   0.0000
    29 C18      5.9551   0.6887  13.2917   C.3       1 RES1   0.0000
    30 C19      4.8071   7.5468  13.2487   C.3       1 RES1   0.0000
    31 C20      6.2450   8.8464  14.4662   C.2       1 RES1   0.0000
    32 C21      6.9565   7.9331  13.7662   C.2       1 RES1   0.0000
    33 C22      3.7178   9.3346  14.6202   C.3       1 RES1   0.0000
    34 C23      3.6502  10.7339  14.0125   C.3       1 RES1   0.0000
    35 C24      3.5861   9.3474  16.1418   C.3       1 RES1   0.0000
    36 C25      6.7752   9.9596  15.3360   C.3       1 RES1   0.0000
    37 C26      7.9628  10.6423  14.6594   C.3       1 RES1   0.0000
    38 C27      7.1914   9.4883  16.7208   C.3       1 RES1   0.0000
    39 C28      8.0260   5.9367  11.8766   C.ar      1 RES1   0.0000
    40 C29      8.8687   6.8052  11.1812   C.ar      1 RES1   0.0000
    41 C30     10.2558   6.7387  11.2688   C.ar      1 RES1   0.0000
    42 C31     10.8491   5.8006  12.0754   C.ar      1 RES1   0.0000
    43 C32     10.0520   4.9461  12.8090   C.ar      1 RES1   0.0000
    44 C33      8.6670   5.0203  12.7228   C.ar      1 RES1   0.0000
    45 C34      2.4730   6.2389  14.0016   C.3       1 RES1   0.0000
    46 C35      1.3366   5.9983  14.7764   C.2       1 RES1   0.0000
    47 C36      2.5830   5.8621  15.3459   C.2       1 RES1   0.0000
    48 C37     -0.6894   6.3052  13.5230   C.3       1 RES1   0.0000
    49 C38     -1.4867   5.1342  12.9844   C.3       1 RES1   0.0000
    50 C39     -1.5433   7.5439  13.6990   C.3       1 RES1   0.0000
    51 C40     -0.7879   5.5398  15.9562   C.3       1 RES1   0.0000
    52 C41     -0.5212   4.0869  16.3144   C.3       1 RES1   0.0000
    53 C42     -0.6001   6.5095  17.1146   C.3       1 RES1   0.0000
    54 C43      2.8066   5.1406  17.6626   C.3       1 RES1   0.0000
    55 C44      2.8986   6.1973  18.7590   C.3       1 RES1   0.0000
    56 C45      3.3244   3.7887  18.1342   C.3       1 RES1   0.0000
    57 C46      4.8458   5.5885  16.0787   C.3       1 RES1   0.0000
    58 C47      5.3630   4.2386  15.6233   C.3       1 RES1   0.0000
    59 C48      5.6867   6.1558  17.2126   C.3       1 RES1   0.0000
    60 C49      1.9250   5.8977  11.2628   C.1       1 RES1   0.0000
    61 C50      2.3653   8.2089  12.0908   C.1       1 RES1   0.0000
    62 B1       6.4228   6.1244  11.9136   B         1 RES1   0.0000
    63 H1       7.1770   6.7351   9.1009   H         1 RES1   0.0000
    64 H2       2.2493   7.8068   9.6725   H         1 RES1   0.0000
    65 H3       1.3651   7.2305   7.6029   H         1 RES1   0.0000
    66 H4       2.1537   6.0469   8.2264   H         1 RES1   0.0000
    67 H5       2.7942   6.8989   7.0994   H         1 RES1   0.0000
    68 H6       1.9134   9.5475   8.2049   H         1 RES1   0.0000
    69 H7       3.0643   9.8732   9.1923   H         1 RES1   0.0000
    70 H8       3.3879   9.4222   7.7444   H         1 RES1   0.0000
    71 H9       4.5619   7.8820   6.7482   H         1 RES1   0.0000
    72 H10      6.2237   9.3470   6.0690   H         1 RES1   0.0000
    73 H11      7.0380   9.0096   7.3466   H         1 RES1   0.0000
    74 H12      5.6957   9.7807   7.4613   H         1 RES1   0.0000
    75 H13      6.2468   6.9664   5.4096   H         1 RES1   0.0000
    76 H14      7.0341   6.5616   6.6836   H         1 RES1   0.0000
    77 H15      5.6776   5.8811   6.3593   H         1 RES1   0.0000
    78 H16      6.8966   3.1960  11.9535   H         1 RES1   0.0000
    79 H17      1.9359   4.0075  12.7204   H         1 RES1   0.0000
    80 H18      0.9815   2.1878  11.6489   H         1 RES1   0.0000
    81 H19      2.4043   1.6365  11.3730   H         1 RES1   0.0000
    82 H20      1.9384   2.9531  10.6992   H         1 RES1   0.0000
    83 H21      1.3106   2.2553  14.1091   H         1 RES1   0.0000
    84 H22      2.4804   3.0726  14.7184   H         1 RES1   0.0000
    85 H23      2.7593   1.7079  14.0357   H         1 RES1   0.0000
    86 H24      4.0574   0.9310  12.6380   H         1 RES1   0.0000
    87 H25      5.1006  -0.3354  10.9895   H         1 RES1   0.0000
    88 H26      5.9729   0.8886  10.6060   H         1 RES1   0.0000
    89 H27      4.4438   0.9156  10.3480   H         1 RES1   0.0000
    90 H28      5.9272  -0.2602  13.3100   H         1 RES1   0.0000
    91 H29      5.7943   1.0274  14.1647   H         1 RES1   0.0000
    92 H30      6.8101   0.9754  12.9928   H         1 RES1   0.0000
    93 H31      7.9025   7.8415  13.7776   H         1 RES1   0.0000
    94 H32      2.9585   8.8670  14.2937   H         1 RES1   0.0000
    95 H33      2.8776  11.1801  14.3385   H         1 RES1   0.0000
    96 H34      4.4268  11.2225  14.2614   H         1 RES1   0.0000
    97 H35      3.6046  10.6712  13.0663   H         1 RES1   0.0000
    98 H36      2.8143   9.8366  16.4027   H         1 RES1   0.0000
    99 H37      4.3588   9.7499  16.5192   H         1 RES1   0.0000
   100 H38      3.5128   8.4526  16.4511   H         1 RES1   0.0000
   101 H39      6.0870  10.6038  15.4477   H         1 RES1   0.0000
   102 H40      8.2849  11.3421  15.2147   H         1 RES1   0.0000
   103 H41      8.6530  10.0043  14.5213   H         1 RES1   0.0000
   104 H42      7.6924  11.0028  13.8224   H         1 RES1   0.0000
   105 H43      7.5140  10.2202  17.2341   H         1 RES1   0.0000
   106 H44      6.4452   9.0983  17.1607   H         1 RES1   0.0000
   107 H45      7.8782   8.8400  16.6267   H         1 RES1   0.0000
   108 H46      8.4761   7.4560  10.6114   H         1 RES1   0.0000
   109 H47     10.7939   7.3538  10.7852   H         1 RES1   0.0000
   110 H48     11.7950   5.7269  12.1166   H         1 RES1   0.0000
   111 H49     10.4508   4.3101  13.3906   H         1 RES1   0.0000
   112 H50      8.1324   4.4277  13.2401   H         1 RES1   0.0000
   113 H51     -0.0238   6.5172  12.8799   H         1 RES1   0.0000
   114 H52     -1.9245   5.3857  12.1793   H         1 RES1   0.0000
   115 H53     -2.1340   4.8730  13.6289   H         1 RES1   0.0000
   116 H54     -0.8996   4.4084  12.8136   H         1 RES1   0.0000
   117 H55     -1.9707   7.7490  12.8745   H         1 RES1   0.0000
   118 H56     -2.2009   7.3731  14.3636   H         1 RES1   0.0000
   119 H57     -1.0050   8.2791  13.9676   H         1 RES1   0.0000
   120 H58     -1.7025   5.5978  15.7039   H         1 RES1   0.0000
   121 H59     -1.0460   3.8417  17.0675   H         1 RES1   0.0000
   122 H60      0.3993   3.9844  16.5228   H         1 RES1   0.0000
   123 H61     -0.7434   3.5295  15.5767   H         1 RES1   0.0000
   124 H62     -1.1245   6.2320  17.8577   H         1 RES1   0.0000
   125 H63      0.3181   6.5153  17.3596   H         1 RES1   0.0000
   126 H64     -0.8619   7.3827  16.8489   H         1 RES1   0.0000
   127 H65      1.8788   5.0156  17.4975   H         1 RES1   0.0000
   128 H66      2.5066   5.8657  19.5582   H         1 RES1   0.0000
   129 H67      3.8107   6.4074  18.9185   H         1 RES1   0.0000
   130 H68      2.4372   6.9799  18.4795   H         1 RES1   0.0000
   131 H69      2.9173   3.5603  18.9615   H         1 RES1   0.0000
   132 H70      4.2666   3.8398  18.2483   H         1 RES1   0.0000
   133 H71      3.1196   3.1247  17.4868   H         1 RES1   0.0000
   134 H72      4.9653   6.1780  15.3419   H         1 RES1   0.0000
   135 H73      6.2948   4.2889  15.4477   H         1 RES1   0.0000
   136 H74      5.2037   3.6008  16.3077   H         1 RES1   0.0000
   137 H75      4.9054   3.9767  14.8330   H         1 RES1   0.0000
   138 H76      6.6077   6.1491  16.9779   H         1 RES1   0.0000
   139 H77      5.5543   5.6267  17.9903   H         1 RES1   0.0000
   140 H78      5.4105   7.0473  17.3864   H         1 RES1   0.0000
   141 O2       5.9966   2.9674   6.9875   O.3       2 RES2   0.0000
   142 C51      4.7054   2.4538   6.7195   C.3       2 RES2   0.0000
   143 C52      3.7672   3.3446   7.4672   C.3       2 RES2   0.0000
   144 C53      4.5526   3.7746   8.6776   C.3       2 RES2   0.0000
   145 C54      5.9848   3.4042   8.3370   C.3       2 RES2   0.0000
   146 H79      4.6277   1.5556   7.0169   H         2 RES2   0.0000
   147 H80      4.5284   2.4963   5.7877   H         2 RES2   0.0000
   148 H81      3.5265   4.1039   6.9488   H         2 RES2   0.0000
   149 H82      2.9824   2.8721   7.7229   H         2 RES2   0.0000
   150 H83      4.4776   4.7092   8.8321   H         2 RES2   0.0000
   151 H84      4.2602   3.3020   9.4485   H         2 RES2   0.0000
   152 H85      6.5519   4.1598   8.4361   H         2 RES2   0.0000
   153 H86      6.2854   2.7064   8.9074   H         2 RES2   0.0000
@<TRIPOS>BOND
     1     1    12    1
     2     2    12    1
     3     3    12    1
     4     4    21    1
     5     5    21    1
     6     6    30    1
     7     7    30    1
     8     8    46    1
     9     9    47    1
    10    10    61    3
    11    11    60    3
    12    13     2    1
    13    14     3    1
    14    15     2    1
    15    16    15    1
    16    17    15    1
    17    18    13    1
    18    19    18    1
    19    20    18    1
    20    21     1    1
    21    22     4    1
    22    23     5    1
    23    24     4    1
    24    25    24    1
    25    26    24    1
    26    27    22    1
    27    28    27    1
    28    29    27    1
    29    30     1    1
    30    31     6    1
    31    32     7    1
    32    33     6    1
    33    34    33    1
    34    35    33    1
    35    36    31    1
    36    37    36    1
    37    38    36    1
    38    39    40   ar
    39    40    41   ar
    40    41    42   ar
    41    42    43   ar
    42    43    44   ar
    43    44    39   ar
    44    45     1    1
    45    46    45    1
    46    47    45    1
    47    48     8    1
    48    49    48    1
    49    50    48    1
    50    51     8    1
    51    52    51    1
    52    53    51    1
    53    54     9    1
    54    55    54    1
    55    56    54    1
    56    57     9    1
    57    58    57    1
    58    59    57    1
    59    60     1    1
    60    61     1    1
    61    62     3    1
    62    63    14    1
    63    64    15    1
    64    65    16    1
    65    66    16    1
    66    67    16    1
    67    68    17    1
    68    69    17    1
    69    70    17    1
    70    71    18    1
    71    72    19    1
    72    73    19    1
    73    74    19    1
    74    75    20    1
    75    76    20    1
    76    77    20    1
    77    78    23    1
    78    79    24    1
    79    80    25    1
    80    81    25    1
    81    82    25    1
    82    83    26    1
    83    84    26    1
    84    85    26    1
    85    86    27    1
    86    87    28    1
    87    88    28    1
    88    89    28    1
    89    90    29    1
    90    91    29    1
    91    92    29    1
    92    93    32    1
    93    94    33    1
    94    95    34    1
    95    96    34    1
    96    97    34    1
    97    98    35    1
    98    99    35    1
    99   100    35    1
   100   101    36    1
   101   102    37    1
   102   103    37    1
   103   104    37    1
   104   105    38    1
   105   106    38    1
   106   107    38    1
   107   108    40    1
   108   109    41    1
   109   110    42    1
   110   111    43    1
   111   112    44    1
   112   113    48    1
   113   114    49    1
   114   115    49    1
   115   116    49    1
   116   117    50    1
   117   118    50    1
   118   119    50    1
   119   120    51    1
   120   121    52    1
   121   122    52    1
   122   123    52    1
   123   124    53    1
   124   125    53    1
   125   126    53    1
   126   127    54    1
   127   128    55    1
   128   129    55    1
   129   130    55    1
   130   131    56    1
   131   132    56    1
   132   133    56    1
   133   134    57    1
   134   135    58    1
   135   136    58    1
   136   137    58    1
   137   138    59    1
   138   139    59    1
   139   140    59    1
   140     5    62    1
   141     7    62    1
   142    13    14    2
   143    22    23    2
   144    31    32    2
   145    39    62    1
   146    46    47    2
   147   141   142    1
   148   142   143    1
   149   143   144    1
   150   144   145    1
   151   145   141    1
   152   146   142    1
   153   147   142    1
   154   148   143    1
   155   149   143    1
   156   150   144    1
   157   151   144    1
   158   152   145    1
   159   153   145    1
@<TRIPOS>SUBSTRUCTURE
     1 RES1        1 GROUP             0 ****  ****    0  
     2 RES2      141 GROUP             0 ****  ****    0  
@<TRIPOS>CRYSIN
   16.3579   19.2761   18.4105   90.0000  103.2740   90.0000   231     1
