@<TRIPOS>MOLECULE
SEPNOS
   105   116     1     0     0
SMALL
NO_CHARGES
****
Generated from the CSD

@<TRIPOS>ATOM
     1 Fe1      4.9421   4.0460  17.9253   Fe        1 RES1   0.0000
     2 P1       5.7167   3.7601  19.9673   P.3       1 RES1   0.0000
     3 P2       4.0354   6.0786  17.9869   P.3       1 RES1   0.0000
     4 Si1      6.5831   4.9064  14.1032   Si        1 RES1   0.0000
     5 Si2      8.7294   4.0840  16.0152   Si        1 RES1   0.0000
     6 N1       6.0546   4.1560  16.6969   N.3       1 RES1   0.0000
     7 N2       6.9652   4.3328  15.7587   N.pl3     1 RES1   0.0000
     8 C1       6.0770   5.1752  21.0794   C.ar      1 RES1   0.0000
     9 C2       4.0708   1.2191  22.8151   C.ar      1 RES1   0.0000
    10 H1       4.3172   0.7294  23.5912   H         1 RES1   0.0000
    11 C3       2.3877   1.9344  21.2384   C.ar      1 RES1   0.0000
    12 H2       1.4885   1.9064  20.9346   H         1 RES1   0.0000
    13 C4       4.6403   2.7250  21.0191   C.ar      1 RES1   0.0000
    14 C5       6.9901   9.3558  19.4082   C.ar      1 RES1   0.0000
    15 H3       7.6107  10.0248  19.6724   H         1 RES1   0.0000
    16 C6       6.3766   7.5278  17.9639   C.ar      1 RES1   0.0000
    17 H4       6.5925   6.9415  17.2478   H         1 RES1   0.0000
    18 C7       5.5001   6.5499  22.9840   C.ar      1 RES1   0.0000
    19 H5       4.9073   6.7542  23.6975   H         1 RES1   0.0000
    20 C8       2.1232   4.9477  19.5494   C.ar      1 RES1   0.0000
    21 C9       4.1427   2.0006  17.7381   C.ar      1 RES1   0.0000
    22 C10      2.3825   2.4803  15.6017   C.ar      1 RES1   0.0000
    23 C11      4.3147   1.3312  16.4813   C.ar      1 RES1   0.0000
    24 C12      3.3202   2.7357  20.5589   C.ar      1 RES1   0.0000
    25 C13      5.1470   7.3961  18.6199   C.ar      1 RES1   0.0000
    26 C14      5.2096   5.4919  22.1248   C.ar      1 RES1   0.0000
    27 H6       4.4175   4.9842  22.2510   H         1 RES1   0.0000
    28 C15      5.7830   9.2215  20.0760   C.ar      1 RES1   0.0000
    29 H7       5.5817   9.7956  20.8066   H         1 RES1   0.0000
    30 C16      3.0044   6.0580  15.3842   C.ar      1 RES1   0.0000
    31 H8       3.0423   5.1134  15.4759   H         1 RES1   0.0000
    32 C17      0.5773   7.2990  19.8856   C.ar      1 RES1   0.0000
    33 H9       0.0424   8.0784  19.9803   H         1 RES1   0.0000
    34 C18      3.4411   8.2585  16.2465   C.ar      1 RES1   0.0000
    35 H10      3.7760   8.8261  16.9311   H         1 RES1   0.0000
    36 C19      2.7565   1.1789  22.3490   C.ar      1 RES1   0.0000
    37 H11      2.1127   0.6367  22.7888   H         1 RES1   0.0000
    38 C20      3.4892   6.8710  16.4137   C.ar      1 RES1   0.0000
    39 C21      3.0842   2.9560  17.9051   C.ar      1 RES1   0.0000
    40 C22      2.4899   6.1635  18.9461   C.ar      1 RES1   0.0000
    41 C23      4.8600   8.2491  19.6847   C.ar      1 RES1   0.0000
    42 H12      4.0332   8.1694  20.1452   H         1 RES1   0.0000
    43 C24      2.9078   8.8172  15.0890   C.ar      1 RES1   0.0000
    44 H13      2.8783   9.7611  14.9880   H         1 RES1   0.0000
    45 C25      2.4178   7.9971  14.0786   C.ar      1 RES1   0.0000
    46 H14      2.0507   8.3786  13.2899   H         1 RES1   0.0000
    47 C26      9.1415   2.2746  15.9012   C.3       1 RES1   0.0000
    48 H15      8.4654   1.7536  16.3824   H         1 RES1   0.0000
    49 H16     10.0225   2.1137  16.3000   H         1 RES1   0.0000
    50 H17      9.1537   2.0010  14.9598   H         1 RES1   0.0000
    51 C27      7.2872   8.5079  18.3499   C.ar      1 RES1   0.0000
    52 H18      8.1131   8.5969  17.8875   H         1 RES1   0.0000
    53 C28      6.6462   7.3043  22.8057   C.ar      1 RES1   0.0000
    54 H19      6.8441   8.0184  23.3982   H         1 RES1   0.0000
    55 C29      9.2635   4.8678  17.6049   C.3       1 RES1   0.0000
    56 H20      8.8645   5.7591  17.6793   H         1 RES1   0.0000
    57 H21     10.2404   4.9442  17.6186   H         1 RES1   0.0000
    58 H22      8.9683   4.3130  18.3581   H         1 RES1   0.0000
    59 C30      5.0171   1.9770  22.1419   C.ar      1 RES1   0.0000
    60 H23      5.9181   1.9882  22.4418   H         1 RES1   0.0000
    61 C31      7.5061   7.0099  21.7526   C.ar      1 RES1   0.0000
    62 H24      8.2905   7.5309  21.6220   H         1 RES1   0.0000
    63 C32      0.9894   4.9728  20.3850   C.ar      1 RES1   0.0000
    64 H25      0.7307   4.1784  20.8391   H         1 RES1   0.0000
    65 C33      1.7024   7.3161  19.0703   C.ar      1 RES1   0.0000
    66 H26      1.9369   8.1057  18.5989   H         1 RES1   0.0000
    67 C34      2.2233   3.1663  16.7745   C.ar      1 RES1   0.0000
    68 C35      6.2556   6.7380  14.1305   C.3       1 RES1   0.0000
    69 H27      5.4480   6.9179  14.6561   H         1 RES1   0.0000
    70 H28      6.1276   7.0598  13.2140   H         1 RES1   0.0000
    71 H29      7.0186   7.1998  14.5369   H         1 RES1   0.0000
    72 C36      8.6939   1.0625  19.1478   C.ar      1 RES1   0.0000
    73 H30      8.8882   0.4529  18.4449   H         1 RES1   0.0000
    74 C37      7.2905   2.8106  20.0710   C.ar      1 RES1   0.0000
    75 C38      9.2336   2.0152  21.2848   C.ar      1 RES1   0.0000
    76 H31      9.7952   2.0537  22.0493   H         1 RES1   0.0000
    77 C39      7.2223   5.9580  20.8916   C.ar      1 RES1   0.0000
    78 H32      7.8097   5.7682  20.1690   H         1 RES1   0.0000
    79 C40      3.4592   1.5651  15.4449   C.ar      1 RES1   0.0000
    80 C41      2.4684   6.6148  14.2306   C.ar      1 RES1   0.0000
    81 H33      2.1354   6.0502  13.5436   H         1 RES1   0.0000
    82 C42      8.1351   2.8616  21.1887   C.ar      1 RES1   0.0000
    83 H34      7.9546   3.4799  21.8866   H         1 RES1   0.0000
    84 C43      9.5133   1.1113  20.2638   C.ar      1 RES1   0.0000
    85 H35     10.2624   0.5312  20.3317   H         1 RES1   0.0000
    86 C44      0.2416   6.1275  20.5622   C.ar      1 RES1   0.0000
    87 H36     -0.5056   6.1193  21.1493   H         1 RES1   0.0000
    88 C45      5.1888   3.9364  13.3558   C.3       1 RES1   0.0000
    89 H37      5.4699   3.0069  13.2270   H         1 RES1   0.0000
    90 H38      4.9464   4.3275  12.4896   H         1 RES1   0.0000
    91 H39      4.4137   3.9637  13.9557   H         1 RES1   0.0000
    92 C46      7.5856   1.9044  19.0515   C.ar      1 RES1   0.0000
    93 H40      7.0261   1.8609  18.2844   H         1 RES1   0.0000
    94 C47      9.3118   4.9375  14.4545   C.3       1 RES1   0.0000
    95 H41      9.3593   5.9174  14.5933   H         1 RES1   0.0000
    96 H42     10.2095   4.6095  14.1942   H         1 RES1   0.0000
    97 C48      8.2683   4.5940  13.3547   C.3       1 RES1   0.0000
    98 H43      8.3548   3.6472  13.0817   H         1 RES1   0.0000
    99 H44      8.4046   5.1661  12.5590   H         1 RES1   0.0000
   100 B1       2.9804   3.6348  19.2889   B         1 RES1   0.0000
   101 H45      1.5189   3.7873  16.8747   H         1 RES1   0.0000
   102 H46      4.9883   0.6749  16.4215   H         1 RES1   0.0000
   103 H47      4.5035   1.6026  18.5230   H         1 RES1   0.0000
   104 H48      1.7705   2.6267  14.8578   H         1 RES1   0.0000
   105 H49      3.6130   1.1114  14.6301   H         1 RES1   0.0000
@<TRIPOS>BOND
     1     1     2    1
     2     2     8    1
     3     3     1    1
     4     4     7    1
     5     5     7    1
     6     6     1    3
     7     7     6    1
     8     8    26   ar
     9     9    10    1
    10    11    12    1
    11    13     2    1
    12    14    15    1
    13    16    17    1
    14    18    19    1
    15    20    40   ar
    16    21     1   un
    17    22    67   ar
    18    23    21   ar
    19    24    11   ar
    20    25     3    1
    21    26    18   ar
    22    27    26    1
    23    28    14   ar
    24    29    28    1
    25    30    31    1
    26    32    33    1
    27    34    35    1
    28    36     9   ar
    29    37    36    1
    30    38     3    1
    31    39     1   un
    32    40     3    1
    33    41    25   ar
    34    42    41    1
    35    43    34   ar
    36    44    43    1
    37    45    43   ar
    38    46    45    1
    39    47     5    1
    40    48    47    1
    41    49    47    1
    42    50    47    1
    43    51    14   ar
    44    52    51    1
    45    53    18   ar
    46    54    53    1
    47    55     5    1
    48    56    55    1
    49    57    55    1
    50    58    55    1
    51    59     9   ar
    52    60    59    1
    53    61    53   ar
    54    62    61    1
    55    63    20   ar
    56    64    63    1
    57    65    32   ar
    58    66    65    1
    59    67    39   ar
    60    68     4    1
    61    69    68    1
    62    70    68    1
    63    71    68    1
    64    72    73    1
    65    74     2    1
    66    75    76    1
    67    77     8   ar
    68    78    77    1
    69    79    22   ar
    70    80    30   ar
    71    81    80    1
    72    82    74   ar
    73    83    82    1
    74    84    72   ar
    75    85    84    1
    76    86    32   ar
    77    87    86    1
    78    88     4    1
    79    89    88    1
    80    90    88    1
    81    91    88    1
    82    92    72   ar
    83    93    92    1
    84    94     5    1
    85    95    94    1
    86    96    94    1
    87    97     4    1
    88    98    97    1
    89    99    97    1
    90   100     1    1
    91   101    67    1
    92   102    23    1
    93   103    21    1
    94   104    22    1
    95   105    79    1
    96    11    36   ar
    97    13    24   ar
    98    13    59   ar
    99    16    25   ar
   100    16    51   ar
   101    20   100    1
   102    21    39   ar
   103    23    79   ar
   104    24   100    1
   105    28    41   ar
   106    30    38   ar
   107    34    38   ar
   108    39   100    1
   109    40    65   ar
   110    45    80   ar
   111    61    77   ar
   112    63    86   ar
   113    74    92   ar
   114    75    82   ar
   115    75    84   ar
   116    94    97    1
@<TRIPOS>SUBSTRUCTURE
     1 RES1        1 GROUP             0 ****  ****    0  
@<TRIPOS>CRYSIN
   10.7196   18.1906   21.7101   90.0000   92.6370   90.0000   231     1
