@<TRIPOS>MOLECULE
SEQBIB
   101   111     1     0     0
SMALL
NO_CHARGES
****
Generated from the CSD

@<TRIPOS>ATOM
     1 Fe1     11.5135   1.9208  -0.1815   Fe        1 RES1   0.0000
     2 S1      13.7152   2.4945   2.3845   S.o2      1 RES1   0.0000
     3 O1      13.0877   1.8731   1.2547   O.3       1 RES1   0.0000
     4 N1      11.9617  -0.1775  -0.5438   N.ar      1 RES1   0.0000
     5 C1      13.0279  -0.8497  -0.1094   C.ar      1 RES1   0.0000
     6 H1      13.6156  -0.4183   0.4674   H         1 RES1   0.0000
     7 F1      16.1578   2.3105   3.2089   F         1 RES1   0.0000
     8 S2       9.1119   0.6301   1.8286   S.o2      1 RES1   0.0000
     9 N2      10.1855   1.4335  -1.8920   N.3       1 RES1   0.0000
    10 C2      13.3031  -2.1520  -0.4757   C.ar      1 RES1   0.0000
    11 F2      15.3981   0.5539   2.3039   F         1 RES1   0.0000
    12 O2      13.3180   2.0343   3.6415   O.2       1 RES1   0.0000
    13 N3      12.6971   2.8214  -1.8160   N.3       1 RES1   0.0000
    14 O3      13.8997   3.8873   2.2128   O.2       1 RES1   0.0000
    15 C3      14.5368  -2.9151  -0.0746   C.3       1 RES1   0.0000
    16 H2      15.1813  -2.4428   0.4939   H         1 RES1   0.0000
    17 F3      15.9155   2.1847   1.1387   F         1 RES1   0.0000
    18 N4      11.3286   4.0651   0.1895   N.ar      1 RES1   0.0000
    19 O4       9.8038   1.5757   1.0160   O.3       1 RES1   0.0000
    20 F4       8.4714   0.8350   4.3460   F         1 RES1   0.0000
    21 C4      14.1121  -4.3464   0.3879   C.3       1 RES1   0.0000
    22 C5      14.0209  -4.6765  -1.1138   C.3       1 RES1   0.0000
    23 H3      14.2900  -5.5866  -1.3558   H         1 RES1   0.0000
    24 F5       8.2307   2.5621   3.2288   F         1 RES1   0.0000
    25 O5       9.8921  -0.5033   2.1431   O.2       1 RES1   0.0000
    26 C6      12.7139  -4.2223  -1.7056   C.3       1 RES1   0.0000
    27 H4      12.7543  -4.2974  -2.6719   H         1 RES1   0.0000
    28 H5      12.0006  -4.7958  -1.3890   H         1 RES1   0.0000
    29 O6       7.8359   0.3023   1.4603   O.2       1 RES1   0.0000
    30 F6      10.0536   2.0115   3.7393   F         1 RES1   0.0000
    31 C7      12.4163  -2.7990  -1.3293   C.ar      1 RES1   0.0000
    32 C8      11.3127  -2.1079  -1.7752   C.ar      1 RES1   0.0000
    33 H6      10.7041  -2.5164  -2.3487   H         1 RES1   0.0000
    34 C9      11.1123  -0.7925  -1.3625   C.ar      1 RES1   0.0000
    35 C10     15.1020  -3.5866  -1.3592   C.3       1 RES1   0.0000
    36 H7      14.9749  -3.0703  -2.1697   H         1 RES1   0.0000
    37 H8      16.0157  -3.9020  -1.2779   H         1 RES1   0.0000
    38 C11      9.9085  -0.0147  -1.8083   C.3       1 RES1   0.0000
    39 H9       9.6244  -0.3366  -2.6785   H         1 RES1   0.0000
    40 H10      9.1818  -0.1650  -1.1835   H         1 RES1   0.0000
    41 C12      8.9141   2.1994  -2.0354   C.3       1 RES1   0.0000
    42 H11      9.0502   3.1307  -1.8017   H         1 RES1   0.0000
    43 H12      8.2277   1.8317  -1.4586   H         1 RES1   0.0000
    44 C13      8.5178   2.0719  -3.4691   C.3       1 RES1   0.0000
    45 H13      8.0438   2.8644  -3.7658   H         1 RES1   0.0000
    46 H14      7.9451   1.2990  -3.5984   H         1 RES1   0.0000
    47 C14      9.8248   1.9085  -4.2382   C.3       1 RES1   0.0000
    48 H15     10.0042   2.6928  -4.7802   H         1 RES1   0.0000
    49 H16      9.7874   1.1307  -4.8150   H         1 RES1   0.0000
    50 C15     10.9089   1.7337  -3.1526   C.3       1 RES1   0.0000
    51 H17     11.4802   0.9722  -3.3863   H         1 RES1   0.0000
    52 C16     11.7748   2.9821  -2.9852   C.3       1 RES1   0.0000
    53 H18     11.2020   3.7664  -2.8492   H         1 RES1   0.0000
    54 C17     12.6870   3.2108  -4.2051   C.3       1 RES1   0.0000
    55 H19     12.7677   4.1569  -4.4023   H         1 RES1   0.0000
    56 H20     12.3341   2.7566  -4.9874   H         1 RES1   0.0000
    57 C18     14.0493   2.6160  -3.7973   C.3       1 RES1   0.0000
    58 H21     14.3170   1.9199  -4.4156   H         1 RES1   0.0000
    59 H22     14.7327   3.3056  -3.7874   H         1 RES1   0.0000
    60 C19     13.8474   2.0458  -2.4050   C.3       1 RES1   0.0000
    61 H23     13.6351   1.1013  -2.4498   H         1 RES1   0.0000
    62 H24     14.6474   2.1618  -1.8697   H         1 RES1   0.0000
    63 C20     13.1999   4.1079  -1.3558   C.3       1 RES1   0.0000
    64 H25     13.3749   4.6732  -2.1249   H         1 RES1   0.0000
    65 H26     14.0403   3.9706  -0.8917   H         1 RES1   0.0000
    66 C21     12.2369   4.8121  -0.4343   C.ar      1 RES1   0.0000
    67 C22     12.3804   6.1716  -0.1873   C.ar      1 RES1   0.0000
    68 H27     12.9861   6.6798  -0.6779   H         1 RES1   0.0000
    69 C23     11.6193   6.7468   0.7807   C.ar      1 RES1   0.0000
    70 C24     11.7838   8.1978   1.2116   C.3       1 RES1   0.0000
    71 H28     11.5789   8.7828   0.4658   H         1 RES1   0.0000
    72 H29     12.7049   8.3563   1.4735   H         1 RES1   0.0000
    73 C25     10.8461   8.5229   2.3984   C.3       1 RES1   0.0000
    74 H30     10.8775   9.4494   2.7166   H         1 RES1   0.0000
    75 C26      9.4464   7.9952   2.0437   C.3       1 RES1   0.0000
    76 H31      9.2505   7.9870   1.0939   H         1 RES1   0.0000
    77 H32      8.7257   8.3955   2.5525   H         1 RES1   0.0000
    78 C27      9.9504   6.6455   2.6023   C.3       1 RES1   0.0000
    79 H33      9.2909   6.0981   3.0780   H         1 RES1   0.0000
    80 C28     10.7026   5.9674   1.4951   C.ar      1 RES1   0.0000
    81 C29     10.5829   4.6602   1.1321   C.ar      1 RES1   0.0000
    82 H34      9.9399   4.1455   1.5647   H         1 RES1   0.0000
    83 C30     10.9239   7.4592   3.4808   C.3       1 RES1   0.0000
    84 C31     12.2533   6.8072   3.8471   C.3       1 RES1   0.0000
    85 H35     12.6959   6.5131   3.0481   H         1 RES1   0.0000
    86 H36     12.0948   6.0540   4.4206   H         1 RES1   0.0000
    87 H37     12.8081   7.4445   4.3029   H         1 RES1   0.0000
    88 C32     15.3727   1.8383   2.3089   C.3       1 RES1   0.0000
    89 C33      8.9365   1.5131   3.3382   C.3       1 RES1   0.0000
    90 C34     15.2665  -5.0785   1.0807   C.3       1 RES1   0.0000
    91 H38     14.9764  -5.9543   1.3492   H         1 RES1   0.0000
    92 H39     15.5432  -4.5817   1.8531   H         1 RES1   0.0000
    93 H40     16.0053  -5.1602   0.4724   H         1 RES1   0.0000
    94 C35     10.2540   7.9298   4.7869   C.3       1 RES1   0.0000
    95 H41      9.4120   8.3465   4.5846   H         1 RES1   0.0000
    96 H42     10.8237   8.5622   5.2294   H         1 RES1   0.0000
    97 H43     10.1059   7.1749   5.3620   H         1 RES1   0.0000
    98 C36     12.8889  -4.4919   1.2332   C.3       1 RES1   0.0000
    99 H44     12.7453  -5.4200   1.4321   H         1 RES1   0.0000
   100 H45     12.1292  -4.1471   0.7575   H         1 RES1   0.0000
   101 H46     13.0040  -4.0033   2.0503   H         1 RES1   0.0000
@<TRIPOS>BOND
     1     1     3    1
     2     2     3    1
     3     4     1    1
     4     5     4   ar
     5     6     5    1
     6     7    88    1
     7     8    19    1
     8     9     1    1
     9    10     5   ar
    10    11    88    1
    11    12     2    2
    12    13     1    1
    13    14     2    2
    14    15    10    1
    15    16    15    1
    16    17    88    1
    17    18     1    1
    18    19     1    1
    19    20    89    1
    20    21    15    1
    21    22    21    1
    22    23    22    1
    23    24    89    1
    24    25     8    2
    25    26    22    1
    26    27    26    1
    27    28    26    1
    28    29     8    2
    29    30    89    1
    30    31    10   ar
    31    32    31   ar
    32    33    32    1
    33    34     4   ar
    34    35    15    1
    35    36    35    1
    36    37    35    1
    37    38     9    1
    38    39    38    1
    39    40    38    1
    40    41     9    1
    41    42    41    1
    42    43    41    1
    43    44    41    1
    44    45    44    1
    45    46    44    1
    46    47    44    1
    47    48    47    1
    48    49    47    1
    49    50     9    1
    50    51    50    1
    51    52    13    1
    52    53    52    1
    53    54    52    1
    54    55    54    1
    55    56    54    1
    56    57    54    1
    57    58    57    1
    58    59    57    1
    59    60    13    1
    60    61    60    1
    61    62    60    1
    62    63    13    1
    63    64    63    1
    64    65    63    1
    65    66    18   ar
    66    67    66   ar
    67    68    67    1
    68    69    67   ar
    69    70    69    1
    70    71    70    1
    71    72    70    1
    72    73    70    1
    73    74    73    1
    74    75    73    1
    75    76    75    1
    76    77    75    1
    77    78    75    1
    78    79    78    1
    79    80    69   ar
    80    81    18   ar
    81    82    81    1
    82    83    73    1
    83    84    83    1
    84    85    84    1
    85    86    84    1
    86    87    84    1
    87    88     2    1
    88    89     8    1
    89    90    21    1
    90    91    90    1
    91    92    90    1
    92    93    90    1
    93    94    83    1
    94    95    94    1
    95    96    94    1
    96    97    94    1
    97    98    21    1
    98    99    98    1
    99   100    98    1
   100   101    98    1
   101    22    35    1
   102    26    31    1
   103    32    34   ar
   104    34    38    1
   105    47    50    1
   106    50    52    1
   107    57    60    1
   108    63    66    1
   109    78    80    1
   110    78    83    1
   111    80    81   ar
@<TRIPOS>SUBSTRUCTURE
     1 RES1        1 GROUP             0 ****  ****    0  
@<TRIPOS>CRYSIN
   14.9540   16.3400   16.5750   90.0000   90.0000   90.0000    19     1
