@<TRIPOS>MOLECULE
SEYDUX
   114   124     2     0     0
SMALL
NO_CHARGES
****
Generated from the CSD

@<TRIPOS>ATOM
     1 Fe1      8.1817   5.2539   6.5498   Fe        1 RES1   0.0000
     2 S1       5.5177   1.9687   4.1912   S.2       1 RES1   0.0000
     3 O1       7.5783   9.3463  11.8787   O.3       1 RES1   0.0000
     4 O2      10.9100   6.3314  12.2835   O.3       1 RES1   0.0000
     5 N1       7.0715   3.8767   5.4652   N.2       1 RES1   0.0000
     6 N2       6.3015   5.8786   7.5414   N.ar      1 RES1   0.0000
     7 N3       8.2265   3.7972   8.2017   N.ar      1 RES1   0.0000
     8 N4       7.2983   5.4329   9.6164   N.pl3     1 RES1   0.0000
     9 N5       7.4415   7.4661  10.6998   N.ar      1 RES1   0.0000
    10 N6       9.1019   5.7992  10.9775   N.ar      1 RES1   0.0000
    11 N7       9.2638   7.8183  12.1813   N.ar      1 RES1   0.0000
    12 C1       6.4132   3.0975   4.9556   C.1       1 RES1   0.0000
    13 C2       5.2267   6.2433   6.8157   C.ar      1 RES1   0.0000
    14 H1       5.2983   6.2259   5.8896   H         1 RES1   0.0000
    15 C3       4.0536   6.6317   7.3541   C.ar      1 RES1   0.0000
    16 H2       3.3416   6.8859   6.8118   H         1 RES1   0.0000
    17 C4       3.9375   6.6441   8.7178   C.ar      1 RES1   0.0000
    18 H3       3.1506   6.9347   9.1199   H         1 RES1   0.0000
    19 C5       4.9997   6.2199   9.4894   C.ar      1 RES1   0.0000
    20 H4       4.9259   6.1732  10.4155   H         1 RES1   0.0000
    21 C6       6.1671   5.8707   8.8580   C.ar      1 RES1   0.0000
    22 C7       8.6548   2.5413   7.9895   C.ar      1 RES1   0.0000
    23 H5       8.9224   2.2981   7.1327   H         1 RES1   0.0000
    24 C8       8.7135   1.6096   8.9837   C.ar      1 RES1   0.0000
    25 H6       9.0264   0.7516   8.8095   H         1 RES1   0.0000
    26 C9       8.3012   1.9603  10.2531   C.ar      1 RES1   0.0000
    27 H7       8.3583   1.3541  10.9565   H         1 RES1   0.0000
    28 C10      7.8065   3.2180  10.4522   C.ar      1 RES1   0.0000
    29 H8       7.4824   3.4713  11.2866   H         1 RES1   0.0000
    30 C11      7.7970   4.0995   9.4068   C.ar      1 RES1   0.0000
    31 C12      7.9571   6.2803  10.4587   C.ar      1 RES1   0.0000
    32 C13      8.1361   8.1567  11.5827   C.ar      1 RES1   0.0000
    33 C14      9.7019   6.6460  11.7700   C.ar      1 RES1   0.0000
    34 C15      8.2108  10.1957  12.8009   C.ar      1 RES1   0.0000
    35 C16      7.5588  10.4345  13.9747   C.ar      1 RES1   0.0000
    36 H9       6.7772   9.9776  14.1856   H         1 RES1   0.0000
    37 C17      8.0884  11.3755  14.8523   C.ar      1 RES1   0.0000
    38 H10      7.6636  11.5561  15.6593   H         1 RES1   0.0000
    39 C18      9.2543  12.0420  14.5104   C.ar      1 RES1   0.0000
    40 H11      9.6030  12.6875  15.0829   H         1 RES1   0.0000
    41 C19      9.8951  11.7566  13.3367   C.ar      1 RES1   0.0000
    42 H12     10.6948  12.1836  13.1284   H         1 RES1   0.0000
    43 C20      9.3591  10.8374  12.4643   C.ar      1 RES1   0.0000
    44 H13      9.7778  10.6589  11.6534   H         1 RES1   0.0000
    45 C21     11.6705   5.2592  11.8512   C.ar      1 RES1   0.0000
    46 C22     11.6773   4.7591  10.5530   C.ar      1 RES1   0.0000
    47 H14     11.0986   5.0959   9.9072   H         1 RES1   0.0000
    48 C23     12.5652   3.7527  10.2518   C.ar      1 RES1   0.0000
    49 H15     12.6067   3.4255   9.3819   H         1 RES1   0.0000
    50 C24     13.3807   3.2291  11.1962   C.ar      1 RES1   0.0000
    51 H16     13.9405   2.5167  10.9906   H         1 RES1   0.0000
    52 C25     13.3738   3.7471  12.4341   C.ar      1 RES1   0.0000
    53 H17     13.9649   3.4102  13.0682   H         1 RES1   0.0000
    54 C26     12.5118   4.7688  12.7957   C.ar      1 RES1   0.0000
    55 H18     12.5109   5.1104  13.6603   H         1 RES1   0.0000
    56 S1A     10.8457   8.5390   8.9084   S.2       1 RES1   0.0000
    57 O1A      8.7851   1.1615   1.2209   O.3       1 RES1   0.0000
    58 O2A      5.4534   4.1763   0.8161   O.3       1 RES1   0.0000
    59 N1A      9.2920   6.6310   7.6345   N.2       1 RES1   0.0000
    60 N2A     10.0619   4.6292   5.5582   N.ar      1 RES1   0.0000
    61 N3A      8.1369   6.7106   4.8979   N.ar      1 RES1   0.0000
    62 N4A      9.0652   5.0749   3.4832   N.pl3     1 RES1   0.0000
    63 N5A      8.9220   3.0416   2.3998   N.ar      1 RES1   0.0000
    64 N6A      7.2615   4.7086   2.1221   N.ar      1 RES1   0.0000
    65 N7A      7.0997   2.6894   0.9183   N.ar      1 RES1   0.0000
    66 C1A      9.9502   7.4102   8.1440   C.1       1 RES1   0.0000
    67 C2A     11.1367   4.2644   6.2839   C.ar      1 RES1   0.0000
    68 H1A     11.0652   4.2819   7.2100   H         1 RES1   0.0000
    69 C3A     12.3099   3.8760   5.7455   C.ar      1 RES1   0.0000
    70 H2A     13.0219   3.6218   6.2878   H         1 RES1   0.0000
    71 C4A     12.4259   3.8636   4.3818   C.ar      1 RES1   0.0000
    72 H3A     13.2129   3.5731   3.9797   H         1 RES1   0.0000
    73 C5A     11.3637   4.2878   3.6103   C.ar      1 RES1   0.0000
    74 H4A     11.4376   4.3346   2.6841   H         1 RES1   0.0000
    75 C6A     10.1964   4.6370   4.2417   C.ar      1 RES1   0.0000
    76 C7A      7.7086   7.9664   5.1102   C.ar      1 RES1   0.0000
    77 H5A      7.4410   8.2096   5.9669   H         1 RES1   0.0000
    78 C8A      7.6500   8.8981   4.1159   C.ar      1 RES1   0.0000
    79 H6A      7.3370   9.7561   4.2901   H         1 RES1   0.0000
    80 C9A      8.0623   8.5474   2.8465   C.ar      1 RES1   0.0000
    81 H7A      8.0052   9.1536   2.1431   H         1 RES1   0.0000
    82 C10A     8.5570   7.2897   2.6474   C.ar      1 RES1   0.0000
    83 H8A      8.8811   7.0364   1.8130   H         1 RES1   0.0000
    84 C11A     8.5665   6.4083   3.6928   C.ar      1 RES1   0.0000
    85 C12A     8.4063   4.2274   2.6409   C.ar      1 RES1   0.0000
    86 C13A     8.2274   2.3510   1.5169   C.ar      1 RES1   0.0000
    87 C14A     6.6615   3.8617   1.3296   C.ar      1 RES1   0.0000
    88 C15A     8.1526   0.3120   0.2987   C.ar      1 RES1   0.0000
    89 C16A     8.8046   0.0732  -0.8751   C.ar      1 RES1   0.0000
    90 H9A      9.5863   0.5301  -1.0860   H         1 RES1   0.0000
    91 C17A     8.2751  -0.8678  -1.7527   C.ar      1 RES1   0.0000
    92 H10A     8.6999  -1.0483  -2.5597   H         1 RES1   0.0000
    93 C18A     7.1092  -1.5343  -1.4108   C.ar      1 RES1   0.0000
    94 H11A     6.7604  -2.1797  -1.9833   H         1 RES1   0.0000
    95 C19A     6.4684  -1.2489  -0.2371   C.ar      1 RES1   0.0000
    96 H12A     5.6686  -1.6758  -0.0288   H         1 RES1   0.0000
    97 C20A     7.0044  -0.3297   0.6353   C.ar      1 RES1   0.0000
    98 H13A     6.5857  -0.1511   1.4462   H         1 RES1   0.0000
    99 C21A     4.6929   5.2485   1.2484   C.ar      1 RES1   0.0000
   100 C22A     4.6861   5.7486   2.5466   C.ar      1 RES1   0.0000
   101 H14A     5.2648   5.4118   3.1924   H         1 RES1   0.0000
   102 C23A     3.7983   6.7550   2.8479   C.ar      1 RES1   0.0000
   103 H15A     3.7568   7.0823   3.7177   H         1 RES1   0.0000
   104 C24A     2.9828   7.2786   1.9034   C.ar      1 RES1   0.0000
   105 H16A     2.4229   7.9910   2.1090   H         1 RES1   0.0000
   106 C25A     2.9897   6.7606   0.6655   C.ar      1 RES1   0.0000
   107 H17A     2.3985   7.0976   0.0314   H         1 RES1   0.0000
   108 C26A     3.8517   5.7390   0.3039   C.ar      1 RES1   0.0000
   109 H18A     3.8526   5.3973  -0.5607   H         1 RES1   0.0000
   110 Cl1     11.4845   8.4209   4.8717   Cl        2 RES2   0.0000
   111 Cl2     13.6994  10.1899   5.4128   Cl        2 RES2   0.0000
   112 C27     11.9604   9.8403   5.4337   C.3       2 RES2   0.0000
   113 H19     11.6510   9.9177   6.3494   H         2 RES2   0.0000
   114 H20     11.5111  10.5296   4.9202   H         2 RES2   0.0000
@<TRIPOS>BOND
     1     1     5    1
     2     2    12    2
     3     3    32    1
     4     4    33    1
     5     5    12    2
     6     6     1    1
     7     7     1    1
     8     8    21    1
     9     9    31   ar
    10    10    31   ar
    11    11    32   ar
    12    13     6   ar
    13    14    13    1
    14    15    13   ar
    15    16    15    1
    16    17    15   ar
    17    18    17    1
    18    19    17   ar
    19    20    19    1
    20    21     6   ar
    21    22     7   ar
    22    23    22    1
    23    24    22   ar
    24    25    24    1
    25    26    24   ar
    26    27    26    1
    27    28    26   ar
    28    29    28    1
    29    30     7   ar
    30    31     8    1
    31    32     9   ar
    32    33    10   ar
    33    34     3    1
    34    35    34   ar
    35    36    35    1
    36    37    35   ar
    37    38    37    1
    38    39    37   ar
    39    40    39    1
    40    41    39   ar
    41    42    41    1
    42    43    34   ar
    43    44    43    1
    44    45     4    1
    45    46    45   ar
    46    47    46    1
    47    48    46   ar
    48    49    48    1
    49    50    48   ar
    50    51    50    1
    51    52    50   ar
    52    53    52    1
    53    54    45   ar
    54    55    54    1
    55    56    66    2
    56    57    86    1
    57    58    87    1
    58    59     1    1
    59    60     1    1
    60    61     1    1
    61    62    75    1
    62    63    85   ar
    63    64    85   ar
    64    65    86   ar
    65    66    59    2
    66    67    60   ar
    67    68    67    1
    68    69    67   ar
    69    70    69    1
    70    71    69   ar
    71    72    71    1
    72    73    71   ar
    73    74    73    1
    74    75    60   ar
    75    76    61   ar
    76    77    76    1
    77    78    76   ar
    78    79    78    1
    79    80    78   ar
    80    81    80    1
    81    82    80   ar
    82    83    82    1
    83    84    61   ar
    84    85    62    1
    85    86    63   ar
    86    87    64   ar
    87    88    57    1
    88    89    88   ar
    89    90    89    1
    90    91    89   ar
    91    92    91    1
    92    93    91   ar
    93    94    93    1
    94    95    93   ar
    95    96    95    1
    96    97    88   ar
    97    98    97    1
    98    99    58    1
    99   100    99   ar
   100   101   100    1
   101   102   100   ar
   102   103   102    1
   103   104   102   ar
   104   105   104    1
   105   106   104   ar
   106   107   106    1
   107   108    99   ar
   108   109   108    1
   109     8    30    1
   110    11    33   ar
   111    19    21   ar
   112    28    30   ar
   113    41    43   ar
   114    52    54   ar
   115    62    84    1
   116    65    87   ar
   117    73    75   ar
   118    82    84   ar
   119    95    97   ar
   120   106   108   ar
   121   110   112    1
   122   111   112    1
   123   112   113    1
   124   114   112    1
@<TRIPOS>SUBSTRUCTURE
     1 RES1        1 GROUP             0 ****  ****    0  
     2 RES2      110 GROUP             0 ****  ****    0  
@<TRIPOS>CRYSIN
   10.3010   11.0444   13.2848   86.0330   80.4470   69.5560     2     1
