@<TRIPOS>MOLECULE
SEYDAD01
   115   125     2     0     0
SMALL
NO_CHARGES
****
Generated from the CSD

@<TRIPOS>ATOM
     1 Fe1      1.6010   4.8942   7.6646   Fe        1 RES1   0.0000
     2 S1      -0.2824   6.8243  11.5531   S.2       1 RES1   0.0000
     3 F1      -0.2222   6.5239  14.7013   F         1 RES1   0.0000
     4 F2      -0.8294   7.3834  17.1765   F         1 RES1   0.0000
     5 F3       0.3781   6.2907  19.3361   F         1 RES1   0.0000
     6 F4       2.2582   4.3818  19.0033   F         1 RES1   0.0000
     7 F5       2.9083   3.5286  16.5107   F         1 RES1   0.0000
     8 F6       6.3780   8.8841  13.2617   F         1 RES1   0.0000
     9 F7       7.6488  10.3082  11.3391   F         1 RES1   0.0000
    10 F8       6.2762  11.1639   9.1624   F         1 RES1   0.0000
    11 F9       3.6583  10.5658   8.8794   F         1 RES1   0.0000
    12 F10      2.3887   9.1455  10.7951   F         1 RES1   0.0000
    13 O1       1.6253   4.4722  14.3147   O.3       1 RES1   0.0000
    14 O2       3.7203   8.2962  13.0673   O.3       1 RES1   0.0000
    15 N1       0.8746   5.6644   9.2936   N.2       1 RES1   0.0000
    16 N2       3.3723   5.7346   7.9716   N.ar      1 RES1   0.0000
    17 N3       2.3209   3.3273   8.6552   N.ar      1 RES1   0.0000
    18 N4       3.4087   4.7902  10.1376   N.pl3     1 RES1   0.0000
    19 N5       2.5052   4.5819  12.2669   N.ar      1 RES1   0.0000
    20 N6       3.5924   6.5694  11.5728   N.ar      1 RES1   0.0000
    21 N7       2.6775   6.4342  13.7599   N.ar      1 RES1   0.0000
    22 C1       0.3837   6.1501  10.2269   C.1       1 RES1   0.0000
    23 C2       3.9870   6.4219   6.9852   C.ar      1 RES1   0.0000
    24 H1       3.5433   6.5104   6.1501   H         1 RES1   0.0000
    25 C3       5.2254   6.9995   7.1350   C.ar      1 RES1   0.0000
    26 H2       5.6113   7.5008   6.4260   H         1 RES1   0.0000
    27 C4       5.9039   6.8411   8.3329   C.ar      1 RES1   0.0000
    28 H3       6.7593   7.2344   8.4602   H         1 RES1   0.0000
    29 C5       5.3124   6.0983   9.3414   C.ar      1 RES1   0.0000
    30 H4       5.7644   5.9492  10.1632   H         1 RES1   0.0000
    31 C6       4.0446   5.5774   9.1228   C.ar      1 RES1   0.0000
    32 C7       2.1004   2.0675   8.2097   C.ar      1 RES1   0.0000
    33 H5       1.6538   1.9487   7.3795   H         1 RES1   0.0000
    34 C8       2.4973   0.9522   8.9147   C.ar      1 RES1   0.0000
    35 H6       2.3282   0.0817   8.5736   H         1 RES1   0.0000
    36 C9       3.1458   1.1159  10.1235   C.ar      1 RES1   0.0000
    37 H7       3.3917   0.3592  10.6430   H         1 RES1   0.0000
    38 C10      3.4320   2.3891  10.5659   C.ar      1 RES1   0.0000
    39 H8       3.8980   2.5281  11.3819   H         1 RES1   0.0000
    40 C11      3.0218   3.4650   9.7889   C.ar      1 RES1   0.0000
    41 C12      3.1627   5.3183  11.3745   C.ar      1 RES1   0.0000
    42 C13      2.3061   5.2206  13.4047   C.ar      1 RES1   0.0000
    43 C14      3.3145   7.0349  12.7652   C.ar      1 RES1   0.0000
    44 C15      1.3669   5.0250  15.5548   C.ar      1 RES1   0.0000
    45 C16      0.4099   6.0009  15.7444   C.ar      1 RES1   0.0000
    46 C17      0.0864   6.4314  17.0059   C.ar      1 RES1   0.0000
    47 C18      0.6956   5.8668  18.1059   C.ar      1 RES1   0.0000
    48 C19      1.6423   4.8930  17.9337   C.ar      1 RES1   0.0000
    49 C20      1.9767   4.4774  16.6651   C.ar      1 RES1   0.0000
    50 C21      4.3684   8.9776  12.0483   C.ar      1 RES1   0.0000
    51 C22      5.7032   9.2816  12.1815   C.ar      1 RES1   0.0000
    52 C23      6.3553  10.0173  11.2067   C.ar      1 RES1   0.0000
    53 C24      5.6621  10.4356  10.0989   C.ar      1 RES1   0.0000
    54 C25      4.3308  10.1397   9.9591   C.ar      1 RES1   0.0000
    55 C26      3.6859   9.4145  10.9318   C.ar      1 RES1   0.0000
    56 S1A      3.4844   2.9641   3.7760   S.2       1 RES1   0.0000
    57 F1A      3.4242   3.2645   0.6279   F         1 RES1   0.0000
    58 F2A      4.0313   2.4050  -1.8473   F         1 RES1   0.0000
    59 F3A      2.8239   3.4977  -4.0069   F         1 RES1   0.0000
    60 F4A      0.9437   5.4066  -3.6741   F         1 RES1   0.0000
    61 F5A      0.2936   6.2598  -1.1816   F         1 RES1   0.0000
    62 F6A     -3.1760   0.9043   2.0674   F         1 RES1   0.0000
    63 F7A     -4.4469  -0.5198   3.9900   F         1 RES1   0.0000
    64 F8A     -3.0743  -1.3755   6.1668   F         1 RES1   0.0000
    65 F9A     -0.4564  -0.7774   6.4497   F         1 RES1   0.0000
    66 F10A     0.8133   0.6429   4.5341   F         1 RES1   0.0000
    67 O1A      1.5767   5.3162   1.0145   O.3       1 RES1   0.0000
    68 O2A     -0.5184   1.4921   2.2618   O.3       1 RES1   0.0000
    69 N1A      2.3273   4.1240   6.0356   N.2       1 RES1   0.0000
    70 N2A     -0.1703   4.0538   7.3575   N.ar      1 RES1   0.0000
    71 N3A      0.8811   6.4611   6.6740   N.ar      1 RES1   0.0000
    72 N4A     -0.2068   4.9982   5.1915   N.pl3     1 RES1   0.0000
    73 N5A      0.6967   5.2065   3.0623   N.ar      1 RES1   0.0000
    74 N6A     -0.3905   3.2190   3.7564   N.ar      1 RES1   0.0000
    75 N7A      0.5245   3.3541   1.5692   N.ar      1 RES1   0.0000
    76 C1A      2.8182   3.6382   5.1023   C.1       1 RES1   0.0000
    77 C2A     -0.7851   3.3664   8.3440   C.ar      1 RES1   0.0000
    78 H1A     -0.3413   3.2780   9.1791   H         1 RES1   0.0000
    79 C3A     -2.0235   2.7888   8.1942   C.ar      1 RES1   0.0000
    80 H2A     -2.4094   2.2876   8.9032   H         1 RES1   0.0000
    81 C4A     -2.7020   2.9473   6.9962   C.ar      1 RES1   0.0000
    82 H3A     -3.5574   2.5540   6.8690   H         1 RES1   0.0000
    83 C5A     -2.1105   3.6901   5.9877   C.ar      1 RES1   0.0000
    84 H4A     -2.5624   3.8392   5.1659   H         1 RES1   0.0000
    85 C6A     -0.8427   4.2110   6.2063   C.ar      1 RES1   0.0000
    86 C7A      1.1015   7.7208   7.1195   C.ar      1 RES1   0.0000
    87 H5A      1.5481   7.8397   7.9497   H         1 RES1   0.0000
    88 C8A      0.7046   8.8362   6.4145   C.ar      1 RES1   0.0000
    89 H6A      0.8738   9.7067   6.7556   H         1 RES1   0.0000
    90 C9A      0.0562   8.6725   5.2056   C.ar      1 RES1   0.0000
    91 H7A     -0.1898   9.4291   4.6861   H         1 RES1   0.0000
    92 C10A    -0.2301   7.3992   4.7632   C.ar      1 RES1   0.0000
    93 H8A     -0.6960   7.2603   3.9473   H         1 RES1   0.0000
    94 C11A     0.1802   6.3234   5.5403   C.ar      1 RES1   0.0000
    95 C12A     0.0393   4.4701   3.9546   C.ar      1 RES1   0.0000
    96 C13A     0.8959   4.5677   1.9244   C.ar      1 RES1   0.0000
    97 C14A    -0.1125   2.7535   2.5640   C.ar      1 RES1   0.0000
    98 C15A     1.8350   4.7634  -0.2256   C.ar      1 RES1   0.0000
    99 C16A     2.7921   3.7875  -0.4153   C.ar      1 RES1   0.0000
   100 C17A     3.1155   3.3570  -1.6767   C.ar      1 RES1   0.0000
   101 C18A     2.5064   3.9215  -2.7767   C.ar      1 RES1   0.0000
   102 C19A     1.5596   4.8954  -2.6046   C.ar      1 RES1   0.0000
   103 C20A     1.2252   5.3110  -1.3359   C.ar      1 RES1   0.0000
   104 C21A    -1.1664   0.8108   3.2809   C.ar      1 RES1   0.0000
   105 C22A    -2.5013   0.5068   3.1477   C.ar      1 RES1   0.0000
   106 C23A    -3.1534  -0.2289   4.1225   C.ar      1 RES1   0.0000
   107 C24A    -2.4602  -0.6472   5.2303   C.ar      1 RES1   0.0000
   108 C25A    -1.1289  -0.3513   5.3701   C.ar      1 RES1   0.0000
   109 C26A    -0.4839   0.3739   4.3973   C.ar      1 RES1   0.0000
   110 N8       4.7413   0.4682  13.1892   N.1       2 RES2   0.0000
   111 C27      4.0253  -0.2615  13.7165   C.1       2 RES2   0.0000
   112 C28      3.1300  -1.2149  14.3573   C.3       2 RES2   0.0000
   113 H9       2.6894  -1.7606  13.6721   H         2 RES2   0.0000
   114 H10      2.4543  -0.7308  14.8739   H         2 RES2   0.0000
   115 H11      3.6455  -1.7960  14.9551   H         2 RES2   0.0000
@<TRIPOS>BOND
     1     1    15    1
     2     2    22    2
     3     3    45    1
     4     4    46    1
     5     5    47    1
     6     6    48    1
     7     7    49    1
     8     8    51    1
     9     9    52    1
    10    10    53    1
    11    11    54    1
    12    12    55    1
    13    13    42    1
    14    14    43    1
    15    15    22    2
    16    16     1    1
    17    17     1    1
    18    18    31    1
    19    19    41   ar
    20    20    41   ar
    21    21    42   ar
    22    23    16   ar
    23    24    23    1
    24    25    23   ar
    25    26    25    1
    26    27    25   ar
    27    28    27    1
    28    29    27   ar
    29    30    29    1
    30    31    16   ar
    31    32    17   ar
    32    33    32    1
    33    34    32   ar
    34    35    34    1
    35    36    34   ar
    36    37    36    1
    37    38    36   ar
    38    39    38    1
    39    40    17   ar
    40    41    18    1
    41    42    19   ar
    42    43    20   ar
    43    44    13    1
    44    45    44   ar
    45    46    45   ar
    46    47    46   ar
    47    48    47   ar
    48    49    44   ar
    49    50    14    1
    50    51    50   ar
    51    52    51   ar
    52    53    52   ar
    53    54    53   ar
    54    55    50   ar
    55    56    76    2
    56    57    99    1
    57    58   100    1
    58    59   101    1
    59    60   102    1
    60    61   103    1
    61    62   105    1
    62    63   106    1
    63    64   107    1
    64    65   108    1
    65    66   109    1
    66    67    96    1
    67    68    97    1
    68    69     1    1
    69    70     1    1
    70    71     1    1
    71    72    85    1
    72    73    95   ar
    73    74    95   ar
    74    75    96   ar
    75    76    69    2
    76    77    70   ar
    77    78    77    1
    78    79    77   ar
    79    80    79    1
    80    81    79   ar
    81    82    81    1
    82    83    81   ar
    83    84    83    1
    84    85    70   ar
    85    86    71   ar
    86    87    86    1
    87    88    86   ar
    88    89    88    1
    89    90    88   ar
    90    91    90    1
    91    92    90   ar
    92    93    92    1
    93    94    71   ar
    94    95    72    1
    95    96    73   ar
    96    97    74   ar
    97    98    67    1
    98    99    98   ar
    99   100    99   ar
   100   101   100   ar
   101   102   101   ar
   102   103    98   ar
   103   104    68    1
   104   105   104   ar
   105   106   105   ar
   106   107   106   ar
   107   108   107   ar
   108   109   104   ar
   109    18    40    1
   110    21    43   ar
   111    29    31   ar
   112    38    40   ar
   113    48    49   ar
   114    54    55   ar
   115    72    94    1
   116    75    97   ar
   117    83    85   ar
   118    92    94   ar
   119   102   103   ar
   120   108   109   ar
   121   110   111    3
   122   111   112    1
   123   112   113    1
   124   114   112    1
   125   115   112    1
@<TRIPOS>SUBSTRUCTURE
     1 RES1        1 GROUP             0 ****  ****    0  
     2 RES2      110 GROUP             0 ****  ****    0  
@<TRIPOS>CRYSIN
    8.4120   11.4159   15.7570   93.2930  102.2240   99.4470     2     1
