@<TRIPOS>MOLECULE
SEYDUX01
   114   124     2     0     0
SMALL
NO_CHARGES
****
Generated from the CSD

@<TRIPOS>ATOM
     1 Fe1      8.1662   5.2908   6.5013   Fe        1 RES1   0.0000
     2 S1       5.5186   1.9961   4.1811   S.2       1 RES1   0.0000
     3 O1       7.5821   9.4173  11.8013   O.3       1 RES1   0.0000
     4 O2      10.9352   6.4232  12.1923   O.3       1 RES1   0.0000
     5 N1       7.0775   3.9215   5.4308   N.2       1 RES1   0.0000
     6 N2       6.3263   5.9088   7.4551   N.ar      1 RES1   0.0000
     7 N3       8.2388   3.8692   8.1112   N.ar      1 RES1   0.0000
     8 N4       7.3118   5.4960   9.5398   N.pl3     1 RES1   0.0000
     9 N5       7.4498   7.5421  10.6181   N.ar      1 RES1   0.0000
    10 N6       9.1202   5.8749  10.8941   N.ar      1 RES1   0.0000
    11 N7       9.2786   7.9051  12.1018   N.ar      1 RES1   0.0000
    12 C1       6.4192   3.1198   4.9324   C.1       1 RES1   0.0000
    13 C2       5.2551   6.2519   6.7094   C.ar      1 RES1   0.0000
    14 H1       5.3272   6.2077   5.7732   H         1 RES1   0.0000
    15 C3       4.0672   6.6603   7.2542   C.ar      1 RES1   0.0000
    16 H2       3.3466   6.9056   6.7028   H         1 RES1   0.0000
    17 C4       3.9502   6.7014   8.6181   C.ar      1 RES1   0.0000
    18 H3       3.1486   6.9922   9.0147   H         1 RES1   0.0000
    19 C5       5.0184   6.3141   9.4113   C.ar      1 RES1   0.0000
    20 H4       4.9509   6.3089  10.3488   H         1 RES1   0.0000
    21 C6       6.1854   5.9368   8.7796   C.ar      1 RES1   0.0000
    22 C7       8.6741   2.6144   7.9095   C.ar      1 RES1   0.0000
    23 H5       8.9345   2.3648   7.0422   H         1 RES1   0.0000
    24 C8       8.7570   1.6818   8.9120   C.ar      1 RES1   0.0000
    25 H6       9.0840   0.8182   8.7352   H         1 RES1   0.0000
    26 C9       8.3563   2.0287  10.1771   C.ar      1 RES1   0.0000
    27 H7       8.4187   1.4119  10.8845   H         1 RES1   0.0000
    28 C10      7.8595   3.2959  10.3940   C.ar      1 RES1   0.0000
    29 H8       7.5537   3.5524  11.2447   H         1 RES1   0.0000
    30 C11      7.8215   4.1794   9.3337   C.ar      1 RES1   0.0000
    31 C12      7.9767   6.3461  10.3848   C.ar      1 RES1   0.0000
    32 C13      8.1463   8.2413  11.5091   C.ar      1 RES1   0.0000
    33 C14      9.7203   6.7212  11.6868   C.ar      1 RES1   0.0000
    34 C15      8.2114  10.2654  12.7227   C.ar      1 RES1   0.0000
    35 C16      7.5666  10.5106  13.9037   C.ar      1 RES1   0.0000
    36 H9       6.7773  10.0468  14.1208   H         1 RES1   0.0000
    37 C17      8.0910  11.4513  14.7775   C.ar      1 RES1   0.0000
    38 H10      7.6545  11.6410  15.5875   H         1 RES1   0.0000
    39 C18      9.2629  12.1082  14.4433   C.ar      1 RES1   0.0000
    40 H11      9.6217  12.7501  15.0297   H         1 RES1   0.0000
    41 C19      9.9059  11.8301  13.2627   C.ar      1 RES1   0.0000
    42 H12     10.7137  12.2663  13.0572   H         1 RES1   0.0000
    43 C20      9.3739  10.9138  12.3759   C.ar      1 RES1   0.0000
    44 H13      9.7971  10.7373  11.5554   H         1 RES1   0.0000
    45 C21     11.6964   5.3469  11.7531   C.ar      1 RES1   0.0000
    46 C22     11.7013   4.8452  10.4697   C.ar      1 RES1   0.0000
    47 H14     11.1230   5.1944   9.8157   H         1 RES1   0.0000
    48 C23     12.5758   3.8170  10.1641   C.ar      1 RES1   0.0000
    49 H15     12.5876   3.4603   9.2943   H         1 RES1   0.0000
    50 C24     13.4300   3.3118  11.1211   C.ar      1 RES1   0.0000
    51 H16     14.0113   2.6039  10.9118   H         1 RES1   0.0000
    52 C25     13.4206   3.8402  12.3512   C.ar      1 RES1   0.0000
    53 H17     14.0091   3.5033  13.0026   H         1 RES1   0.0000
    54 C26     12.5596   4.8761  12.6828   C.ar      1 RES1   0.0000
    55 H18     12.5754   5.2471  13.5461   H         1 RES1   0.0000
    56 S1A     10.8138   8.5854   8.8215   S.2       1 RES1   0.0000
    57 O1A      8.7503   1.1642   1.2013   O.3       1 RES1   0.0000
    58 O2A      5.3971   4.1583   0.8103   O.3       1 RES1   0.0000
    59 N1A      9.2549   6.6600   7.5718   N.2       1 RES1   0.0000
    60 N2A     10.0061   4.6727   5.5476   N.ar      1 RES1   0.0000
    61 N3A      8.0936   6.7123   4.8915   N.ar      1 RES1   0.0000
    62 N4A      9.0206   5.0855   3.4629   N.pl3     1 RES1   0.0000
    63 N5A      8.8825   3.0394   2.3846   N.ar      1 RES1   0.0000
    64 N6A      7.2121   4.7066   2.1085   N.ar      1 RES1   0.0000
    65 N7A      7.0538   2.6765   0.9008   N.ar      1 RES1   0.0000
    66 C1A      9.9132   7.4617   8.0702   C.1       1 RES1   0.0000
    67 C2A     11.0773   4.3296   6.2933   C.ar      1 RES1   0.0000
    68 H1A     11.0052   4.3738   7.2295   H         1 RES1   0.0000
    69 C3A     12.2651   3.9212   5.7485   C.ar      1 RES1   0.0000
    70 H2A     12.9858   3.6759   6.2998   H         1 RES1   0.0000
    71 C4A     12.3822   3.8801   4.3845   C.ar      1 RES1   0.0000
    72 H3A     13.1838   3.5893   3.9879   H         1 RES1   0.0000
    73 C5A     11.3140   4.2674   3.5913   C.ar      1 RES1   0.0000
    74 H4A     11.3815   4.2727   2.6538   H         1 RES1   0.0000
    75 C6A     10.1470   4.6447   4.2230   C.ar      1 RES1   0.0000
    76 C7A      7.6582   7.9671   5.0931   C.ar      1 RES1   0.0000
    77 H5A      7.3978   8.2167   5.9604   H         1 RES1   0.0000
    78 C8A      7.5754   8.8997   4.0906   C.ar      1 RES1   0.0000
    79 H6A      7.2484   9.7633   4.2675   H         1 RES1   0.0000
    80 C9A      7.9760   8.5528   2.8255   C.ar      1 RES1   0.0000
    81 H7A      7.9137   9.1696   2.1181   H         1 RES1   0.0000
    82 C10A     8.4729   7.2856   2.6086   C.ar      1 RES1   0.0000
    83 H8A      8.7786   7.0292   1.7580   H         1 RES1   0.0000
    84 C11A     8.5109   6.4022   3.6689   C.ar      1 RES1   0.0000
    85 C12A     8.3556   4.2354   2.6178   C.ar      1 RES1   0.0000
    86 C13A     8.1861   2.3402   1.4935   C.ar      1 RES1   0.0000
    87 C14A     6.6121   3.8603   1.3159   C.ar      1 RES1   0.0000
    88 C15A     8.1210   0.3161   0.2799   C.ar      1 RES1   0.0000
    89 C16A     8.7657   0.0709  -0.9011   C.ar      1 RES1   0.0000
    90 H9A      9.5550   0.5347  -1.1182   H         1 RES1   0.0000
    91 C17A     8.2414  -0.8698  -1.7749   C.ar      1 RES1   0.0000
    92 H10A     8.6778  -1.0595  -2.5849   H         1 RES1   0.0000
    93 C18A     7.0695  -1.5267  -1.4407   C.ar      1 RES1   0.0000
    94 H11A     6.7107  -2.1686  -2.0271   H         1 RES1   0.0000
    95 C19A     6.4265  -1.2485  -0.2601   C.ar      1 RES1   0.0000
    96 H12A     5.6187  -1.6848  -0.0546   H         1 RES1   0.0000
    97 C20A     6.9585  -0.3323   0.6267   C.ar      1 RES1   0.0000
    98 H13A     6.5353  -0.1558   1.4472   H         1 RES1   0.0000
    99 C21A     4.6360   5.2346   1.2496   C.ar      1 RES1   0.0000
   100 C22A     4.6311   5.7363   2.5329   C.ar      1 RES1   0.0000
   101 H14A     5.2093   5.3871   3.1869   H         1 RES1   0.0000
   102 C23A     3.7566   6.7645   2.8385   C.ar      1 RES1   0.0000
   103 H15A     3.7448   7.1212   3.7083   H         1 RES1   0.0000
   104 C24A     2.9024   7.2697   1.8815   C.ar      1 RES1   0.0000
   105 H16A     2.3211   7.9776   2.0908   H         1 RES1   0.0000
   106 C25A     2.9118   6.7413   0.6514   C.ar      1 RES1   0.0000
   107 H17A     2.3233   7.0782   0.0000   H         1 RES1   0.0000
   108 C26A     3.7728   5.7054   0.3199   C.ar      1 RES1   0.0000
   109 H18A     3.7569   5.3344  -0.5435   H         1 RES1   0.0000
   110 Cl1     11.3855   8.4412   4.8336   Cl        2 RES2   0.0000
   111 Cl2     13.6556  10.1744   5.4078   Cl        2 RES2   0.0000
   112 C27     11.8858   9.8889   5.3935   C.3       2 RES2   0.0000
   113 H19     11.5533   9.9944   6.3102   H         2 RES2   0.0000
   114 H20     11.4681  10.5885   4.8500   H         2 RES2   0.0000
@<TRIPOS>BOND
     1     1     5    1
     2     2    12    2
     3     3    32    1
     4     4    33    1
     5     5    12    2
     6     6     1    1
     7     7     1    1
     8     8    21    1
     9     9    31   ar
    10    10    31   ar
    11    11    32   ar
    12    13     6   ar
    13    14    13    1
    14    15    13   ar
    15    16    15    1
    16    17    15   ar
    17    18    17    1
    18    19    17   ar
    19    20    19    1
    20    21     6   ar
    21    22     7   ar
    22    23    22    1
    23    24    22   ar
    24    25    24    1
    25    26    24   ar
    26    27    26    1
    27    28    26   ar
    28    29    28    1
    29    30     7   ar
    30    31     8    1
    31    32     9   ar
    32    33    10   ar
    33    34     3    1
    34    35    34   ar
    35    36    35    1
    36    37    35   ar
    37    38    37    1
    38    39    37   ar
    39    40    39    1
    40    41    39   ar
    41    42    41    1
    42    43    34   ar
    43    44    43    1
    44    45     4    1
    45    46    45   ar
    46    47    46    1
    47    48    46   ar
    48    49    48    1
    49    50    48   ar
    50    51    50    1
    51    52    50   ar
    52    53    52    1
    53    54    45   ar
    54    55    54    1
    55    56    66    2
    56    57    86    1
    57    58    87    1
    58    59     1    1
    59    60     1    1
    60    61     1    1
    61    62    75    1
    62    63    85   ar
    63    64    85   ar
    64    65    86   ar
    65    66    59    2
    66    67    60   ar
    67    68    67    1
    68    69    67   ar
    69    70    69    1
    70    71    69   ar
    71    72    71    1
    72    73    71   ar
    73    74    73    1
    74    75    60   ar
    75    76    61   ar
    76    77    76    1
    77    78    76   ar
    78    79    78    1
    79    80    78   ar
    80    81    80    1
    81    82    80   ar
    82    83    82    1
    83    84    61   ar
    84    85    62    1
    85    86    63   ar
    86    87    64   ar
    87    88    57    1
    88    89    88   ar
    89    90    89    1
    90    91    89   ar
    91    92    91    1
    92    93    91   ar
    93    94    93    1
    94    95    93   ar
    95    96    95    1
    96    97    88   ar
    97    98    97    1
    98    99    58    1
    99   100    99   ar
   100   101   100    1
   101   102   100   ar
   102   103   102    1
   103   104   102   ar
   104   105   104    1
   105   106   104   ar
   106   107   106    1
   107   108    99   ar
   108   109   108    1
   109     8    30    1
   110    11    33   ar
   111    19    21   ar
   112    28    30   ar
   113    41    43   ar
   114    52    54   ar
   115    62    84    1
   116    65    87   ar
   117    73    75   ar
   118    82    84   ar
   119    95    97   ar
   120   106   108   ar
   121   110   112    1
   122   111   112    1
   123   112   113    1
   124   114   112    1
@<TRIPOS>SUBSTRUCTURE
     1 RES1        1 GROUP             0 ****  ****    0  
     2 RES2      110 GROUP             0 ****  ****    0  
@<TRIPOS>CRYSIN
   10.2386   10.9671   13.2109   85.3750   79.8890   69.8690     2     1
