@<TRIPOS>MOLECULE
SEYDUX02
   114   124     2     0     0
SMALL
NO_CHARGES
****
Generated from the CSD

@<TRIPOS>ATOM
     1 Fe1      8.1790   5.4312   6.3649   Fe        1 RES1   0.0000
     2 S1       5.5386   2.1510   4.1933   S.2       1 RES1   0.0000
     3 O1       7.6696   9.6950  11.5687   O.3       1 RES1   0.0000
     4 O2      11.0792   6.7522  11.9377   O.3       1 RES1   0.0000
     5 N1       7.1559   4.0998   5.3871   N.2       1 RES1   0.0000
     6 N2       6.4679   6.0249   7.1931   N.ar      1 RES1   0.0000
     7 N3       8.3150   4.1276   7.8503   N.ar      1 RES1   0.0000
     8 N4       7.4382   5.7586   9.3115   N.pl3     1 RES1   0.0000
     9 N5       7.5629   7.8178  10.3738   N.ar      1 RES1   0.0000
    10 N6       9.2478   6.1614  10.6671   N.ar      1 RES1   0.0000
    11 N7       9.3975   8.2059  11.8621   N.ar      1 RES1   0.0000
    12 C1       6.4738   3.2893   4.9124   C.1       1 RES1   0.0000
    13 C2       5.3880   6.3044   6.4283   C.ar      1 RES1   0.0000
    14 H1       5.4493   6.1628   5.4903   H         1 RES1   0.0000
    15 C3       4.2028   6.7852   6.9439   C.ar      1 RES1   0.0000
    16 H2       3.4738   6.9899   6.3700   H         1 RES1   0.0000
    17 C4       4.0935   6.9638   8.3167   C.ar      1 RES1   0.0000
    18 H3       3.2926   7.3049   8.6970   H         1 RES1   0.0000
    19 C5       5.1689   6.6366   9.1221   C.ar      1 RES1   0.0000
    20 H4       5.1136   6.7296  10.0654   H         1 RES1   0.0000
    21 C6       6.3338   6.1701   8.5231   C.ar      1 RES1   0.0000
    22 C7       8.7497   2.8596   7.6399   C.ar      1 RES1   0.0000
    23 H5       8.9548   2.5925   6.7519   H         1 RES1   0.0000
    24 C8       8.9075   1.9417   8.6534   C.ar      1 RES1   0.0000
    25 H6       9.2305   1.0683   8.4665   H         1 RES1   0.0000
    26 C9       8.5849   2.3126   9.9534   C.ar      1 RES1   0.0000
    27 H7       8.7120   1.7087  10.6764   H         1 RES1   0.0000
    28 C10      8.0758   3.5819  10.1713   C.ar      1 RES1   0.0000
    29 H8       7.8067   3.8522  11.0418   H         1 RES1   0.0000
    30 C11      7.9679   4.4490   9.0987   C.ar      1 RES1   0.0000
    31 C12      8.1000   6.6202  10.1553   C.ar      1 RES1   0.0000
    32 C13      8.2515   8.5301  11.2657   C.ar      1 RES1   0.0000
    33 C14      9.8534   7.0254  11.4454   C.ar      1 RES1   0.0000
    34 C15      8.2954  10.5505  12.4870   C.ar      1 RES1   0.0000
    35 C16      7.6472  10.7877  13.6798   C.ar      1 RES1   0.0000
    36 H9       6.8550  10.3125  13.9009   H         1 RES1   0.0000
    37 C17      8.1702  11.7346  14.5547   C.ar      1 RES1   0.0000
    38 H10      7.7244  11.9291  15.3712   H         1 RES1   0.0000
    39 C18      9.3537  12.3978  14.2279   C.ar      1 RES1   0.0000
    40 H11      9.7176  13.0410  14.8250   H         1 RES1   0.0000
    41 C19      9.9986  12.1195  13.0347   C.ar      1 RES1   0.0000
    42 H12     10.8147  12.5595  12.8278   H         1 RES1   0.0000
    43 C20      9.4656  11.2044  12.1392   C.ar      1 RES1   0.0000
    44 H13      9.8916  11.0310  11.3078   H         1 RES1   0.0000
    45 C21     11.8498   5.6778  11.5090   C.ar      1 RES1   0.0000
    46 C22     11.8365   5.1369  10.2309   C.ar      1 RES1   0.0000
    47 H14     11.2382   5.4645   9.5689   H         1 RES1   0.0000
    48 C23     12.7196   4.1051   9.9432   C.ar      1 RES1   0.0000
    49 H15     12.7086   3.7082   9.0801   H         1 RES1   0.0000
    50 C24     13.6155   3.6466  10.8916   C.ar      1 RES1   0.0000
    51 H16     14.2153   2.9409  10.6790   H         1 RES1   0.0000
    52 C25     13.6322   4.2142  12.1365   C.ar      1 RES1   0.0000
    53 H17     14.2464   3.9015  12.7908   H         1 RES1   0.0000
    54 C26     12.7548   5.2484  12.4496   C.ar      1 RES1   0.0000
    55 H18     12.7811   5.6542  13.3077   H         1 RES1   0.0000
    56 S1A     10.8195   8.7114   8.5364   S.2       1 RES1   0.0000
    57 O1A      8.6884   1.1674   1.1611   O.3       1 RES1   0.0000
    58 O2A      5.2789   4.1101   0.7920   O.3       1 RES1   0.0000
    59 N1A      9.2022   6.7625   7.3426   N.2       1 RES1   0.0000
    60 N2A      9.8902   4.8375   5.5367   N.ar      1 RES1   0.0000
    61 N3A      8.0430   6.7348   4.8794   N.ar      1 RES1   0.0000
    62 N4A      8.9199   5.1038   3.4182   N.pl3     1 RES1   0.0000
    63 N5A      8.7952   3.0446   2.3559   N.ar      1 RES1   0.0000
    64 N6A      7.1103   4.7010   2.0626   N.ar      1 RES1   0.0000
    65 N7A      6.9605   2.6565   0.8677   N.ar      1 RES1   0.0000
    66 C1A      9.8843   7.5731   7.8173   C.1       1 RES1   0.0000
    67 C2A     10.9701   4.5580   6.3015   C.ar      1 RES1   0.0000
    68 H1A     10.9088   4.6996   7.2394   H         1 RES1   0.0000
    69 C3A     12.1553   4.0772   5.7858   C.ar      1 RES1   0.0000
    70 H2A     12.8842   3.8725   6.3598   H         1 RES1   0.0000
    71 C4A     12.2646   3.8986   4.4130   C.ar      1 RES1   0.0000
    72 H3A     13.0654   3.5575   4.0328   H         1 RES1   0.0000
    73 C5A     11.1891   4.2258   3.6076   C.ar      1 RES1   0.0000
    74 H4A     11.2444   4.1328   2.6643   H         1 RES1   0.0000
    75 C6A     10.0243   4.6923   4.2067   C.ar      1 RES1   0.0000
    76 C7A      7.6083   8.0028   5.0899   C.ar      1 RES1   0.0000
    77 H5A      7.4032   8.2699   5.9779   H         1 RES1   0.0000
    78 C8A      7.4506   8.9206   4.0763   C.ar      1 RES1   0.0000
    79 H6A      7.1276   9.7940   4.2632   H         1 RES1   0.0000
    80 C9A      7.7731   8.5498   2.7764   C.ar      1 RES1   0.0000
    81 H7A      7.6461   9.1537   2.0533   H         1 RES1   0.0000
    82 C10A     8.2822   7.2805   2.5584   C.ar      1 RES1   0.0000
    83 H8A      8.5513   7.0101   1.6880   H         1 RES1   0.0000
    84 C11A     8.3902   6.4133   3.6310   C.ar      1 RES1   0.0000
    85 C12A     8.2580   4.2422   2.5745   C.ar      1 RES1   0.0000
    86 C13A     8.1065   2.3322   1.4640   C.ar      1 RES1   0.0000
    87 C14A     6.5046   3.8369   1.2843   C.ar      1 RES1   0.0000
    88 C15A     8.0627   0.3119   0.2428   C.ar      1 RES1   0.0000
    89 C16A     8.7108   0.0746  -0.9500   C.ar      1 RES1   0.0000
    90 H9A      9.5031   0.5499  -1.1711   H         1 RES1   0.0000
    91 C17A     8.1879  -0.8723  -1.8249   C.ar      1 RES1   0.0000
    92 H10A     8.6337  -1.0668  -2.6414   H         1 RES1   0.0000
    93 C18A     7.0043  -1.5354  -1.4982   C.ar      1 RES1   0.0000
    94 H11A     6.6405  -2.1786  -2.0953   H         1 RES1   0.0000
    95 C19A     6.3595  -1.2571  -0.3050   C.ar      1 RES1   0.0000
    96 H12A     5.5434  -1.6972  -0.0980   H         1 RES1   0.0000
    97 C20A     6.8924  -0.3420   0.5905   C.ar      1 RES1   0.0000
    98 H13A     6.4664  -0.1687   1.4219   H         1 RES1   0.0000
    99 C21A     4.5082   5.1846   1.2208   C.ar      1 RES1   0.0000
   100 C22A     4.5215   5.7255   2.4988   C.ar      1 RES1   0.0000
   101 H14A     5.1198   5.3979   3.1608   H         1 RES1   0.0000
   102 C23A     3.6385   6.7573   2.7865   C.ar      1 RES1   0.0000
   103 H15A     3.6495   7.1541   3.6496   H         1 RES1   0.0000
   104 C24A     2.7426   7.2158   1.8382   C.ar      1 RES1   0.0000
   105 H16A     2.1427   7.9215   2.0508   H         1 RES1   0.0000
   106 C25A     2.7259   6.6481   0.5932   C.ar      1 RES1   0.0000
   107 H17A     2.1117   6.9608  -0.0611   H         1 RES1   0.0000
   108 C26A     3.6033   5.6140   0.2802   C.ar      1 RES1   0.0000
   109 H18A     3.5769   5.2082  -0.5779   H         1 RES1   0.0000
   110 Cl1     11.2224   8.6257   4.6456   Cl        2 RES2   0.0000
   111 Cl2     13.5551  10.2290   5.3591   Cl        2 RES2   0.0000
   112 C27     11.7996  10.1707   5.2472   C.3       2 RES2   0.0000
   113 H19     11.4105  10.3366   6.1421   H         2 RES2   0.0000
   114 H20     11.4884  10.8908   4.6425   H         2 RES2   0.0000
@<TRIPOS>BOND
     1     1     5    1
     2     2    12    2
     3     3    32    1
     4     4    33    1
     5     5    12    2
     6     6     1    1
     7     7     1    1
     8     8    21    1
     9     9    31   ar
    10    10    31   ar
    11    11    32   ar
    12    13     6   ar
    13    14    13    1
    14    15    13   ar
    15    16    15    1
    16    17    15   ar
    17    18    17    1
    18    19    17   ar
    19    20    19    1
    20    21     6   ar
    21    22     7   ar
    22    23    22    1
    23    24    22   ar
    24    25    24    1
    25    26    24   ar
    26    27    26    1
    27    28    26   ar
    28    29    28    1
    29    30     7   ar
    30    31     8    1
    31    32     9   ar
    32    33    10   ar
    33    34     3    1
    34    35    34   ar
    35    36    35    1
    36    37    35   ar
    37    38    37    1
    38    39    37   ar
    39    40    39    1
    40    41    39   ar
    41    42    41    1
    42    43    34   ar
    43    44    43    1
    44    45     4    1
    45    46    45   ar
    46    47    46    1
    47    48    46   ar
    48    49    48    1
    49    50    48   ar
    50    51    50    1
    51    52    50   ar
    52    53    52    1
    53    54    45   ar
    54    55    54    1
    55    56    66    2
    56    57    86    1
    57    58    87    1
    58    59     1    1
    59    60     1    1
    60    61     1    1
    61    62    75    1
    62    63    85   ar
    63    64    85   ar
    64    65    86   ar
    65    66    59    2
    66    67    60   ar
    67    68    67    1
    68    69    67   ar
    69    70    69    1
    70    71    69   ar
    71    72    71    1
    72    73    71   ar
    73    74    73    1
    74    75    60   ar
    75    76    61   ar
    76    77    76    1
    77    78    76   ar
    78    79    78    1
    79    80    78   ar
    80    81    80    1
    81    82    80   ar
    82    83    82    1
    83    84    61   ar
    84    85    62    1
    85    86    63   ar
    86    87    64   ar
    87    88    57    1
    88    89    88   ar
    89    90    89    1
    90    91    89   ar
    91    92    91    1
    92    93    91   ar
    93    94    93    1
    94    95    93   ar
    95    96    95    1
    96    97    88   ar
    97    98    97    1
    98    99    58    1
    99   100    99   ar
   100   101   100    1
   101   102   100   ar
   102   103   102    1
   103   104   102   ar
   104   105   104    1
   105   106   104   ar
   106   107   106    1
   107   108    99   ar
   108   109   108    1
   109     8    30    1
   110    11    33   ar
   111    19    21   ar
   112    28    30   ar
   113    41    43   ar
   114    52    54   ar
   115    62    84    1
   116    65    87   ar
   117    73    75   ar
   118    82    84   ar
   119    95    97   ar
   120   106   108   ar
   121   110   112    1
   122   111   112    1
   123   112   113    1
   124   114   112    1
@<TRIPOS>SUBSTRUCTURE
     1 RES1        1 GROUP             0 ****  ****    0  
     2 RES2      110 GROUP             0 ****  ****    0  
@<TRIPOS>CRYSIN
   10.1377   10.8050   13.0202   83.3760   78.2420   70.7230     2     1
