@<TRIPOS>MOLECULE
SEYDAD02
   115   125     2     0     0
SMALL
NO_CHARGES
****
Generated from the CSD

@<TRIPOS>ATOM
     1 Fe1      1.5480   4.9134   7.6238   Fe        1 RES1   0.0000
     2 S1      -0.3133   6.8881  11.5025   S.2       1 RES1   0.0000
     3 F1      -0.3148   6.6249  14.5941   F         1 RES1   0.0000
     4 F2      -0.9843   7.5075  17.0453   F         1 RES1   0.0000
     5 F3       0.1513   6.4087  19.2537   F         1 RES1   0.0000
     6 F4       2.0166   4.4700  18.9880   F         1 RES1   0.0000
     7 F5       2.7277   3.5934  16.5159   F         1 RES1   0.0000
     8 F6       6.3332   8.9239  13.2285   F         1 RES1   0.0000
     9 F7       7.6084  10.3272  11.2846   F         1 RES1   0.0000
    10 F8       6.2295  11.1610   9.0963   F         1 RES1   0.0000
    11 F9       3.6003  10.5755   8.8349   F         1 RES1   0.0000
    12 F10      2.3256   9.1812  10.7758   F         1 RES1   0.0000
    13 O1       1.5172   4.5382  14.2754   O.3       1 RES1   0.0000
    14 O2       3.6700   8.3455  13.0448   O.3       1 RES1   0.0000
    15 N1       0.8177   5.6968   9.2382   N.2       1 RES1   0.0000
    16 N2       3.3094   5.7599   7.9336   N.ar      1 RES1   0.0000
    17 N3       2.2673   3.3591   8.6326   N.ar      1 RES1   0.0000
    18 N4       3.3397   4.8383  10.1079   N.pl3     1 RES1   0.0000
    19 N5       2.4203   4.6336  12.2344   N.ar      1 RES1   0.0000
    20 N6       3.5330   6.6218  11.5479   N.ar      1 RES1   0.0000
    21 N7       2.5972   6.4918  13.7321   N.ar      1 RES1   0.0000
    22 C1       0.3393   6.1977  10.1762   C.1       1 RES1   0.0000
    23 C2       3.9248   6.4382   6.9398   C.ar      1 RES1   0.0000
    24 H1       3.4857   6.5089   6.1006   H         1 RES1   0.0000
    25 C3       5.1622   7.0337   7.0866   C.ar      1 RES1   0.0000
    26 H2       5.5476   7.5301   6.3735   H         1 RES1   0.0000
    27 C4       5.8331   6.8940   8.2965   C.ar      1 RES1   0.0000
    28 H3       6.6840   7.2957   8.4258   H         1 RES1   0.0000
    29 C5       5.2394   6.1588   9.3111   C.ar      1 RES1   0.0000
    30 H4       5.6877   6.0249  10.1381   H         1 RES1   0.0000
    31 C6       3.9788   5.6233   9.0950   C.ar      1 RES1   0.0000
    32 C7       2.0555   2.0963   8.1959   C.ar      1 RES1   0.0000
    33 H5       1.6105   1.9684   7.3661   H         1 RES1   0.0000
    34 C8       2.4622   0.9870   8.9089   C.ar      1 RES1   0.0000
    35 H6       2.3071   0.1140   8.5676   H         1 RES1   0.0000
    36 C9       3.1000   1.1618  10.1299   C.ar      1 RES1   0.0000
    37 H7       3.3443   0.4120  10.6581   H         1 RES1   0.0000
    38 C10      3.3726   2.4429  10.5623   C.ar      1 RES1   0.0000
    39 H8       3.8313   2.5918  11.3808   H         1 RES1   0.0000
    40 C11      2.9604   3.5119   9.7726   C.ar      1 RES1   0.0000
    41 C12      3.0918   5.3729  11.3456   C.ar      1 RES1   0.0000
    42 C13      2.2123   5.2765  13.3735   C.ar      1 RES1   0.0000
    43 C14      3.2510   7.0843  12.7413   C.ar      1 RES1   0.0000
    44 C15      1.2320   5.1022  15.5062   C.ar      1 RES1   0.0000
    45 C16      0.2846   6.1007  15.6570   C.ar      1 RES1   0.0000
    46 C17     -0.0737   6.5454  16.9128   C.ar      1 RES1   0.0000
    47 C18      0.5006   5.9794  18.0342   C.ar      1 RES1   0.0000
    48 C19      1.4401   4.9874  17.8966   C.ar      1 RES1   0.0000
    49 C20      1.8051   4.5511  16.6386   C.ar      1 RES1   0.0000
    50 C21      4.3132   9.0207  12.0239   C.ar      1 RES1   0.0000
    51 C22      5.6567   9.3168  12.1484   C.ar      1 RES1   0.0000
    52 C23      6.3092  10.0364  11.1620   C.ar      1 RES1   0.0000
    53 C24      5.6135  10.4538  10.0489   C.ar      1 RES1   0.0000
    54 C25      4.2744  10.1620   9.9155   C.ar      1 RES1   0.0000
    55 C26      3.6261   9.4524  10.9022   C.ar      1 RES1   0.0000
    56 S1A      3.4094   2.9387   3.7451   S.2       1 RES1   0.0000
    57 F1A      3.4109   3.2020   0.6535   F         1 RES1   0.0000
    58 F2A      4.0804   2.3193  -1.7977   F         1 RES1   0.0000
    59 F3A      2.9448   3.4182  -4.0062   F         1 RES1   0.0000
    60 F4A      1.0795   5.3568  -3.7404   F         1 RES1   0.0000
    61 F5A      0.3684   6.2334  -1.2683   F         1 RES1   0.0000
    62 F6A     -3.2371   0.9030   2.0191   F         1 RES1   0.0000
    63 F7A     -4.5123  -0.5003   3.9630   F         1 RES1   0.0000
    64 F8A     -3.1334  -1.3341   6.1513   F         1 RES1   0.0000
    65 F9A     -0.5043  -0.7487   6.4127   F         1 RES1   0.0000
    66 F10A     0.7705   0.6456   4.4718   F         1 RES1   0.0000
    67 O1A      1.5789   5.2886   0.9722   O.3       1 RES1   0.0000
    68 O2A     -0.5739   1.4813   2.2028   O.3       1 RES1   0.0000
    69 N1A      2.2784   4.1300   6.0094   N.2       1 RES1   0.0000
    70 N2A     -0.2134   4.0669   7.3140   N.ar      1 RES1   0.0000
    71 N3A      0.8288   6.4677   6.6150   N.ar      1 RES1   0.0000
    72 N4A     -0.2437   4.9886   5.1397   N.pl3     1 RES1   0.0000
    73 N5A      0.6758   5.1932   3.0132   N.ar      1 RES1   0.0000
    74 N6A     -0.4369   3.2051   3.6997   N.ar      1 RES1   0.0000
    75 N7A      0.4989   3.3351   1.5155   N.ar      1 RES1   0.0000
    76 C1A      2.7568   3.6291   5.0713   C.1       1 RES1   0.0000
    77 C2A     -0.8287   3.3887   8.3078   C.ar      1 RES1   0.0000
    78 H1A     -0.3896   3.3179   9.1470   H         1 RES1   0.0000
    79 C3A     -2.0661   2.7932   8.1610   C.ar      1 RES1   0.0000
    80 H2A     -2.4515   2.2968   8.8741   H         1 RES1   0.0000
    81 C4A     -2.7370   2.9329   6.9511   C.ar      1 RES1   0.0000
    82 H3A     -3.5879   2.5312   6.8218   H         1 RES1   0.0000
    83 C5A     -2.1433   3.6680   5.9365   C.ar      1 RES1   0.0000
    84 H4A     -2.5917   3.8019   5.1095   H         1 RES1   0.0000
    85 C6A     -0.8827   4.2036   6.1526   C.ar      1 RES1   0.0000
    86 C7A      1.0406   7.7305   7.0517   C.ar      1 RES1   0.0000
    87 H5A      1.4856   7.8585   7.8815   H         1 RES1   0.0000
    88 C8A      0.6339   8.8399   6.3387   C.ar      1 RES1   0.0000
    89 H6A      0.7890   9.7129   6.6800   H         1 RES1   0.0000
    90 C9A     -0.0039   8.6650   5.1177   C.ar      1 RES1   0.0000
    91 H7A     -0.2482   9.4149   4.5895   H         1 RES1   0.0000
    92 C10A    -0.2765   7.3839   4.6853   C.ar      1 RES1   0.0000
    93 H8A     -0.7352   7.2351   3.8668   H         1 RES1   0.0000
    94 C11A     0.1357   6.3149   5.4750   C.ar      1 RES1   0.0000
    95 C12A     0.0043   4.4539   3.9020   C.ar      1 RES1   0.0000
    96 C13A     0.8838   4.5503   1.8741   C.ar      1 RES1   0.0000
    97 C14A    -0.1549   2.7425   2.5062   C.ar      1 RES1   0.0000
    98 C15A     1.8641   4.7246  -0.2586   C.ar      1 RES1   0.0000
    99 C16A     2.8115   3.7262  -0.4094   C.ar      1 RES1   0.0000
   100 C17A     3.1697   3.2815  -1.6652   C.ar      1 RES1   0.0000
   101 C18A     2.5955   3.8474  -2.7866   C.ar      1 RES1   0.0000
   102 C19A     1.6560   4.8395  -2.6490   C.ar      1 RES1   0.0000
   103 C20A     1.2910   5.2758  -1.3910   C.ar      1 RES1   0.0000
   104 C21A    -1.2171   0.8061   3.2236   C.ar      1 RES1   0.0000
   105 C22A    -2.5606   0.5101   3.0992   C.ar      1 RES1   0.0000
   106 C23A    -3.2131  -0.2095   4.0856   C.ar      1 RES1   0.0000
   107 C24A    -2.5174  -0.6270   5.1987   C.ar      1 RES1   0.0000
   108 C25A    -1.1783  -0.3352   5.3321   C.ar      1 RES1   0.0000
   109 C26A    -0.5300   0.3745   4.3454   C.ar      1 RES1   0.0000
   110 N8       4.6070   0.5114  13.1901   N.1       2 RES2   0.0000
   111 C27      3.9038  -0.2469  13.6788   C.1       2 RES2   0.0000
   112 C28      3.0080  -1.2258  14.2780   C.3       2 RES2   0.0000
   113 H9       2.6079  -1.7773  13.5734   H         2 RES2   0.0000
   114 H10      2.2997  -0.7616  14.7719   H         2 RES2   0.0000
   115 H11      3.5137  -1.7983  14.8923   H         2 RES2   0.0000
@<TRIPOS>BOND
     1     1    15    1
     2     2    22    2
     3     3    45    1
     4     4    46    1
     5     5    47    1
     6     6    48    1
     7     7    49    1
     8     8    51    1
     9     9    52    1
    10    10    53    1
    11    11    54    1
    12    12    55    1
    13    13    42    1
    14    14    43    1
    15    15    22    2
    16    16     1    1
    17    17     1    1
    18    18    31    1
    19    19    41   ar
    20    20    41   ar
    21    21    42   ar
    22    23    16   ar
    23    24    23    1
    24    25    23   ar
    25    26    25    1
    26    27    25   ar
    27    28    27    1
    28    29    27   ar
    29    30    29    1
    30    31    16   ar
    31    32    17   ar
    32    33    32    1
    33    34    32   ar
    34    35    34    1
    35    36    34   ar
    36    37    36    1
    37    38    36   ar
    38    39    38    1
    39    40    17   ar
    40    41    18    1
    41    42    19   ar
    42    43    20   ar
    43    44    13    1
    44    45    44   ar
    45    46    45   ar
    46    47    46   ar
    47    48    47   ar
    48    49    44   ar
    49    50    14    1
    50    51    50   ar
    51    52    51   ar
    52    53    52   ar
    53    54    53   ar
    54    55    50   ar
    55    56    76    2
    56    57    99    1
    57    58   100    1
    58    59   101    1
    59    60   102    1
    60    61   103    1
    61    62   105    1
    62    63   106    1
    63    64   107    1
    64    65   108    1
    65    66   109    1
    66    67    96    1
    67    68    97    1
    68    69     1    1
    69    70     1    1
    70    71     1    1
    71    72    85    1
    72    73    95   ar
    73    74    95   ar
    74    75    96   ar
    75    76    69    2
    76    77    70   ar
    77    78    77    1
    78    79    77   ar
    79    80    79    1
    80    81    79   ar
    81    82    81    1
    82    83    81   ar
    83    84    83    1
    84    85    70   ar
    85    86    71   ar
    86    87    86    1
    87    88    86   ar
    88    89    88    1
    89    90    88   ar
    90    91    90    1
    91    92    90   ar
    92    93    92    1
    93    94    71   ar
    94    95    72    1
    95    96    73   ar
    96    97    74   ar
    97    98    67    1
    98    99    98   ar
    99   100    99   ar
   100   101   100   ar
   101   102   101   ar
   102   103    98   ar
   103   104    68    1
   104   105   104   ar
   105   106   105   ar
   106   107   106   ar
   107   108   107   ar
   108   109   104   ar
   109    18    40    1
   110    21    43   ar
   111    29    31   ar
   112    38    40   ar
   113    48    49   ar
   114    54    55   ar
   115    72    94    1
   116    75    97   ar
   117    83    85   ar
   118    92    94   ar
   119   102   103   ar
   120   108   109   ar
   121   110   111    3
   122   111   112    1
   123   112   113    1
   124   114   112    1
   125   115   112    1
@<TRIPOS>SUBSTRUCTURE
     1 RES1        1 GROUP             0 ****  ****    0  
     2 RES2      110 GROUP             0 ****  ****    0  
@<TRIPOS>CRYSIN
    8.3499   11.3580   15.6890   92.9740  102.6160   99.2570     2     1
