@<TRIPOS>MOLECULE
SEZJUF
   115   126     5     0     0
SMALL
USER_CHARGES
****
Generated from the CSD

@<TRIPOS>ATOM
     1 C1       1.4173   7.2344  26.2266   C.ar      1 RES1   0.0000
     2 C2       1.2782   7.3703  27.6034   C.ar      1 RES1   0.0000
     3 C3       1.6944   6.3489  28.4497   C.ar      1 RES1   0.0000
     4 H1       1.5990   6.4397  29.3692   H         1 RES1   0.0000
     5 C4       2.2497   5.1907  27.9193   C.ar      1 RES1   0.0000
     6 H2       2.5281   4.5070  28.4839   H         1 RES1   0.0000
     7 C5       2.3929   5.0547  26.5426   C.ar      1 RES1   0.0000
     8 C6       1.9767   6.0770  25.6962   C.ar      1 RES1   0.0000
     9 Fe1      1.3535   7.6196  23.4655   Fe        1 RES1   2.0000
    10 N1       3.2024   8.2884  23.4316   N.ar      1 RES1   0.0000
    11 N2       1.7899   7.0484  21.6335   N.ar      1 RES1   0.0000
    12 N3      -0.4904   6.9617  23.3940   N.ar      1 RES1   0.0000
    13 N4       0.5181   9.1973  22.6605   N.ar      1 RES1   0.0000
    14 N5       2.0612   5.9961  24.3344   N.ar      1 RES1   0.0000
    15 N6       1.0363   8.1975  25.3313   N.ar      1 RES1   0.0000
    16 C7       3.8535   8.0299  22.2429   C.ar      1 RES1   0.0000
    17 C8       3.0500   7.3728  21.2724   C.ar      1 RES1   0.0000
    18 C9       1.0195   6.4806  20.7157   C.ar      1 RES1   0.0000
    19 H3       0.1468   6.2597  20.9412   H         1 RES1   0.0000
    20 C10      3.9291   8.8320  24.4021   C.ar      1 RES1   0.0000
    21 H4       3.5359   8.9916  25.2300   H         1 RES1   0.0000
    22 C11     -0.8227   9.1180  22.5551   C.ar      1 RES1   0.0000
    23 C12     -1.3917   7.8848  22.9802   C.ar      1 RES1   0.0000
    24 C13     -0.9809   5.7868  23.8078   C.ar      1 RES1   0.0000
    25 H5      -0.3886   5.1602  24.1512   H         1 RES1   0.0000
    26 C14      0.5069   9.3057  25.8203   C.ar      1 RES1   0.0000
    27 H6       0.2122   9.9647  25.2316   H         1 RES1   0.0000
    28 C15      2.6044   4.9080  23.8040   C.ar      1 RES1   0.0000
    29 H7       2.6399   4.8364  22.8788   H         1 RES1   0.0000
    30 C16      3.6160   7.1093  19.9972   C.ar      1 RES1   0.0000
    31 C17      2.7652   6.4606  19.0756   C.ar      1 RES1   0.0000
    32 H8       3.0887   6.2143  18.2385   H         1 RES1   0.0000
    33 C18      1.0747  10.3004  22.1790   C.ar      1 RES1   0.0000
    34 H9       1.9978  10.3950  22.2588   H         1 RES1   0.0000
    35 C19      5.2042   8.3726  21.9570   C.ar      1 RES1   0.0000
    36 C20      5.6800   8.0674  20.7194   C.ar      1 RES1   0.0000
    37 H10      6.5533   8.3109  20.5165   H         1 RES1   0.0000
    38 C21      5.2839   9.1731  24.2028   C.ar      1 RES1   0.0000
    39 H11      5.7734   9.5546  24.8932   H         1 RES1   0.0000
    40 C22      1.4689   6.1963  19.4066   C.ar      1 RES1   0.0000
    41 H12      0.8893   5.8323  18.7769   H         1 RES1   0.0000
    42 C23     -1.6230  10.1145  21.9683   C.ar      1 RES1   0.0000
    43 C24     -3.0481   9.8393  21.9458   C.ar      1 RES1   0.0000
    44 H13     -3.6203  10.4856  21.5943   H         1 RES1   0.0000
    45 C25      0.3600  11.3319  21.5583   C.ar      1 RES1   0.0000
    46 H14      0.8033  12.0631  21.1946   H         1 RES1   0.0000
    47 C26      4.9674   7.4379  19.7640   C.ar      1 RES1   0.0000
    48 H15      5.3666   7.2206  18.9534   H         1 RES1   0.0000
    49 C27      3.0964   3.9099  24.5413   C.ar      1 RES1   0.0000
    50 H16      3.5318   3.2019  24.1249   H         1 RES1   0.0000
    51 C28      2.9766   3.9190  25.8955   C.ar      1 RES1   0.0000
    52 H17      3.2674   3.1905  26.3984   H         1 RES1   0.0000
    53 C29      5.8908   8.9304  22.9539   C.ar      1 RES1   0.0000
    54 H18      6.7788   9.1701  22.8244   H         1 RES1   0.0000
    55 C30     -2.7410   7.6630  22.8787   C.ar      1 RES1   0.0000
    56 C31      0.3745   9.5225  27.1783   C.ar      1 RES1   0.0000
    57 H19      0.0862  10.3481  27.4879   H         1 RES1   0.0000
    58 C32     -2.3229   5.4700  23.7401   C.ar      1 RES1   0.0000
    59 H20     -2.6068   4.6134  23.9674   H         1 RES1   0.0000
    60 C33     -0.9905  11.2485  21.4944   C.ar      1 RES1   0.0000
    61 H21     -1.4871  11.9431  21.1318   H         1 RES1   0.0000
    62 C34     -3.2354   6.4122  23.3489   C.ar      1 RES1   0.0000
    63 H22     -4.1492   6.2354  23.3865   H         1 RES1   0.0000
    64 C35      0.6475   8.5802  28.0359   C.ar      1 RES1   0.0000
    65 H23      0.4342   8.6903  28.9352   H         1 RES1   0.0000
    66 C36     -3.5616   8.7053  22.4084   C.ar      1 RES1   0.0000
    67 H24     -4.4857   8.6027  22.4242   H         1 RES1   0.0000
    68 Pb1      3.8201   7.7602  14.4637   Pb        2 RES2   0.0000
    69 Pb2      3.8136   3.5730  14.4701   Pb        2 RES2   0.0000
    70 I1       1.5438   5.7394  15.4549   I         2 RES2   0.0000
    71 I2       1.7551   9.8501  13.0952   I         2 RES2  -1.0000
    72 I3       6.0032   9.9160  13.2325   I         2 RES2  -1.0000
    73 I4       5.7558   5.6603  15.9801   I         2 RES2   0.0000
    74 I5       4.0252   5.6011  12.0295   I         2 RES2   0.0000
    75 I6       3.7837   9.7949  16.9363   I         2 RES2   0.0000
    76 Pb2      3.8136  11.9114  14.4701   Pb        2 RES2   0.0000
    77 I2       1.7551   1.5117  13.0952   I         2 RES2  -1.0000
    78 I3       6.0032   1.5776  13.2325   I         2 RES2  -1.0000
    79 I6       3.7837   1.4565  16.9363   I         2 RES2   0.0000
    80 O1       4.1701   1.2599  27.4943   O.2       3 RES3   0.0000
    81 C37      4.3641   1.2091  28.6867   C.2       3 RES3   0.0000
    82 H25      3.7894   0.6763  29.1849   H         3 RES3   0.0000
    83 N7       5.2931   1.8344  29.3375   N.am      3 RES3   0.0000
    84 C38      5.4617   1.6927  30.7707   C.3       3 RES3   0.0000
    85 H26      5.2788   2.5293  31.1980   H         3 RES3   0.0000
    86 H27      6.3649   1.4240  30.9606   H         3 RES3   0.0000
    87 H28      4.8556   1.0230  31.0987   H         3 RES3   0.0000
    88 C39      6.2735   2.6183  28.6604   C.3       3 RES3   0.0000
    89 H29      6.3991   2.2717  27.7725   H         3 RES3   0.0000
    90 H30      7.1035   2.5732  29.1401   H         3 RES3   0.0000
    91 H31      5.9765   3.5264  28.6120   H         3 RES3   0.0000
    92 N8       5.7421   3.8015  20.7382   N.am      4 RES4   0.0000
    93 O2       3.6064   3.4938  21.2574   O.2       4 RES4   0.0000
    94 C40      4.5207   3.4021  20.5314   C.2       4 RES4   0.0000
    95 H32      4.3539   3.0087  19.7057   H         4 RES4   0.0000
    96 C41      6.0743   4.3860  22.0135   C.3       4 RES4   0.0000
    97 H33      5.9981   5.3382  21.9581   H         4 RES4   0.0000
    98 H34      6.9696   4.1491  22.2745   H         4 RES4   0.0000
    99 H35      5.4549   4.0491  22.6657   H         4 RES4   0.0000
   100 C42      6.7533   3.6772  19.7527   C.3       4 RES4   0.0000
   101 H36      6.3401   3.2198  19.0143   H         4 RES4   0.0000
   102 H37      7.5023   3.1665  20.0645   H         4 RES4   0.0000
   103 H38      7.0495   4.5427  19.4664   H         4 RES4   0.0000
   104 N9      -1.0015   1.9929  17.9997   N.am      5 RES5   0.0000
   105 C43     -2.3333   1.9178  18.0336   C.2       5 RES5   0.0000
   106 H39     -2.6635   1.1121  18.3630   H         5 RES5   0.0000
   107 C44     -0.2111   0.8005  18.4248   C.3       5 RES5   0.0000
   108 H40     -0.5235   0.5046  19.2822   H         5 RES5   0.0000
   109 H41      0.7157   1.0403  18.4853   H         5 RES5   0.0000
   110 H42     -0.3226   0.1004  17.7809   H         5 RES5   0.0000
   111 C45     -0.3092   3.1519  17.5897   C.3       5 RES5   0.0000
   112 H43     -0.1834   3.1269  16.6380   H         5 RES5   0.0000
   113 H44      0.5446   3.1837  18.0252   H         5 RES5   0.0000
   114 H45     -0.8206   3.9280  17.8253   H         5 RES5   0.0000
   115 O3      -3.1481   2.6850  17.7251   O.2       5 RES5   0.0000
@<TRIPOS>BOND
     1     1     2   ar
     2     2     3   ar
     3     3     4    1
     4     5     3   ar
     5     6     5    1
     6     7     5   ar
     7     8     1   ar
     8     9    10    1
     9    10    16   ar
    10    11     9    1
    11    12     9    1
    12    13     9    1
    13    14     8   ar
    14    15     1   ar
    15    16    17   ar
    16    17    11   ar
    17    18    11   ar
    18    19    18    1
    19    20    10   ar
    20    21    20    1
    21    22    13   ar
    22    23    12   ar
    23    24    12   ar
    24    25    24    1
    25    26    15   ar
    26    27    26    1
    27    28    14   ar
    28    29    28    1
    29    30    17   ar
    30    31    30   ar
    31    32    31    1
    32    33    13   ar
    33    34    33    1
    34    35    16   ar
    35    36    35   ar
    36    37    36    1
    37    38    20   ar
    38    39    38    1
    39    40    18   ar
    40    41    40    1
    41    42    22   ar
    42    43    42   ar
    43    44    43    1
    44    45    33   ar
    45    46    45    1
    46    47    30   ar
    47    48    47    1
    48    49    28   ar
    49    50    49    1
    50    51     7   ar
    51    52    51    1
    52    53    35   ar
    53    54    53    1
    54    55    23   ar
    55    56    26   ar
    56    57    56    1
    57    58    24   ar
    58    59    58    1
    59    60    42   ar
    60    61    60    1
    61    62    55   ar
    62    63    62    1
    63    64     2   ar
    64    65    64    1
    65    66    43   ar
    66    67    66    1
    67     7     8   ar
    68     9    14    1
    69     9    15    1
    70    22    23   ar
    71    31    40   ar
    72    36    47   ar
    73    38    53   ar
    74    45    60   ar
    75    49    51   ar
    76    55    66   ar
    77    56    64   ar
    78    58    62   ar
    79    68    70    1
    80    69    70    1
    81    71    68    1
    82    72    68    1
    83    73    68    1
    84    74    68    1
    85    75    68    1
    86    76    71   un
    87    77    69   un
    88    78    69   un
    89    79    69   un
    90    69    73    1
    91    69    74    1
    92    72    76   un
    93    75    76   un
    94    80    81    2
    95    81    82    1
    96    83    81   am
    97    84    83    1
    98    85    84    1
    99    86    84    1
   100    87    84    1
   101    88    83    1
   102    89    88    1
   103    90    88    1
   104    91    88    1
   105    92    94   am
   106    93    94    2
   107    94    95    1
   108    96    92    1
   109    97    96    1
   110    98    96    1
   111    99    96    1
   112   100    92    1
   113   101   100    1
   114   102   100    1
   115   103   100    1
   116   104   105   am
   117   105   106    1
   118   107   104    1
   119   108   107    1
   120   109   107    1
   121   110   107    1
   122   111   104    1
   123   112   111    1
   124   113   111    1
   125   114   111    1
   126   115   105    2
@<TRIPOS>SUBSTRUCTURE
     1 RES1        1 GROUP             0 ****  ****    0  
     2 RES2       68 GROUP             0 ****  ****    0  
     3 RES3       80 GROUP             0 ****  ****    0  
     4 RES4       92 GROUP             0 ****  ****    0  
     5 RES5      104 GROUP             0 ****  ****    0  
@<TRIPOS>CRYSIN
   40.4600    8.3384   37.9800   90.0000   97.9280   90.0000    15     1
