@<TRIPOS>MOLECULE
SIBZOS
   234   255     3     0     0
SMALL
USER_CHARGES
****
Generated from the CSD

@<TRIPOS>ATOM
     1 Fe1     12.3015   5.0935   1.6767   Fe        1 RES1  -1.0000
     2 C1      12.0289   4.4255   4.6330   C.2       1 RES1   0.0000
     3 C2      11.2171   4.7554   5.7906   C.2       1 RES1   0.0000
     4 C3      10.3080   5.6473   5.4018   C.2       1 RES1   0.0000
     5 C4      10.5350   5.8634   3.9879   C.2       1 RES1   0.0000
     6 C5       9.6891   6.6644   3.2366   C.2       1 RES1   0.0000
     7 C6       9.8375   6.8305   1.8827   C.2       1 RES1   0.0000
     8 C7       8.9332   7.6132   1.0526   C.2       1 RES1   0.0000
     9 C8       9.3720   7.5335  -0.2200   C.2       1 RES1   0.0000
    10 C9      10.5436   6.6939  -0.2013   C.2       1 RES1   0.0000
    11 C10     11.3110   6.3708  -1.3251   C.2       1 RES1   0.0000
    12 C11     12.4821   5.6587  -1.3276   C.2       1 RES1   0.0000
    13 C12     13.3465   5.3219  -2.4603   C.2       1 RES1   0.0000
    14 C13     14.3739   4.5916  -2.0002   C.2       1 RES1   0.0000
    15 C14     14.1571   4.4573  -0.5938   C.2       1 RES1   0.0000
    16 C15     15.0154   3.6610   0.1825   C.2       1 RES1   0.0000
    17 C16     14.8145   3.4380   1.5102   C.2       1 RES1   0.0000
    18 C17     15.6593   2.5825   2.3202   C.2       1 RES1   0.0000
    19 C18     15.1144   2.5415   3.5241   C.2       1 RES1   0.0000
    20 C19     13.9271   3.3310   3.5316   C.2       1 RES1   0.0000
    21 C20     13.0850   3.5563   4.6592   C.2       1 RES1   0.0000
    22 N1      11.5737   5.1308   3.5266   N.2       1 RES1   0.0000
    23 N2      10.8164   6.2958   1.0776   N.2       1 RES1   0.0000
    24 N3      13.0327   5.0944  -0.1913   N.2       1 RES1   0.0000
    25 N4      13.7767   3.9158   2.2902   N.2       1 RES1   0.0000
    26 C21      8.5048   7.3697   3.8229   C.ar      1 RES1   0.0000
    27 C22      7.2634   6.7121   3.8679   C.ar      1 RES1   0.0000
    28 C23      6.1139   7.3902   4.2829   C.ar      1 RES1   0.0000
    29 C24      6.2047   8.7167   4.5917   C.ar      1 RES1   0.0000
    30 C25      7.3873   9.4061   4.5717   C.ar      1 RES1   0.0000
    31 C26      8.5673   8.7326   4.1954   C.ar      1 RES1   0.0000
    32 N5       9.8507   9.3105   4.2117   N.am      1 RES1   0.0000
    33 C27     10.1933  10.5619   4.4480   C.2       1 RES1   0.0000
    34 O1       9.3750  11.4493   4.5280   O.2       1 RES1   0.0000
    35 C28     11.6875  10.9123   4.4630   C.3       1 RES1   0.0000
    36 C29     11.8448  12.0727   5.4731   C.3       1 RES1   0.0000
    37 C30     12.0766  11.3583   3.0653   C.3       1 RES1   0.0000
    38 C31     12.5243   9.7315   4.9355   C.3       1 RES1   0.0000
    39 C32     10.7470   6.7895  -2.6290   C.ar      1 RES1   0.0000
    40 C33      9.6062   6.1934  -3.0991   C.ar      1 RES1   0.0000
    41 C34      8.9834   6.5665  -4.2779   C.ar      1 RES1   0.0000
    42 C35      9.5210   7.5676  -5.0205   C.ar      1 RES1   0.0000
    43 C36     10.6588   8.2184  -4.6017   C.ar      1 RES1   0.0000
    44 C37     11.3054   7.8657  -3.3904   C.ar      1 RES1   0.0000
    45 N6      12.4112   8.5392  -2.8878   N.am      1 RES1   0.0000
    46 C38     12.8275   9.7861  -3.1491   C.2       1 RES1   0.0000
    47 O2      12.2311  10.4800  -3.9392   O.2       1 RES1   0.0000
    48 C39     14.0015  10.3435  -2.3965   C.3       1 RES1   0.0000
    49 C40     14.9348   9.2673  -1.8514   C.3       1 RES1   0.0000
    50 C41     14.8207  11.2423  -3.3629   C.3       1 RES1   0.0000
    51 C42     13.4978  11.1603  -1.2251   C.3       1 RES1   0.0000
    52 C43     16.1727   2.9260  -0.4613   C.ar      1 RES1   0.0000
    53 C44     15.9835   1.6268  -0.8363   C.ar      1 RES1   0.0000
    54 C45     17.0356   0.8464  -1.3301   C.ar      1 RES1   0.0000
    55 C46     18.2721   1.4175  -1.4864   C.ar      1 RES1   0.0000
    56 C47     18.4605   2.7668  -1.1801   C.ar      1 RES1   0.0000
    57 C48     17.4097   3.5176  -0.6213   C.ar      1 RES1   0.0000
    58 N7      17.5676   4.8418  -0.2188   N.am      1 RES1   0.0000
    59 C49     18.6769   5.4698   0.1038   C.2       1 RES1   0.0000
    60 O3      19.8062   4.9920   0.0138   O.2       1 RES1   0.0000
    61 C50     18.5588   6.8896   0.6851   C.3       1 RES1   0.0000
    62 C51     17.3039   7.5904   0.1863   C.3       1 RES1   0.0000
    63 C52     18.4360   6.7394   2.1827   C.3       1 RES1   0.0000
    64 C53     19.7709   7.7042   0.3000   C.3       1 RES1   0.0000
    65 C54     13.3547   2.7008   5.8381   C.ar      1 RES1   0.0000
    66 C55     12.8521   1.4266   5.8694   C.ar      1 RES1   0.0000
    67 C56     13.1262   0.5893   6.9370   C.ar      1 RES1   0.0000
    68 C57     13.9475   1.0375   7.9883   C.ar      1 RES1   0.0000
    69 C58     14.4506   2.2867   7.9771   C.ar      1 RES1   0.0000
    70 C59     14.1535   3.1445   6.8957   C.ar      1 RES1   0.0000
    71 N8      14.6041   4.4687   6.8832   N.am      1 RES1   0.0000
    72 C60     15.6955   4.9852   7.4270   C.2       1 RES1   0.0000
    73 O4      16.4646   4.2980   8.0471   O.2       1 RES1   0.0000
    74 C61     15.9974   6.4619   7.2895   C.3       1 RES1   0.0000
    75 C62     16.9544   6.6302   6.1094   C.3       1 RES1   0.0000
    76 C63     14.7166   7.2810   6.9507   C.3       1 RES1   0.0000
    77 C64     16.5970   6.9783   8.5809   C.3       1 RES1   0.0000
    78 N9      13.3973   6.6257   2.1015   N.ar      1 RES1   0.0000
    79 C65     13.3328   7.8475   1.5189   C.ar      1 RES1   0.0000
    80 N10     14.2499   8.7030   1.9940   N.ar      1 RES1   0.0000
    81 C66     14.9392   7.9931   2.8853   C.ar      1 RES1   0.0000
    82 C67     14.4422   6.7326   2.9466   C.ar      1 RES1   0.0000
    83 N11     11.2142   3.5222   1.2676   N.2       1 RES1   0.0000
    84 C68     11.5727   2.2616   1.1989   C.2       1 RES1   0.0000
    85 N12     10.6552   1.3857   0.8526   N.pl3     1 RES1   0.0000
    86 C69      9.6008   2.1320   0.7126   C.2       1 RES1   0.0000
    87 C70      9.8938   3.3947   0.9488   C.2       1 RES1   0.0000
    88 H1      11.3136   4.3982   6.6657   H         1 RES1   0.0000
    89 H2       9.6434   6.0568   5.9431   H         1 RES1   0.0000
    90 H3       8.1712   8.0932   1.3539   H         1 RES1   0.0000
    91 H4       8.9794   7.9476  -0.9801   H         1 RES1   0.0000
    92 H5      13.2065   5.6405  -3.3591   H         1 RES1   0.0000
    93 H6      15.1023   4.3003  -2.5065   H         1 RES1   0.0000
    94 H7      16.4527   2.1388   2.0402   H         1 RES1   0.0000
    95 H8      15.4564   2.0569   4.2667   H         1 RES1   0.0000
    96 H9       7.2020   5.7975   3.6129   H         1 RES1   0.0000
    97 H10      5.2775   6.9328   4.3492   H         1 RES1   0.0000
    98 H11      5.4103   9.1831   4.8293   H         1 RES1   0.0000
    99 H12      7.4137  10.3253   4.8093   H         1 RES1   0.0000
   100 H13     10.5644   8.7167   4.0254   H         1 RES1   0.0000
   101 H14     12.7559  12.3299   5.5193   H         1 RES1   0.0000
   102 H15     11.3193  12.8122   5.1880   H         1 RES1   0.0000
   103 H16     11.5502  11.7883   6.3294   H         1 RES1   0.0000
   104 H17     12.9986  11.5790   3.0491   H         1 RES1   0.0000
   105 H18     11.9109  10.6507   2.4503   H         1 RES1   0.0000
   106 H19     11.5617  12.1160   2.8203   H         1 RES1   0.0000
   107 H20     13.4412   9.9704   4.9355   H         1 RES1   0.0000
   108 H21     12.2580   9.4880   5.8144   H         1 RES1   0.0000
   109 H22     12.3890   8.9943   4.3505   H         1 RES1   0.0000
   110 H23      9.2212   5.4880  -2.5890   H         1 RES1   0.0000
   111 H24      8.1916   6.1251  -4.5630   H         1 RES1   0.0000
   112 H25      9.1075   7.8202  -5.8369   H         1 RES1   0.0000
   113 H26     11.0155   8.9169  -5.1330   H         1 RES1   0.0000
   114 H27     12.9424   8.0477  -2.2727   H         1 RES1   0.0000
   115 H28     15.6516   9.6769  -1.3851   H         1 RES1   0.0000
   116 H29     14.4524   8.7030  -1.2551   H         1 RES1   0.0000
   117 H30     15.2743   8.7485  -2.5703   H         1 RES1   0.0000
   118 H31     15.5662  11.6018  -2.9028   H         1 RES1   0.0000
   119 H32     15.1220  10.7189  -4.0979   H         1 RES1   0.0000
   120 H33     14.2715  11.9476  -3.6816   H         1 RES1   0.0000
   121 H34     14.2345  11.5153  -0.7438   H         1 RES1   0.0000
   122 H35     12.9546  11.8725  -1.5427   H         1 RES1   0.0000
   123 H36     12.9805  10.6052  -0.6476   H         1 RES1   0.0000
   124 H37     15.1163   1.2423  -0.7613   H         1 RES1   0.0000
   125 H38     16.8956  -0.0660  -1.5514   H         1 RES1   0.0000
   126 H39     18.9986   0.8965  -1.8014   H         1 RES1   0.0000
   127 H40     19.2959   3.1786  -1.3489   H         1 RES1   0.0000
   128 H41     16.7688   5.3561  -0.1713   H         1 RES1   0.0000
   129 H42     17.2578   8.4618   0.5601   H         1 RES1   0.0000
   130 H43     17.3308   7.6541  -0.7601   H         1 RES1   0.0000
   131 H44     16.5376   7.0921   0.4475   H         1 RES1   0.0000
   132 H45     18.3590   7.5972   2.5815   H         1 RES1   0.0000
   133 H46     17.6613   6.2252   2.3865   H         1 RES1   0.0000
   134 H47     19.2058   6.2980   2.5215   H         1 RES1   0.0000
   135 H48     19.6923   8.5779   0.6613   H         1 RES1   0.0000
   136 H49     20.5525   7.2878   0.6426   H         1 RES1   0.0000
   137 H50     19.8287   7.7542  -0.6463   H         1 RES1   0.0000
   138 H51     12.3118   1.1149   5.1518   H         1 RES1   0.0000
   139 H52     12.7580  -0.2867   6.9595   H         1 RES1   0.0000
   140 H53     14.1497   0.4528   8.7097   H         1 RES1   0.0000
   141 H54     14.9977   2.5870   8.6897   H         1 RES1   0.0000
   142 H55     14.0483   5.0830   6.4169   H         1 RES1   0.0000
   143 H56     17.1602   7.5494   5.9981   H         1 RES1   0.0000
   144 H57     17.7484   6.1433   6.2769   H         1 RES1   0.0000
   145 H58     16.5408   6.3003   5.3193   H         1 RES1   0.0000
   146 H59     14.9403   8.1979   6.8695   H         1 RES1   0.0000
   147 H60     14.3536   6.9692   6.1269   H         1 RES1   0.0000
   148 H61     14.0771   7.1672   7.6408   H         1 RES1   0.0000
   149 H62     16.7844   7.9044   8.4934   H         1 RES1   0.0000
   150 H63     15.9798   6.8441   9.2910   H         1 RES1   0.0000
   151 H64     17.3981   6.5074   8.7659   H         1 RES1   0.0000
   152 H65     12.7004   8.0728   0.8451   H         1 RES1   0.0000
   153 H66     15.6655   8.3208   3.4004   H         1 RES1   0.0000
   154 H67     14.7772   6.0341   3.4954   H         1 RES1   0.0000
   155 H68     12.4626   1.9886   1.3926   H         1 RES1   0.0000
   156 H69     10.7411   0.4460   0.7338   H         1 RES1   0.0000
   157 H70      8.7352   1.8134   0.4725   H         1 RES1   0.0000
   158 H71      9.2738   4.1137   0.9026   H         1 RES1   0.0000
   159 Na1      8.5851  -0.1001   7.4670   Na        2 RES2   1.0000
   160 N13      9.0698  -1.7338   9.5898   N.3       2 RES2   0.0000
   161 C71     10.4019  -1.4926   9.9398   C.3       2 RES2   0.0000
   162 C72     10.7344  -0.1115  10.1573   C.3       2 RES2   0.0000
   163 O5      10.2266   0.7053   9.1010   O.3       2 RES2   0.0000
   164 C73     10.4040   2.0728   9.2947   C.3       2 RES2   0.0000
   165 C74      9.2735   2.7986   8.8172   C.3       2 RES2   0.0000
   166 O6       8.8536   2.4414   7.6008   O.3       2 RES2   0.0000
   167 C75      7.7738   3.1103   6.9632   C.3       2 RES2   0.0000
   168 C76      7.7341   2.8441   5.5268   C.3       2 RES2   0.0000
   169 N14      7.5857   1.4676   5.2480   N.3       2 RES2   0.0000
   170 C77      6.0851   1.1468   5.1343   C.3       2 RES2   0.0000
   171 C78      5.8508  -0.2207   5.4518   C.3       2 RES2   0.0000
   172 O7       6.2006  -0.5597   6.7345   O.3       2 RES2   0.0000
   173 C79      5.1792  -0.2708   7.6833   C.3       2 RES2   0.0000
   174 C80      5.7627  -0.6894   9.0547   C.3       2 RES2   0.0000
   175 O8       6.8776   0.0705   9.3322   O.3       2 RES2   0.0000
   176 C81      7.4096  -0.3140  10.5699   C.3       2 RES2   0.0000
   177 C82      8.1046  -1.5904  10.6349   C.3       2 RES2   0.0000
   178 C83      8.9380  -3.1445   9.0759   C.3       2 RES2   0.0000
   179 C84      9.5506  -3.4107   7.8258   C.3       2 RES2   0.0000
   180 O9       9.3291  -2.4619   6.8345   O.3       2 RES2   0.0000
   181 C85     10.2587  -2.5188   5.6756   C.3       2 RES2   0.0000
   182 C86      9.8695  -1.5427   4.7380   C.3       2 RES2   0.0000
   183 O10      9.9489  -0.2685   5.2993   O.3       2 RES2   0.0000
   184 C87      9.7141   0.8601   4.3655   C.3       2 RES2   0.0000
   185 C88      8.3181   1.0876   4.0817   C.3       2 RES2   0.0000
   186 H72     10.9528  -1.8225   9.2397   H         2 RES2   0.0000
   187 H73     10.5851  -1.9704  10.7399   H         2 RES2   0.0000
   188 H74     11.6776  -0.0205  10.1948   H         2 RES2   0.0000
   189 H75     10.3542   0.1729  10.9799   H         2 RES2   0.0000
   190 H76     11.1776   2.3572   8.8234   H         2 RES2   0.0000
   191 H77     10.5159   2.2457  10.2211   H         2 RES2   0.0000
   192 H78      9.5027   3.7178   8.7922   H         2 RES2   0.0000
   193 H79      8.5570   2.6644   9.4285   H         2 RES2   0.0000
   194 H80      7.8682   4.0455   7.1020   H         2 RES2   0.0000
   195 H81      6.9574   2.8145   7.3545   H         2 RES2   0.0000
   196 H82      8.5441   3.1490   5.1368   H         2 RES2   0.0000
   197 H83      7.0004   3.3128   5.1468   H         2 RES2   0.0000
   198 H84      5.7952   1.3174   4.2454   H         2 RES2   0.0000
   199 H85      5.5989   1.6974   5.7368   H         2 RES2   0.0000
   200 H86      6.3493  -0.7600   4.8505   H         2 RES2   0.0000
   201 H87      4.9232  -0.3982   5.3381   H         2 RES2   0.0000
   202 H88      4.3947  -0.7691   7.4895   H         2 RES2   0.0000
   203 H89      4.9754   0.6576   7.6783   H         2 RES2   0.0000
   204 H90      6.0014  -1.6086   9.0284   H         2 RES2   0.0000
   205 H91      5.1065  -0.5529   9.7298   H         2 RES2   0.0000
   206 H92      6.6888  -0.3527  11.1899   H         2 RES2   0.0000
   207 H93      8.0210   0.3572  10.8361   H         2 RES2   0.0000
   208 H94      8.5467  -1.6541  11.4712   H         2 RES2   0.0000
   209 H95      7.4664  -2.2912  10.5611   H         2 RES2   0.0000
   210 H96      8.0109  -3.3379   8.9834   H         2 RES2   0.0000
   211 H97      9.3242  -3.7269   9.7123   H         2 RES2   0.0000
   212 H98      9.2249  -4.2457   7.5033   H         2 RES2   0.0000
   213 H99     10.4880  -3.4721   7.9608   H         2 RES2   0.0000
   214 H100    10.2160  -3.3788   5.2681   H         2 RES2   0.0000
   215 H101    11.1433  -2.3481   5.9619   H         2 RES2   0.0000
   216 H102     8.9735  -1.7110   4.4680   H         2 RES2   0.0000
   217 H103    10.4425  -1.5882   3.9842   H         2 RES2   0.0000
   218 H104    10.1589   0.6712   3.5466   H         2 RES2   0.0000
   219 H105    10.0756   1.6496   4.7492   H         2 RES2   0.0000
   220 H106     8.2460   1.9863   3.4354   H         2 RES2   0.0000
   221 H107     7.9432   0.2890   3.7304   H         2 RES2   0.0000
   222 O11      6.8353   4.6211  -1.2001   O.3       3 RES3   0.0000
   223 C89      6.8210   3.2742  -1.8377   C.3       3 RES3   0.0000
   224 C90      5.8133   2.5233  -0.8751   C.3       3 RES3   0.0000
   225 C91      5.9906   3.2469   0.3750   C.3       3 RES3   0.0000
   226 C92      6.2924   4.6257   0.1125   C.3       3 RES3   0.0000
   227 H108     7.6811   2.8714  -1.8302   H         3 RES3   0.0000
   228 H109     6.4940   3.3083  -2.7278   H         3 RES3   0.0000
   229 H110     6.0457   1.6064  -0.7751   H         3 RES3   0.0000
   230 H111     4.9194   2.5893  -1.1864   H         3 RES3   0.0000
   231 H112     6.7016   2.8555   0.8638   H         3 RES3   0.0000
   232 H113     5.1880   3.1945   0.8801   H         3 RES3   0.0000
   233 H114     5.5043   5.1558   0.1488   H         3 RES3   0.0000
   234 H115     6.9281   4.9533   0.7351   H         3 RES3   0.0000
@<TRIPOS>BOND
     1     1    22    1
     2     2     3    1
     3     3     4    2
     4     4     5    1
     5     5     6    2
     6     6     7    1
     7     7     8    2
     8     8     9    1
     9     9    10    2
    10    10    11    1
    11    11    12    2
    12    12    13    1
    13    13    14    2
    14    14    15    1
    15    15    16    1
    16    16    17    2
    17    17    18    1
    18    18    19    2
    19    19    20    1
    20    20    21    2
    21    21     2    1
    22    22     2    2
    23    23     1    1
    24    24     1    1
    25    25     1    1
    26    26     6    1
    27    27    26   ar
    28    28    27   ar
    29    29    28   ar
    30    30    29   ar
    31    31    26   ar
    32    32    31    1
    33    33    32   am
    34    34    33    2
    35    35    33    1
    36    36    35    1
    37    37    35    1
    38    38    35    1
    39    39    11    1
    40    40    39   ar
    41    41    40   ar
    42    42    41   ar
    43    43    42   ar
    44    44    39   ar
    45    45    44    1
    46    46    45   am
    47    47    46    2
    48    48    46    1
    49    49    48    1
    50    50    48    1
    51    51    48    1
    52    52    16    1
    53    53    52   ar
    54    54    53   ar
    55    55    54   ar
    56    56    55   ar
    57    57    52   ar
    58    58    57    1
    59    59    58   am
    60    60    59    2
    61    61    59    1
    62    62    61    1
    63    63    61    1
    64    64    61    1
    65    65    21    1
    66    66    65   ar
    67    67    66   ar
    68    68    67   ar
    69    69    68   ar
    70    70    65   ar
    71    71    70    1
    72    72    71   am
    73    73    72    2
    74    74    72    1
    75    75    74    1
    76    76    74    1
    77    77    74    1
    78    78     1    1
    79    79    78   ar
    80    80    79   ar
    81    81    80   ar
    82    82    78   ar
    83    83     1    1
    84    84    83    2
    85    85    84    1
    86    86    85    1
    87    87    83    1
    88    88     3    1
    89    89     4    1
    90    90     8    1
    91    91     9    1
    92    92    13    1
    93    93    14    1
    94    94    18    1
    95    95    19    1
    96    96    27    1
    97    97    28    1
    98    98    29    1
    99    99    30    1
   100   100    32    1
   101   101    36    1
   102   102    36    1
   103   103    36    1
   104   104    37    1
   105   105    37    1
   106   106    37    1
   107   107    38    1
   108   108    38    1
   109   109    38    1
   110   110    40    1
   111   111    41    1
   112   112    42    1
   113   113    43    1
   114   114    45    1
   115   115    49    1
   116   116    49    1
   117   117    49    1
   118   118    50    1
   119   119    50    1
   120   120    50    1
   121   121    51    1
   122   122    51    1
   123   123    51    1
   124   124    53    1
   125   125    54    1
   126   126    55    1
   127   127    56    1
   128   128    58    1
   129   129    62    1
   130   130    62    1
   131   131    62    1
   132   132    63    1
   133   133    63    1
   134   134    63    1
   135   135    64    1
   136   136    64    1
   137   137    64    1
   138   138    66    1
   139   139    67    1
   140   140    68    1
   141   141    69    1
   142   142    71    1
   143   143    75    1
   144   144    75    1
   145   145    75    1
   146   146    76    1
   147   147    76    1
   148   148    76    1
   149   149    77    1
   150   150    77    1
   151   151    77    1
   152   152    79    1
   153   153    81    1
   154   154    82    1
   155   155    84    1
   156   156    85    1
   157   157    86    1
   158   158    87    1
   159     5    22    1
   160     7    23    1
   161    10    23    1
   162    12    24    1
   163    15    24    2
   164    17    25    1
   165    20    25    1
   166    30    31   ar
   167    43    44   ar
   168    56    57   ar
   169    69    70   ar
   170    81    82   ar
   171    86    87    2
   172   159   160    1
   173   160   161    1
   174   161   162    1
   175   162   163    1
   176   163   159    1
   177   164   163    1
   178   165   164    1
   179   166   159    1
   180   167   166    1
   181   168   167    1
   182   169   159    1
   183   170   169    1
   184   171   170    1
   185   172   159    1
   186   173   172    1
   187   174   173    1
   188   175   159    1
   189   176   175    1
   190   177   160    1
   191   178   160    1
   192   179   178    1
   193   180   159    1
   194   181   180    1
   195   182   181    1
   196   183   159    1
   197   184   183    1
   198   185   169    1
   199   186   161    1
   200   187   161    1
   201   188   162    1
   202   189   162    1
   203   190   164    1
   204   191   164    1
   205   192   165    1
   206   193   165    1
   207   194   167    1
   208   195   167    1
   209   196   168    1
   210   197   168    1
   211   198   170    1
   212   199   170    1
   213   200   171    1
   214   201   171    1
   215   202   173    1
   216   203   173    1
   217   204   174    1
   218   205   174    1
   219   206   176    1
   220   207   176    1
   221   208   177    1
   222   209   177    1
   223   210   178    1
   224   211   178    1
   225   212   179    1
   226   213   179    1
   227   214   181    1
   228   215   181    1
   229   216   182    1
   230   217   182    1
   231   218   184    1
   232   219   184    1
   233   220   185    1
   234   221   185    1
   235   165   166    1
   236   168   169    1
   237   171   172    1
   238   174   175    1
   239   176   177    1
   240   179   180    1
   241   182   183    1
   242   184   185    1
   243   222   223    1
   244   223   224    1
   245   224   225    1
   246   225   226    1
   247   226   222    1
   248   227   223    1
   249   228   223    1
   250   229   224    1
   251   230   224    1
   252   231   225    1
   253   232   225    1
   254   233   226    1
   255   234   226    1
@<TRIPOS>SUBSTRUCTURE
     1 RES1        1 GROUP             0 ****  ****    0  
     2 RES2      159 GROUP             0 ****  ****    0  
     3 RES3      222 GROUP             0 ****  ****    0  
@<TRIPOS>CRYSIN
   30.9740   22.7530   12.5960   90.0000   97.0300   90.0000   231     1
