@<TRIPOS>MOLECULE
SICFAL
   149   160     1     0     0
SMALL
NO_CHARGES
****
Generated from the CSD

@<TRIPOS>ATOM
     1 Fe1      5.3971   4.3062  20.2648   Fe        1 RES1   0.0000
     2 N1       4.9209   5.5016  21.8346   N.2       1 RES1   0.0000
     3 C1       5.8219   6.2041  22.5972   C.2       1 RES1   0.0000
     4 C2       5.0981   6.8818  23.6123   C.2       1 RES1   0.0000
     5 C3       3.7918   6.6073  23.4822   C.2       1 RES1   0.0000
     6 C4       3.6746   5.7684  22.3447   C.2       1 RES1   0.0000
     7 C5       2.4736   5.3135  21.8040   C.2       1 RES1   0.0000
     8 C6       2.3594   4.4727  20.6869   C.2       1 RES1   0.0000
     9 C7       1.1222   4.0196  20.1437   C.2       1 RES1   0.0000
    10 C8       1.4476   3.2288  19.0597   C.2       1 RES1   0.0000
    11 C9       2.8744   3.1654  18.9373   C.2       1 RES1   0.0000
    12 N2       3.4091   3.9659  19.9677   N.2       1 RES1   0.0000
    13 C10      3.5729   2.4321  18.0115   C.2       1 RES1   0.0000
    14 C11      4.9480   2.4072  17.9349   C.2       1 RES1   0.0000
    15 C12      5.6821   1.5856  17.0091   C.2       1 RES1   0.0000
    16 C13      6.9995   1.8044  17.1979   C.2       1 RES1   0.0000
    17 C14      7.1094   2.7182  18.2997   C.2       1 RES1   0.0000
    18 N3       5.8460   3.0790  18.7434   N.2       1 RES1   0.0000
    19 C15      8.3330   3.1981  18.8174   C.2       1 RES1   0.0000
    20 C16      8.4221   4.1003  19.8682   C.2       1 RES1   0.0000
    21 C17      9.6403   4.6243  20.4140   C.2       1 RES1   0.0000
    22 C18      9.3287   5.4824  21.4061   C.2       1 RES1   0.0000
    23 C19      7.9182   5.5265  21.4826   C.2       1 RES1   0.0000
    24 N4       7.3570   4.6627  20.5466   N.2       1 RES1   0.0000
    25 C20      7.2124   6.2406  22.4110   C.2       1 RES1   0.0000
    26 C21      1.2057   5.8452  22.3779   C.ar      1 RES1   0.0000
    27 C22      0.4710   6.7340  21.5745   C.ar      1 RES1   0.0000
    28 C23     -0.6882   7.3463  22.0336   C.ar      1 RES1   0.0000
    29 C24     -1.1153   7.0411  23.3241   C.ar      1 RES1   0.0000
    30 C25     -0.3953   6.1427  24.1453   C.ar      1 RES1   0.0000
    31 C26      0.7839   5.5860  23.6735   C.ar      1 RES1   0.0000
    32 N5       1.5066   4.7261  24.4999   N.am      1 RES1   0.0000
    33 C27      1.8308   5.0524  25.7802   C.2       1 RES1   0.0000
    34 O1       1.5836   6.1945  26.2010   O.2       1 RES1   0.0000
    35 C28      2.5685   4.0830  26.6321   C.3       1 RES1   0.0000
    36 C29      2.1716   4.3345  28.1394   C.3       1 RES1   0.0000
    37 C30      4.1050   4.3537  26.5351   C.3       1 RES1   0.0000
    38 C31      2.2411   2.5838  26.2367   C.3       1 RES1   0.0000
    39 C32      2.7955   1.6451  16.9887   C.ar      1 RES1   0.0000
    40 C33      2.8184   2.1212  15.6599   C.ar      1 RES1   0.0000
    41 C34      2.1900   1.3879  14.6525   C.ar      1 RES1   0.0000
    42 C35      1.5604   0.2227  14.9764   C.ar      1 RES1   0.0000
    43 C36      1.4864  -0.2419  16.2542   C.ar      1 RES1   0.0000
    44 C37      2.1288   0.4837  17.2973   C.ar      1 RES1   0.0000
    45 N6       2.1306   0.0537  18.6159   N.am      1 RES1   0.0000
    46 C38      1.4472  -0.9540  19.2280   C.2       1 RES1   0.0000
    47 O2       0.7373  -1.7123  18.6032   O.2       1 RES1   0.0000
    48 C39      1.5757  -1.0327  20.7175   C.3       1 RES1   0.0000
    49 C40      0.0435  -0.7294  21.2404   C.3       1 RES1   0.0000
    50 C41      1.8279  -2.4571  21.0414   C.3       1 RES1   0.0000
    51 C42      2.2889   0.0960  21.3730   C.3       1 RES1   0.0000
    52 C43      9.5936   2.7700  18.1135   C.ar      1 RES1   0.0000
    53 C44     10.1518   3.5685  17.1749   C.ar      1 RES1   0.0000
    54 C45     11.2991   3.1846  16.4990   C.ar      1 RES1   0.0000
    55 C46     11.8786   1.9695  16.7694   C.ar      1 RES1   0.0000
    56 C47     11.3405   1.1326  17.6952   C.ar      1 RES1   0.0000
    57 C48     10.1732   1.5126  18.3889   C.ar      1 RES1   0.0000
    58 N7       9.5519   0.7275  19.3938   N.am      1 RES1   0.0000
    59 C49      9.6244  -0.6469  19.5264   C.2       1 RES1   0.0000
    60 O3      10.3341  -1.3687  18.8480   O.2       1 RES1   0.0000
    61 C50      8.7078  -1.1690  20.6333   C.3       1 RES1   0.0000
    62 C51      9.2505  -0.6296  22.0412   C.3       1 RES1   0.0000
    63 C52      7.2837  -0.7390  20.3451   C.3       1 RES1   0.0000
    64 C53      8.8586  -2.6836  20.6971   C.3       1 RES1   0.0000
    65 C54      7.9196   7.2427  23.3139   C.ar      1 RES1   0.0000
    66 C55      7.8286   8.5864  22.9594   C.ar      1 RES1   0.0000
    67 C56      8.3851   9.5750  23.8036   C.ar      1 RES1   0.0000
    68 C57      8.9541   9.1488  24.9896   C.ar      1 RES1   0.0000
    69 C58      9.0656   7.8723  25.3186   C.ar      1 RES1   0.0000
    70 C59      8.5544   6.8683  24.5050   C.ar      1 RES1   0.0000
    71 N8       8.6068   5.5073  24.8059   N.am      1 RES1   0.0000
    72 C60      9.5090   4.9103  25.6578   C.2       1 RES1   0.0000
    73 O4      10.3119   5.5438  26.3235   O.2       1 RES1   0.0000
    74 C61      9.4513   3.3670  25.7011   C.3       1 RES1   0.0000
    75 C62      8.1218   2.9754  26.4127   C.3       1 RES1   0.0000
    76 C63     10.6586   2.9120  26.5377   C.3       1 RES1   0.0000
    77 C64      9.4774   2.7604  24.3035   C.3       1 RES1   0.0000
    78 S1       5.2054   2.6567  23.0435   S.o2      1 RES1   0.0000
    79 O5       5.5332   2.6049  21.6331   O.3       1 RES1   0.0000
    80 O6       6.1016   3.4937  23.7985   O.2       1 RES1   0.0000
    81 O7       3.7618   2.7681  23.2425   O.2       1 RES1   0.0000
    82 C65      5.5780   0.9963  23.6199   C.3       1 RES1   0.0000
    83 F1       5.0515   0.0346  22.9211   F         1 RES1   0.0000
    84 F2       5.2188   0.8715  24.8850   F         1 RES1   0.0000
    85 F3       6.8827   0.7410  23.6735   F         1 RES1   0.0000
    86 O8       5.2979   6.0659  19.0622   O.3       1 RES1   0.0000
    87 H1       5.4786   7.4404  24.2780   H         1 RES1   0.0000
    88 H2       3.0862   6.9144  24.0382   H         1 RES1   0.0000
    89 H3       0.2490   4.2193  20.4625   H         1 RES1   0.0000
    90 H4       0.8243   2.7969  18.4858   H         1 RES1   0.0000
    91 H5       5.3016   0.9905  16.3715   H         1 RES1   0.0000
    92 H6       7.7143   1.4263  16.6980   H         1 RES1   0.0000
    93 H7      10.5168   4.4016  20.1258   H         1 RES1   0.0000
    94 H8       9.9402   5.9661  21.9468   H         1 RES1   0.0000
    95 H9       0.7757   6.9221  20.6946   H         1 RES1   0.0000
    96 H10     -1.1735   7.9510  21.4826   H         1 RES1   0.0000
    97 H11     -1.9078   7.4442  23.6582   H         1 RES1   0.0000
    98 H12     -0.7162   5.9239  25.0100   H         1 RES1   0.0000
    99 H13      1.7798   3.8834  24.1581   H         1 RES1   0.0000
   100 H14      2.6372   3.7240  28.6954   H         1 RES1   0.0000
   101 H15      2.3984   5.2232  28.3817   H         1 RES1   0.0000
   102 H16      1.2359   4.2058  28.2389   H         1 RES1   0.0000
   103 H17      4.5684   3.7298  27.0784   H         1 RES1   0.0000
   104 H18      4.3829   4.2558  25.6297   H         1 RES1   0.0000
   105 H19      4.2868   5.2347  26.8284   H         1 RES1   0.0000
   106 H20      2.7358   1.9925  26.7978   H         1 RES1   0.0000
   107 H21      1.3155   2.4225  26.3439   H         1 RES1   0.0000
   108 H22      2.4900   2.4321  25.3313   H         1 RES1   0.0000
   109 H23      3.2570   2.9370  15.4533   H         1 RES1   0.0000
   110 H24      2.2021   1.6931  13.7522   H         1 RES1   0.0000
   111 H25      1.1551  -0.2841  14.2827   H         1 RES1   0.0000
   112 H26      1.0114  -1.0404  16.4480   H         1 RES1   0.0000
   113 H27      2.7066   0.5432  19.1898   H         1 RES1   0.0000
   114 H28      0.0146  -0.7467  22.1891   H         1 RES1   0.0000
   115 H29     -0.2287   0.1382  20.9394   H         1 RES1   0.0000
   116 H30     -0.5535  -1.3764  20.8884   H         1 RES1   0.0000
   117 H31      1.9238  -2.5569  21.9800   H         1 RES1   0.0000
   118 H32      1.1035  -2.9850  20.7328   H         1 RES1   0.0000
   119 H33      2.6316  -2.7412  20.6104   H         1 RES1   0.0000
   120 H34      2.3164  -0.0461  22.3116   H         1 RES1   0.0000
   121 H35      3.1721   0.1574  21.0338   H         1 RES1   0.0000
   122 H36      1.8238   0.9080  21.1919   H         1 RES1   0.0000
   123 H37      9.7487   4.4036  16.9709   H         1 RES1   0.0000
   124 H38     11.6844   3.7624  15.8512   H         1 RES1   0.0000
   125 H39     12.6644   1.7104  16.3026   H         1 RES1   0.0000
   126 H40     11.7502   0.2937  17.8712   H         1 RES1   0.0000
   127 H41      9.0330   1.1921  20.0391   H         1 RES1   0.0000
   128 H42      8.6866  -0.9464  22.7375   H         1 RES1   0.0000
   129 H43     10.1333  -0.9406  22.1815   H         1 RES1   0.0000
   130 H44      9.2419   0.3187  22.0387   H         1 RES1   0.0000
   131 H46      7.2305   0.2073  20.3808   H         1 RES1   0.0000
   132 H47      6.9791  -1.0827  19.5596   H         1 RES1   0.0000
   133 H48      8.2930  -3.0272  21.3781   H         1 RES1   0.0000
   134 H49      8.6087  -3.0598  19.8580   H         1 RES1   0.0000
   135 H50      9.7601  -2.9044  20.8858   H         1 RES1   0.0000
   136 H51      7.3932   8.8378  22.1534   H         1 RES1   0.0000
   137 H52      8.3677  10.4945  23.5664   H         1 RES1   0.0000
   138 H53      9.2800   9.8015  25.5966   H         1 RES1   0.0000
   139 H54      9.5030   7.6362  26.1271   H         1 RES1   0.0000
   140 H55      8.0549   2.0271  26.4561   H         1 RES1   0.0000
   141 H56      8.0567   3.3343  27.5477   H         1 RES1   0.0000
   142 H57      7.3864   3.3228  25.9230   H         1 RES1   0.0000
   143 H58      7.9656   4.9449  24.3851   H         1 RES1   0.0000
   144 H59     10.6617   1.9618  26.5913   H         1 RES1   0.0000
   145 H60     11.4580   3.2096  26.1245   H         1 RES1   0.0000
   146 H61     10.5925   3.2787  27.4100   H         1 RES1   0.0000
   147 H62      9.4439   1.8121  24.3672   H         1 RES1   0.0000
   148 H63      8.7339   3.0714  23.8036   H         1 RES1   0.0000
   149 H64     10.2822   3.0138  23.8622   H         1 RES1   0.0000
@<TRIPOS>BOND
     1     1     2    1
     2     2     3    2
     3     3     4    1
     4     4     5    2
     5     5     6    1
     6     6     2    1
     7     7     6    2
     8     8     7    1
     9     9     8    2
    10    10     9    1
    11    11    10    2
    12    12     1    1
    13    13    11    1
    14    14    13    2
    15    15    14    1
    16    16    15    2
    17    17    16    1
    18    18     1    1
    19    19    17    1
    20    20    19    2
    21    21    20    1
    22    22    21    2
    23    23    22    1
    24    24     1    1
    25    25     3    1
    26    26     7    1
    27    27    26   ar
    28    28    27   ar
    29    29    28   ar
    30    30    29   ar
    31    31    26   ar
    32    32    31    1
    33    33    32   am
    34    34    33    2
    35    35    33    1
    36    36    35    1
    37    37    35    1
    38    38    35    1
    39    39    13    1
    40    40    39   ar
    41    41    40   ar
    42    42    41   ar
    43    43    42   ar
    44    44    39   ar
    45    45    44    1
    46    46    45   am
    47    47    46    2
    48    48    46    1
    49    49    48    1
    50    50    48    1
    51    51    48    1
    52    52    19    1
    53    53    52   ar
    54    54    53   ar
    55    55    54   ar
    56    56    55   ar
    57    57    52   ar
    58    58    57    1
    59    59    58   am
    60    60    59    2
    61    61    59    1
    62    62    61    1
    63    63    61    1
    64    64    61    1
    65    65    25    1
    66    66    65   ar
    67    67    66   ar
    68    68    67   ar
    69    69    68   ar
    70    70    65   ar
    71    71    70    1
    72    72    71   am
    73    73    72    2
    74    74    72    1
    75    75    74    1
    76    76    74    1
    77    77    74    1
    78    78    79    1
    79    79     1    1
    80    80    78    2
    81    81    78    2
    82    82    78    1
    83    83    82    1
    84    84    82    1
    85    85    82    1
    86    86     1    1
    87    87     4    1
    88    88     5    1
    89    89     9    1
    90    90    10    1
    91    91    15    1
    92    92    16    1
    93    93    21    1
    94    94    22    1
    95    95    27    1
    96    96    28    1
    97    97    29    1
    98    98    30    1
    99    99    32    1
   100   100    36    1
   101   101    36    1
   102   102    36    1
   103   103    37    1
   104   104    37    1
   105   105    37    1
   106   106    38    1
   107   107    38    1
   108   108    38    1
   109   109    40    1
   110   110    41    1
   111   111    42    1
   112   112    43    1
   113   113    45    1
   114   114    49    1
   115   115    49    1
   116   116    49    1
   117   117    50    1
   118   118    50    1
   119   119    50    1
   120   120    51    1
   121   121    51    1
   122   122    51    1
   123   123    53    1
   124   124    54    1
   125   125    55    1
   126   126    56    1
   127   127    58    1
   128   128    62    1
   129   129    62    1
   130   130    62    1
   131   131    63    1
   132   132    63    1
   133   133    64    1
   134   134    64    1
   135   135    64    1
   136   136    66    1
   137   137    67    1
   138   138    68    1
   139   139    69    1
   140   140    75    1
   141   141    75    1
   142   142    75    1
   143   143    71    1
   144   144    76    1
   145   145    76    1
   146   146    76    1
   147   147    77    1
   148   148    77    1
   149   149    77    1
   150     8    12    1
   151    11    12    1
   152    14    18    1
   153    17    18    2
   154    20    24    1
   155    23    24    1
   156    23    25    2
   157    30    31   ar
   158    43    44   ar
   159    56    57   ar
   160    69    70   ar
@<TRIPOS>SUBSTRUCTURE
     1 RES1        1 GROUP             0 ****  ****    0  
@<TRIPOS>CRYSIN
   13.1610   19.1960   26.2120   90.0000  103.3400   90.0000    14     1
