@<TRIPOS>MOLECULE
SICSAB
   107   117     1     0     0
SMALL
NO_CHARGES
****
Generated from the CSD

@<TRIPOS>ATOM
     1 C1       0.4936   6.2157   3.1263   C.2       1 RES1   0.0000
     2 C2       1.0520   5.6602   1.8465   C.3       1 RES1   0.0000
     3 C3       1.9320   4.8548   4.4823   C.ar      1 RES1   0.0000
     4 C4       1.6137   3.5066   4.7193   C.ar      1 RES1   0.0000
     5 C5       2.6677   2.6021   4.9069   C.ar      1 RES1   0.0000
     6 H1       2.4774   1.6861   5.0728   H         1 RES1   0.0000
     7 C6       3.9858   3.0288   4.8533   C.ar      1 RES1   0.0000
     8 H2       4.6888   2.4035   4.9790   H         1 RES1   0.0000
     9 C7       4.2827   4.3518   4.6183   C.ar      1 RES1   0.0000
    10 H3       5.1913   4.6270   4.5812   H         1 RES1   0.0000
    11 C8       3.2678   5.2989   4.4339   C.ar      1 RES1   0.0000
    12 C9       0.1678   3.0573   4.7307   C.3       1 RES1   0.0000
    13 H4      -0.3977   3.8787   4.7945   H         1 RES1   0.0000
    14 C10     -0.2808   2.1129   5.8342   C.3       1 RES1   0.0000
    15 H5      -0.3198   2.5782   6.7070   H         1 RES1   0.0000
    16 H6       0.3278   1.3354   5.9084   H         1 RES1   0.0000
    17 C11     -1.6780   1.6767   5.3809   C.3       1 RES1   0.0000
    18 H7      -1.8970   0.7792   5.7353   H         1 RES1   0.0000
    19 H8      -2.3646   2.3189   5.6931   H         1 RES1   0.0000
    20 C12     -1.6122   1.6552   3.8754   C.3       1 RES1   0.0000
    21 H9      -2.3673   2.1684   3.4911   H         1 RES1   0.0000
    22 H10     -1.6633   0.7242   3.5426   H         1 RES1   0.0000
    23 C13     -0.2754   2.2934   3.4735   C.3       1 RES1   0.0000
    24 H11     -0.3950   2.9100   2.7079   H         1 RES1   0.0000
    25 H12      0.3869   1.6001   3.2283   H         1 RES1   0.0000
    26 C14      3.6240   6.7544   4.1897   C.3       1 RES1   0.0000
    27 H13      2.7770   7.2845   4.2350   H         1 RES1   0.0000
    28 C15      4.2858   7.0454   2.8234   C.3       1 RES1   0.0000
    29 H14      4.8796   6.2984   2.5596   H         1 RES1   0.0000
    30 H15      3.5966   7.1663   2.1227   H         1 RES1   0.0000
    31 C16      5.0946   8.3338   3.0109   C.3       1 RES1   0.0000
    32 H16      6.0391   8.1900   2.7533   H         1 RES1   0.0000
    33 H17      4.7211   9.0606   2.4493   H         1 RES1   0.0000
    34 C17      4.9944   8.6988   4.4864   C.3       1 RES1   0.0000
    35 H18      4.2965   9.3858   4.6348   H         1 RES1   0.0000
    36 H19      5.8590   9.0418   4.8255   H         1 RES1   0.0000
    37 C18      4.6215   7.3849   5.1727   C.3       1 RES1   0.0000
    38 H20      4.1998   7.5478   6.0537   H         1 RES1   0.0000
    39 H21      5.4157   6.8076   5.2953   H         1 RES1   0.0000
    40 C19      1.3870   5.4254   8.1372   C.3       1 RES1   0.0000
    41 H22      1.8890   5.5729   8.9780   H         1 RES1   0.0000
    42 H23      1.7519   4.6123   7.7075   H         1 RES1   0.0000
    43 C20      1.6130   6.6082   7.2191   C.2       1 RES1   0.0000
    44 H24      2.2101   6.4797   6.4906   H         1 RES1   0.0000
    45 C21      1.0299   7.8613   7.3407   C.2       1 RES1   0.0000
    46 H25      1.2239   8.5125   6.6771   H         1 RES1   0.0000
    47 C22      0.0955   8.2498   8.4783   C.3       1 RES1   0.0000
    48 H26      0.2271   9.2071   8.6926   H         1 RES1   0.0000
    49 H27      0.3318   7.7238   9.2841   H         1 RES1   0.0000
    50 N1       0.8647   5.7929   4.3470   N.2       1 RES1   0.0000
    51 Fe1      0.0000   6.7176   5.8844   Fe        1 RES1   0.0000
    52 H28      1.2333   6.3548   1.1953   H         1 RES1   0.0000
    53 H29      0.3762   5.1859   1.4529   H         1 RES1   0.0000
    54 H30      1.8272   5.0382   1.9784   H         1 RES1   0.0000
    55 C1A     -0.4936   7.2194   3.1263   C.2       1 RES1   0.0000
    56 C2A     -1.0520   7.7749   1.8465   C.3       1 RES1   0.0000
    57 C3A     -1.9320   8.5803   4.4823   C.ar      1 RES1   0.0000
    58 C4A     -1.6137   9.9285   4.7193   C.ar      1 RES1   0.0000
    59 C5A     -2.6677  10.8330   4.9069   C.ar      1 RES1   0.0000
    60 H1A     -2.4774  11.7490   5.0728   H         1 RES1   0.0000
    61 C6A     -3.9858  10.4063   4.8533   C.ar      1 RES1   0.0000
    62 H2A     -4.6888  11.0316   4.9790   H         1 RES1   0.0000
    63 C7A     -4.2827   9.0833   4.6183   C.ar      1 RES1   0.0000
    64 H3A     -5.1913   8.8081   4.5812   H         1 RES1   0.0000
    65 C8A     -3.2678   8.1362   4.4339   C.ar      1 RES1   0.0000
    66 C9A     -0.1678  10.3778   4.7307   C.3       1 RES1   0.0000
    67 H4A      0.3977   9.5564   4.7945   H         1 RES1   0.0000
    68 C10A     0.2808  11.3222   5.8342   C.3       1 RES1   0.0000
    69 H5A      0.3198  10.8569   6.7070   H         1 RES1   0.0000
    70 H6A     -0.3278  12.0997   5.9084   H         1 RES1   0.0000
    71 C11A     1.6780  11.7584   5.3809   C.3       1 RES1   0.0000
    72 H7A      1.8970  12.6559   5.7353   H         1 RES1   0.0000
    73 H8A      2.3646  11.1162   5.6931   H         1 RES1   0.0000
    74 C12A     1.6122  11.7799   3.8754   C.3       1 RES1   0.0000
    75 H9A      2.3673  11.2667   3.4911   H         1 RES1   0.0000
    76 H10A     1.6633  12.7109   3.5426   H         1 RES1   0.0000
    77 C13A     0.2754  11.1417   3.4735   C.3       1 RES1   0.0000
    78 H11A     0.3950  10.5251   2.7079   H         1 RES1   0.0000
    79 H12A    -0.3869  11.8350   3.2283   H         1 RES1   0.0000
    80 C14A    -3.6240   6.6807   4.1897   C.3       1 RES1   0.0000
    81 H13A    -2.7770   6.1506   4.2350   H         1 RES1   0.0000
    82 C15A    -4.2858   6.3897   2.8234   C.3       1 RES1   0.0000
    83 H14A    -4.8796   7.1367   2.5596   H         1 RES1   0.0000
    84 H15A    -3.5966   6.2688   2.1227   H         1 RES1   0.0000
    85 C16A    -5.0946   5.1013   3.0109   C.3       1 RES1   0.0000
    86 H16A    -6.0391   5.2451   2.7533   H         1 RES1   0.0000
    87 H17A    -4.7211   4.3745   2.4493   H         1 RES1   0.0000
    88 C17A    -4.9944   4.7363   4.4864   C.3       1 RES1   0.0000
    89 H18A    -4.2965   4.0493   4.6348   H         1 RES1   0.0000
    90 H19A    -5.8590   4.3933   4.8255   H         1 RES1   0.0000
    91 C18A    -4.6215   6.0502   5.1727   C.3       1 RES1   0.0000
    92 H20A    -4.1998   5.8873   6.0537   H         1 RES1   0.0000
    93 H21A    -5.4157   6.6275   5.2953   H         1 RES1   0.0000
    94 N1A     -0.8647   7.6422   4.3470   N.2       1 RES1   0.0000
    95 H28A    -1.2333   7.0803   1.1953   H         1 RES1   0.0000
    96 H29A    -0.3762   8.2492   1.4529   H         1 RES1   0.0000
    97 H30A    -1.8272   8.3969   1.9784   H         1 RES1   0.0000
    98 C19A    -1.3870   8.0097   8.1372   C.3       1 RES1   0.0000
    99 H22A    -1.8890   7.8622   8.9780   H         1 RES1   0.0000
   100 H23A    -1.7519   8.8228   7.7075   H         1 RES1   0.0000
   101 C20A    -1.6130   6.8269   7.2191   C.2       1 RES1   0.0000
   102 H24A    -2.2101   6.9554   6.4906   H         1 RES1   0.0000
   103 C21A    -1.0299   5.5738   7.3407   C.2       1 RES1   0.0000
   104 H25A    -1.2239   4.9226   6.6771   H         1 RES1   0.0000
   105 C22A    -0.0955   5.1853   8.4783   C.3       1 RES1   0.0000
   106 H26A    -0.2271   4.2280   8.6926   H         1 RES1   0.0000
   107 H27A    -0.3318   5.7113   9.2841   H         1 RES1   0.0000
@<TRIPOS>BOND
     1     1     2    1
     2     2    52    1
     3     3     4   ar
     4     4     5   ar
     5     5     6    1
     6     7     5   ar
     7     8     7    1
     8     9     7   ar
     9    10     9    1
    10    11     3   ar
    11    12     4    1
    12    13    12    1
    13    14    12    1
    14    15    14    1
    15    16    14    1
    16    17    14    1
    17    18    17    1
    18    19    17    1
    19    20    17    1
    20    21    20    1
    21    22    20    1
    22    23    12    1
    23    24    23    1
    24    25    23    1
    25    26    11    1
    26    27    26    1
    27    28    26    1
    28    29    28    1
    29    30    28    1
    30    31    28    1
    31    32    31    1
    32    33    31    1
    33    34    31    1
    34    35    34    1
    35    36    34    1
    36    37    26    1
    37    38    37    1
    38    39    37    1
    39    40    41    1
    40    42    40    1
    41    43    40    1
    42    44    43    1
    43    45    43    2
    44    46    45    1
    45    47    45    1
    46    48    47    1
    47    49    47    1
    48    50     1    2
    49    51    43   un
    50    53     2    1
    51    54     2    1
    52    55     1    1
    53    56    55    1
    54    57    58   ar
    55    58    59   ar
    56    59    60    1
    57    61    59   ar
    58    62    61    1
    59    63    61   ar
    60    64    63    1
    61    65    57   ar
    62    66    58    1
    63    67    66    1
    64    68    66    1
    65    69    68    1
    66    70    68    1
    67    71    68    1
    68    72    71    1
    69    73    71    1
    70    74    71    1
    71    75    74    1
    72    76    74    1
    73    77    66    1
    74    78    77    1
    75    79    77    1
    76    80    65    1
    77    81    80    1
    78    82    80    1
    79    83    82    1
    80    84    82    1
    81    85    82    1
    82    86    85    1
    83    87    85    1
    84    88    85    1
    85    89    88    1
    86    90    88    1
    87    91    80    1
    88    92    91    1
    89    93    91    1
    90    94    51    1
    91    95    56    1
    92    96    56    1
    93    97    56    1
    94    98    47    1
    95    99    98    1
    96   100    98    1
    97   101    51   un
    98   102   101    1
    99   103    51   un
   100   104   103    1
   101   105    40    1
   102   106   105    1
   103   107   105    1
   104     3    50    1
   105     9    11   ar
   106    20    23    1
   107    34    37    1
   108    45    51   un
   109    50    51    1
   110    55    94    2
   111    57    94    1
   112    63    65   ar
   113    74    77    1
   114    88    91    1
   115    98   101    1
   116   101   103    2
   117   103   105    1
@<TRIPOS>SUBSTRUCTURE
     1 RES1        1 GROUP             0 ****  ****    0  
@<TRIPOS>CRYSIN
   13.4351   13.4351   10.3042   90.0000   90.0000   90.0000    77     1
