@<TRIPOS>MOLECULE
SIJGIE
   129   139     3     0     0
SMALL
NO_CHARGES
****
Generated from the CSD

@<TRIPOS>ATOM
     1 U1      -1.0616  10.7843   5.3630   U         1 RES1   0.0000
     2 Fe1      0.0306   8.4389   8.3372   Fe        1 RES1   0.0000
     3 O1      -2.8647  11.6155   6.5247   O.3       1 RES1   0.0000
     4 O2       0.2805  12.3809   6.3357   O.3       1 RES1   0.0000
     5 O3      -1.4245  11.7938   3.8715   O.2       1 RES1   0.0000
     6 O4      -0.6138   9.6758   6.8782   O.3       1 RES1   0.0000
     7 O5       0.7339   7.1844   9.7593   O.3       1 RES1   0.0000
     8 N1      -3.2275   9.6772   4.4569   N.2       1 RES1   0.0000
     9 N2      -0.6362   8.4984   3.9616   N.3       1 RES1   0.0000
    10 N3       1.2800  10.7070   4.2372   N.2       1 RES1   0.0000
    11 N4      -0.2340   6.6786   7.1386   N.2       1 RES1   0.0000
    12 N5      -2.0713   8.1779   9.0461   N.ar      1 RES1   0.0000
    13 N6       0.2443  10.1398   9.7824   N.ar      1 RES1   0.0000
    14 N7       2.1494   8.7994   7.6716   N.ar      1 RES1   0.0000
    15 C1      -4.1523  11.5416   6.6543   C.ar      1 RES1   0.0000
    16 C2      -4.7958  12.3191   7.6439   C.ar      1 RES1   0.0000
    17 H1      -4.2766  12.8878   8.1998   H         1 RES1   0.0000
    18 C3      -6.1706  12.2662   7.8170   C.ar      1 RES1   0.0000
    19 H2      -6.5760  12.7992   8.4897   H         1 RES1   0.0000
    20 C4      -6.9599  11.4510   7.0245   C.ar      1 RES1   0.0000
    21 H3      -7.8994  11.4133   7.1581   H         1 RES1   0.0000
    22 C5      -6.3621  10.6986   6.0435   C.ar      1 RES1   0.0000
    23 H4      -6.9054  10.1534   5.4867   H         1 RES1   0.0000
    24 C6      -4.9668  10.7070   5.8359   C.ar      1 RES1   0.0000
    25 C7      -4.4484   9.8876   4.7442   C.2       1 RES1   0.0000
    26 H5      -5.0930   9.4667   4.1871   H         1 RES1   0.0000
    27 C8      -2.9254   9.0209   3.1524   C.3       1 RES1   0.0000
    28 H6      -3.7500   8.6150   2.7849   H         1 RES1   0.0000
    29 H7      -2.5981   9.6957   2.5069   H         1 RES1   0.0000
    30 C9      -1.9045   7.9828   3.3427   C.3       1 RES1   0.0000
    31 H8      -1.6923   7.5772   2.4653   H         1 RES1   0.0000
    32 H9      -2.2769   7.2699   3.9216   H         1 RES1   0.0000
    33 C10      0.2989   8.8941   2.8842   C.3       1 RES1   0.0000
    34 H10     -0.1594   9.5269   2.2764   H         1 RES1   0.0000
    35 H11      0.5396   8.0911   2.3566   H         1 RES1   0.0000
    36 C11      1.5724   9.5421   3.3946   C.3       1 RES1   0.0000
    37 H12      2.0880   8.8796   3.9196   H         1 RES1   0.0000
    38 H13      2.1276   9.8240   2.6267   H         1 RES1   0.0000
    39 C12      2.0586  11.7186   4.0884   C.2       1 RES1   0.0000
    40 H14      2.6982  11.6517   3.3886   H         1 RES1   0.0000
    41 C13      2.0850  12.9531   4.8583   C.ar      1 RES1   0.0000
    42 C14      3.0617  13.9007   4.5158   C.ar      1 RES1   0.0000
    43 H15      3.6136  13.7379   3.7586   H         1 RES1   0.0000
    44 C15      3.2492  15.0586   5.2373   C.ar      1 RES1   0.0000
    45 H16      3.8988  15.6988   4.9709   H         1 RES1   0.0000
    46 C16      2.4591  15.2676   6.3723   C.ar      1 RES1   0.0000
    47 H17      2.6003  16.0413   6.9063   H         1 RES1   0.0000
    48 C17      1.4788  14.3702   6.7287   C.ar      1 RES1   0.0000
    49 H18      0.9535  14.5387   7.5021   H         1 RES1   0.0000
    50 C18      1.2326  13.2026   5.9709   C.ar      1 RES1   0.0000
    51 C19     -0.0142   7.4547   4.8099   C.3       1 RES1   0.0000
    52 H19      0.7826   7.8381   5.2568   H         1 RES1   0.0000
    53 H20      0.2938   6.7129   4.2314   H         1 RES1   0.0000
    54 C20     -0.9550   6.8932   5.8757   C.3       1 RES1   0.0000
    55 H21     -1.7020   7.5259   6.0240   H         1 RES1   0.0000
    56 H22     -1.3365   6.0354   5.5613   H         1 RES1   0.0000
    57 C21     -0.0139   5.4691   7.4778   C.2       1 RES1   0.0000
    58 H23     -0.2816   4.7949   6.8639   H         1 RES1   0.0000
    59 C22      0.6128   5.0205   8.7184   C.ar      1 RES1   0.0000
    60 C23      0.8484   3.6368   8.8516   C.ar      1 RES1   0.0000
    61 H24      0.6407   3.0617   8.1236   H         1 RES1   0.0000
    62 C24      1.3707   3.0934   9.9987   C.ar      1 RES1   0.0000
    63 H25      1.5281   2.1586  10.0632   H         1 RES1   0.0000
    64 C25      1.6636   3.9294  11.0593   C.ar      1 RES1   0.0000
    65 H26      2.0089   3.5614  11.8645   H         1 RES1   0.0000
    66 C26      1.4604   5.2950  10.9676   C.ar      1 RES1   0.0000
    67 H27      1.6819   5.8454  11.7097   H         1 RES1   0.0000
    68 C27      0.9315   5.9011   9.7928   C.ar      1 RES1   0.0000
    69 C28     -3.0064   9.1268   8.8256   C.ar      1 RES1   0.0000
    70 H28     -2.7689   9.8864   8.3073   H         1 RES1   0.0000
    71 C29     -4.2958   9.0418   9.3239   C.ar      1 RES1   0.0000
    72 H29     -4.9300   9.7257   9.1421   H         1 RES1   0.0000
    73 C30     -4.6482   7.9494  10.0887   C.ar      1 RES1   0.0000
    74 H30     -5.5226   7.8772  10.4554   H         1 RES1   0.0000
    75 C31     -3.7153   6.9698  10.3119   C.ar      1 RES1   0.0000
    76 H31     -3.9371   6.2075  10.8326   H         1 RES1   0.0000
    77 C32     -2.4438   7.0994   9.7703   C.ar      1 RES1   0.0000
    78 H32     -1.8125   6.4053   9.9157   H         1 RES1   0.0000
    79 C33      0.6909   9.8918  11.0195   C.ar      1 RES1   0.0000
    80 H33      0.8989   8.9952  11.2544   H         1 RES1   0.0000
    81 C34      0.8644  10.8811  11.9746   C.ar      1 RES1   0.0000
    82 H34      1.1742  10.6637  12.8449   H         1 RES1   0.0000
    83 C35      0.5770  12.1896  11.6355   C.ar      1 RES1   0.0000
    84 H35      0.7007  12.8913  12.2638   H         1 RES1   0.0000
    85 C36      0.1051  12.4585  10.3655   C.ar      1 RES1   0.0000
    86 H36     -0.1138  13.3455  10.1071   H         1 RES1   0.0000
    87 C37     -0.0381  11.4176   9.4814   C.ar      1 RES1   0.0000
    88 H37     -0.3573  11.6118   8.6081   H         1 RES1   0.0000
    89 C38      3.0656   7.8170   7.6976   C.ar      1 RES1   0.0000
    90 H38      2.7960   6.9556   7.9922   H         1 RES1   0.0000
    91 C39      4.3817   7.9982   7.3169   C.ar      1 RES1   0.0000
    92 H39      4.9967   7.2741   7.3480   H         1 RES1   0.0000
    93 C40      4.7895   9.2536   6.8896   C.ar      1 RES1   0.0000
    94 H40      5.6913   9.4105   6.6350   H         1 RES1   0.0000
    95 C41      3.8548  10.2722   6.8446   C.ar      1 RES1   0.0000
    96 H41      4.0988  11.1378   6.5414   H         1 RES1   0.0000
    97 C42      2.5531  10.0103   7.2495   C.ar      1 RES1   0.0000
    98 H42      1.9192  10.7184   7.2265   H         1 RES1   0.0000
    99 N8       5.2988   5.7422   4.6680   N.ar      2 RES2   0.0000
   100 C43      4.0100   5.4831   4.8705   C.ar      2 RES2   0.0000
   101 H43      3.3822   5.7997   4.2316   H         2 RES2   0.0000
   102 C44      3.5326   4.7794   5.9587   C.ar      2 RES2   0.0000
   103 H44      2.6012   4.6302   6.0683   H         2 RES2   0.0000
   104 C45      4.4381   4.2945   6.8844   C.ar      2 RES2   0.0000
   105 H45      4.1391   3.8109   7.6449   H         2 RES2   0.0000
   106 C46      5.7799   4.5272   6.6854   C.ar      2 RES2   0.0000
   107 H46      6.4301   4.1922   7.2912   H         2 RES2   0.0000
   108 C47      6.1461   5.2629   5.5746   C.ar      2 RES2   0.0000
   109 H47      7.0719   5.4388   5.4482   H         2 RES2   0.0000
   110 C48      4.9874   0.4027   9.2772   C.3       3 RES3   0.0000
   111 H48      5.8255   0.5032   9.7959   H         3 RES3   0.0000
   112 H49      4.6871   1.3080   9.0129   H         3 RES3   0.0000
   113 C49      3.9350  -0.2243  10.1648   C.3       3 RES3   0.0000
   114 H50      4.2093  -1.1485  10.3899   H         3 RES3   0.0000
   115 H51      3.0802  -0.2745   9.6671   H         3 RES3   0.0000
   116 C50      3.7187   0.5629  11.4555   C.3       3 RES3   0.0000
   117 H52      4.4441   0.3668  12.0834   H         3 RES3   0.0000
   118 H53      2.8614   0.3059  11.8549   H         3 RES3   0.0000
   119 H54      3.7102   1.5226  11.2549   H         3 RES3   0.0000
   120 C48B     5.2812  -0.4027   8.0246   C.3       3 RES3   0.0000
   121 H48B     4.4431  -0.5032   7.5059   H         3 RES3   0.0000
   122 H49B     5.5815  -1.3080   8.2889   H         3 RES3   0.0000
   123 C49B     6.3336   0.2243   7.1370   C.3       3 RES3   0.0000
   124 H50B     6.0593   1.1485   6.9119   H         3 RES3   0.0000
   125 H51B     7.1884   0.2745   7.6347   H         3 RES3   0.0000
   126 C50B     6.5499  -0.5629   5.8463   C.3       3 RES3   0.0000
   127 H52B     5.8245  -0.3668   5.2184   H         3 RES3   0.0000
   128 H53B     7.4073  -0.3059   5.4469   H         3 RES3   0.0000
   129 H54B     6.5584  -1.5226   6.0469   H         3 RES3   0.0000
@<TRIPOS>BOND
     1     1     3    1
     2     2     6    1
     3     3    15    1
     4     4     1    1
     5     5     1    2
     6     6     1    1
     7     7     2    1
     8     8     1    1
     9     9     1    1
    10    10     1    1
    11    11     2    1
    12    12     2    1
    13    13     2    1
    14    14     2    1
    15    15    16   ar
    16    16    17    1
    17    18    16   ar
    18    19    18    1
    19    20    18   ar
    20    21    20    1
    21    22    20   ar
    22    23    22    1
    23    24    15   ar
    24    25     8    2
    25    26    25    1
    26    27     8    1
    27    28    27    1
    28    29    27    1
    29    30     9    1
    30    31    30    1
    31    32    30    1
    32    33     9    1
    33    34    33    1
    34    35    33    1
    35    36    10    1
    36    37    36    1
    37    38    36    1
    38    39    10    2
    39    40    39    1
    40    41    39    1
    41    42    41   ar
    42    43    42    1
    43    44    42   ar
    44    45    44    1
    45    46    44   ar
    46    47    46    1
    47    48    46   ar
    48    49    48    1
    49    50     4    1
    50    51     9    1
    51    52    51    1
    52    53    51    1
    53    54    11    1
    54    55    54    1
    55    56    54    1
    56    57    11    2
    57    58    57    1
    58    59    57    1
    59    60    59   ar
    60    61    60    1
    61    62    60   ar
    62    63    62    1
    63    64    62   ar
    64    65    64    1
    65    66    64   ar
    66    67    66    1
    67    68     7    1
    68    69    12   ar
    69    70    69    1
    70    71    69   ar
    71    72    71    1
    72    73    71   ar
    73    74    73    1
    74    75    73   ar
    75    76    75    1
    76    77    12   ar
    77    78    77    1
    78    79    13   ar
    79    80    79    1
    80    81    79   ar
    81    82    81    1
    82    83    81   ar
    83    84    83    1
    84    85    83   ar
    85    86    85    1
    86    87    13   ar
    87    88    87    1
    88    89    14   ar
    89    90    89    1
    90    91    89   ar
    91    92    91    1
    92    93    91   ar
    93    94    93    1
    94    95    93   ar
    95    96    95    1
    96    97    14   ar
    97    98    97    1
    98    22    24   ar
    99    24    25    1
   100    27    30    1
   101    33    36    1
   102    41    50   ar
   103    48    50   ar
   104    51    54    1
   105    59    68   ar
   106    66    68   ar
   107    75    77   ar
   108    85    87   ar
   109    95    97   ar
   110    99   100   ar
   111   100   101    1
   112   102   100   ar
   113   103   102    1
   114   104   102   ar
   115   105   104    1
   116   106   104   ar
   117   107   106    1
   118   108    99   ar
   119   109   108    1
   120   106   108   ar
   121   110   111    1
   122   112   110    1
   123   113   110    1
   124   114   113    1
   125   115   113    1
   126   116   113    1
   127   117   116    1
   128   118   116    1
   129   119   116    1
   130   120   110    1
   131   121   120    1
   132   122   120    1
   133   123   120    1
   134   124   123    1
   135   125   123    1
   136   126   123    1
   137   127   126    1
   138   128   126    1
   139   129   126    1
@<TRIPOS>SUBSTRUCTURE
     1 RES1        1 GROUP             0 ****  ****    0  
     2 RES2       99 GROUP             0 ****  ****    0  
     3 RES3      110 GROUP             0 ****  ****    0  
@<TRIPOS>CRYSIN
   19.5691   13.9341   19.6431   90.0000  118.2600   90.0000    14     1
