@<TRIPOS>MOLECULE
SONWUO
   105   104     7     0     0
SMALL
USER_CHARGES
****
Generated from the CSD

@<TRIPOS>ATOM
     1 C1       1.3829   6.8363   6.1339   C.2       1 RES1   0.0000
     2 N1       1.4387   7.3142   4.9193   N.pl3     1 RES1   0.0000
     3 H1       2.1701   7.1855   4.4473   H         1 RES1   0.0000
     4 C2       0.3324   8.0554   4.3108   C.3       1 RES1   0.0000
     5 H2      -0.2305   7.4388   3.7793   H         1 RES1   0.0000
     6 H3       0.6904   8.7501   3.7030   H         1 RES1   0.0000
     7 C3      -0.5067   8.7086   5.3982   C.3       1 RES1   0.0000
     8 H4      -1.3360   9.0946   4.9937   H         1 RES1   0.0000
     9 O1       0.2203   9.7387   6.0642   O.3       1 RES1   0.0000
    10 H5       0.1524  10.4548   5.6288   H         1 RES1   0.0000
    11 C4      -0.8859   7.6562   6.4174   C.3       1 RES1   0.0000
    12 H6      -1.3559   8.0812   7.1772   H         1 RES1   0.0000
    13 H7      -1.4977   6.9966   6.0040   H         1 RES1   0.0000
    14 N2       0.3159   6.9828   6.8953   N.pl3     1 RES1   1.0000
    15 H8       0.3289   6.6654   7.7153   H         1 RES1   0.0000
    16 C5       2.5479   6.0886   6.6784   C.ar      1 RES1   0.0000
    17 C6       3.1339   5.0807   5.9292   C.ar      1 RES1   0.0000
    18 H9       2.8034   4.8785   5.0618   H         1 RES1   0.0000
    19 C7       4.2096   4.3624   6.4516   C.ar      1 RES1   0.0000
    20 H10      4.6083   3.6672   5.9422   H         1 RES1   0.0000
    21 C8       4.6949   4.6653   7.7130   C.ar      1 RES1   0.0000
    22 C9       4.1086   5.6888   8.4695   C.ar      1 RES1   0.0000
    23 H11      4.4449   5.8964   9.3338   H         1 RES1   0.0000
    24 C10      3.0376   6.3956   7.9526   C.ar      1 RES1   0.0000
    25 H12      2.6354   7.0899   8.4617   H         1 RES1   0.0000
    26 C11      5.8094   3.8694   8.2770   C.2       1 RES1   0.0000
    27 N3       6.8378   3.5550   7.5044   N.pl3     1 RES1   1.0000
    28 H13      6.8611   3.8694   6.6823   H         1 RES1   0.0000
    29 C12      7.9389   2.7033   7.9627   C.3       1 RES1   0.0000
    30 H14      8.6857   3.2671   8.2864   H         1 RES1   0.0000
    31 H15      8.2716   2.1514   7.2102   H         1 RES1   0.0000
    32 C13      7.4517   1.7983   9.0883   C.3       1 RES1   0.0000
    33 H16      8.2193   1.2891   9.4761   H         1 RES1   0.0000
    34 O2       6.4485   0.8944   8.6141   O.3       1 RES1   0.0000
    35 H17      6.8068   0.3045   8.1359   H         1 RES1   0.0000
    36 C14      6.7978   2.6575  10.1594   C.3       1 RES1   0.0000
    37 H18      6.4054   2.0825  10.8616   H         1 RES1   0.0000
    38 H19      7.4739   3.2471  10.5792   H         1 RES1   0.0000
    39 N4       5.7436   3.4721   9.5266   N.pl3     1 RES1   0.0000
    40 H20      5.0418   3.7005  10.0060   H         1 RES1   0.0000
    41 C15      1.3179   0.1738   1.8103   C.2       2 RES2   0.0000
    42 N5       0.2646  -0.5767   1.5699   N.pl3     2 RES2   0.0000
    43 H21      0.2877  -1.1513   0.9051   H         2 RES2   0.0000
    44 C16     -0.9468  -0.4743   2.3888   C.3       2 RES2   0.0000
    45 H22     -1.4258  -1.3402   2.3876   H         2 RES2   0.0000
    46 H23     -1.5494   0.2134   2.0103   H         2 RES2   0.0000
    47 C17     -0.5699  -0.1025   3.7991   C.3       2 RES2   0.0000
    48 H24     -1.4112   0.0933   4.3051   H         2 RES2   0.0000
    49 O3       0.0873  -1.1984   4.4374   O.3       2 RES2   0.0000
    50 H25      0.8794  -1.2468   4.1628   H         2 RES2   0.0000
    51 C18      0.2741   1.1595   3.7812   C.3       2 RES2   0.0000
    52 H26     -0.2834   1.9314   3.5133   H         2 RES2   0.0000
    53 H27      0.6328   1.3357   4.6865   H         2 RES2   0.0000
    54 N6       1.3822   0.9910   2.8317   N.pl3     2 RES2   1.0000
    55 H28      2.1181   1.4580   2.9546   H         2 RES2   0.0000
    56 C19      2.4848   0.0856   0.8814   C.ar      2 RES2   0.0000
    57 C20      3.0638   1.2495   0.3862   C.ar      2 RES2   0.0000
    58 H29      2.7292   2.0981   0.6515   H         2 RES2   0.0000
    59 C21      2.9662  -1.1677   0.4969   C.ar      2 RES2   0.0000
    60 H30      2.5647  -1.9581   0.8371   H         2 RES2   0.0000
    61 C15B     5.7799  -0.1738  -1.8103   C.2       2 RES2   0.0000
    62 N5B      6.8332   0.5767  -1.5699   N.pl3     2 RES2   1.0000
    63 H21B     6.8101   1.1513  -0.9051   H         2 RES2   0.0000
    64 C16B     8.0446   0.4743  -2.3888   C.3       2 RES2   0.0000
    65 H22B     8.5236   1.3402  -2.3876   H         2 RES2   0.0000
    66 H23B     8.6472  -0.2134  -2.0103   H         2 RES2   0.0000
    67 C17B     7.6677   0.1025  -3.7991   C.3       2 RES2   0.0000
    68 H24B     8.5090  -0.0933  -4.3051   H         2 RES2   0.0000
    69 O3B      7.0105   1.1984  -4.4374   O.3       2 RES2   0.0000
    70 H25B     6.2184   1.2468  -4.1628   H         2 RES2   0.0000
    71 C18B     6.8237  -1.1595  -3.7812   C.3       2 RES2   0.0000
    72 H26B     7.3812  -1.9314  -3.5133   H         2 RES2   0.0000
    73 H27B     6.4650  -1.3357  -4.6865   H         2 RES2   0.0000
    74 N6B      5.7156  -0.9910  -2.8317   N.pl3     2 RES2   0.0000
    75 H28B     4.9797  -1.4580  -2.9546   H         2 RES2   0.0000
    76 C19B     4.6130  -0.0856  -0.8814   C.ar      2 RES2   0.0000
    77 C20B     4.0340  -1.2495  -0.3862   C.ar      2 RES2   0.0000
    78 H29B     4.3686  -2.0981  -0.6515   H         2 RES2   0.0000
    79 C21B     4.1316   1.1677  -0.4969   C.ar      2 RES2   0.0000
    80 H30B     4.5331   1.9581  -0.8371   H         2 RES2   0.0000
    81 Fe1      5.5586   4.7742   2.0515   Fe        3 RES3   0.0000
    82 C22      6.7446   6.1415   1.3521   C.1       3 RES3  -1.0000
    83 N7       7.4204   6.9794   0.9373   N.1       3 RES3   0.0000
    84 C23      6.5678   3.3796   1.1472   C.1       3 RES3   0.0000
    85 N8       7.0662   2.5426   0.5256   N.1       3 RES3   0.0000
    86 C24      4.5468   4.8207   0.3975   C.1       3 RES3  -1.0000
    87 N9       4.0173   4.7909  -0.6344   N.1       3 RES3   0.0000
    88 C25      4.4050   3.4307   2.8344   C.1       3 RES3   0.0000
    89 N10      3.7579   2.6342   3.3643   N.1       3 RES3   0.0000
    90 C26      4.4854   6.2044   2.8125   C.1       3 RES3  -1.0000
    91 N11      3.8563   7.0681   3.2482   N.1       3 RES3   0.0000
    92 C27      6.5682   4.6267   3.7181   C.1       3 RES3   0.0000
    93 N12      7.0769   4.4775   4.7378   N.1       3 RES3   0.0000
    94 O4       3.0811   9.8421   3.1309   O.3       4 RES4   0.0000
    95 H31      3.1228   9.9503   3.9628   H         4 RES4   0.0000
    96 H32      3.8951   9.9348   3.1340   H         4 RES4   0.0000
    97 O5       3.1412   0.9015   5.5980   O.3       5 RES5   0.0000
    98 H33      3.5632   1.4358   5.1566   H         5 RES5   0.0000
    99 H34      3.4138   0.9646   6.3710   H         5 RES5   0.0000
   100 O6       3.7453   0.9270   8.2268   O.3       6 RES6   0.0000
   101 H35      3.5371   0.1689   8.3710   H         6 RES6   0.0000
   102 H36      4.6092   0.8423   8.0184   H         6 RES6   0.0000
   103 O7       2.7357  20.9008   9.4039   O.3       7 RES7   0.0000
   104 H37      2.3762  20.9586   8.6390   H         7 RES7   0.0000
   105 H38      2.4835  21.0475  10.1668   H         7 RES7   0.0000
@<TRIPOS>BOND
     1     1     2   un
     2     2     3    1
     3     4     2    1
     4     5     4    1
     5     6     4    1
     6     7     4    1
     7     8     7    1
     8     9     7    1
     9    10     9    1
    10    11     7    1
    11    12    11    1
    12    13    11    1
    13    14     1   un
    14    15    14    1
    15    16     1    1
    16    17    16   ar
    17    18    17    1
    18    19    17   ar
    19    20    19    1
    20    21    19   ar
    21    22    21   ar
    22    23    22    1
    23    24    16   ar
    24    25    24    1
    25    26    21    1
    26    27    26   un
    27    28    27    1
    28    29    27    1
    29    30    29    1
    30    31    29    1
    31    32    29    1
    32    33    32    1
    33    34    32    1
    34    35    34    1
    35    36    32    1
    36    37    36    1
    37    38    36    1
    38    39    26   un
    39    40    39    1
    40    11    14    1
    41    22    24   ar
    42    36    39    1
    43    41    42   un
    44    42    43    1
    45    44    42    1
    46    45    44    1
    47    46    44    1
    48    47    44    1
    49    48    47    1
    50    49    47    1
    51    50    49    1
    52    51    47    1
    53    52    51    1
    54    53    51    1
    55    54    41   un
    56    55    54    1
    57    56    41    1
    58    57    56   ar
    59    58    57    1
    60    59    56   ar
    61    60    59    1
    62    61    62   un
    63    62    63    1
    64    64    62    1
    65    65    64    1
    66    66    64    1
    67    67    64    1
    68    68    67    1
    69    69    67    1
    70    70    69    1
    71    71    67    1
    72    72    71    1
    73    73    71    1
    74    74    61   un
    75    75    74    1
    76    76    61    1
    77    77    59   ar
    78    78    77    1
    79    79    57   ar
    80    80    79    1
    81    51    54    1
    82    71    74    1
    83    76    77   ar
    84    76    79   ar
    85    81    82    1
    86    82    83    3
    87    84    81    1
    88    85    84    3
    89    86    81    1
    90    87    86    3
    91    88    81    1
    92    89    88    3
    93    90    81    1
    94    91    90    3
    95    92    81    1
    96    93    92    3
    97    94    95    1
    98    96    94    1
    99    97    98    1
   100    99    97    1
   101   100   101    1
   102   102   100    1
   103   103   104    1
   104   105   103    1
@<TRIPOS>SUBSTRUCTURE
     1 RES1        1 GROUP             0 ****  ****    0  
     2 RES2       41 GROUP             0 ****  ****    0  
     3 RES3       81 GROUP             0 ****  ****    0  
     4 RES4       94 GROUP             0 ****  ****    0  
     5 RES5       97 GROUP             0 ****  ****    0  
     6 RES6      100 GROUP             0 ****  ****    0  
     7 RES7      103 GROUP             0 ****  ****    0  
@<TRIPOS>CRYSIN
    7.0978   22.2254   20.6357   90.0000   92.3630   90.0000   231     1
