@<TRIPOS>MOLECULE
SONYED
   138   140     4     0     0
SMALL
USER_CHARGES
****
Generated from the CSD

@<TRIPOS>ATOM
     1 Te1     12.3358   6.3417   8.8220   Te        1 RES1   0.0000
     2 Te2      7.0765   4.9651   5.4790   Te        1 RES1   0.0000
     3 Te3      7.6534  11.1116   7.6186   Te        1 RES1   0.0000
     4 Fe1      9.4981   7.8110   6.4636   Fe        1 RES1   2.0000
     5 O1       9.8020   8.8407   8.1507   O.3       1 RES1  -1.0000
     6 O2       7.4916   7.8749   6.5231   O.3       1 RES1  -1.0000
     7 O3       9.6394   6.0352   7.3530   O.3       1 RES1  -1.0000
     8 O4       6.3945   2.6318   4.7495   O.3       1 RES1   0.0000
     9 H1       6.4837   2.5919   3.9155   H         1 RES1   0.0000
    10 N1      10.2959   5.8785   8.5243   N.pl3     1 RES1   1.0000
    11 O5      14.5036   6.1659  10.1298   O.3       1 RES1   0.0000
    12 H2      14.7654   6.8633  10.5175   H         1 RES1   0.0000
    13 N2       6.7485   6.7387   6.5929   N.pl3     1 RES1   1.0000
    14 N3       8.8688   9.6802   8.7014   N.pl3     1 RES1   1.0000
    15 O6       6.0757  12.8030   7.4694   O.3       1 RES1   0.0000
    16 H3       5.9266  13.4145   6.8308   H         1 RES1   0.0000
    17 C1      11.8318   5.4606  10.6353   C.2       1 RES1   0.0000
    18 C2       8.7346   9.7191  10.0109   C.2       1 RES1   0.0000
    19 C3      10.5380   5.1020  10.6935   C.2       1 RES1   0.0000
    20 H4      10.1835   4.7103  11.4833   H         1 RES1   0.0000
    21 C4       5.6713   6.7340   7.3440   C.2       1 RES1   0.0000
    22 C5       9.6919   5.3194   9.5442   C.2       1 RES1   0.0000
    23 C6       8.2443   4.9763   9.4796   C.3       1 RES1   0.0000
    24 H5       7.7145   5.7995   9.4369   H         1 RES1   0.0000
    25 H6       7.9927   4.4672  10.2787   H         1 RES1   0.0000
    26 H7       8.0713   4.4350   8.6806   H         1 RES1   0.0000
    27 C7       7.1268  11.4491   9.5843   C.2       1 RES1   0.0000
    28 C8       4.9543   5.4809   7.3453   C.2       1 RES1   0.0000
    29 H8       4.1870   5.3674   7.8938   H         1 RES1   0.0000
    30 C9       5.3826   4.4802   6.5671   C.2       1 RES1   0.0000
    31 C10     12.8710   5.3569  11.7082   C.3       1 RES1   0.0000
    32 H9      12.6528   4.5988  12.3070   H         1 RES1   0.0000
    33 H10     12.8711   6.1856  12.2495   H         1 RES1   0.0000
    34 C11      7.7806  10.6728  10.4866   C.2       1 RES1   0.0000
    35 H11      7.6059  10.7606  11.4159   H         1 RES1   0.0000
    36 C12     14.2368   5.1465  11.1058   C.3       1 RES1   0.0000
    37 H12     14.9236   5.1797  11.8183   H         1 RES1   0.0000
    38 H13     14.2788   4.2554  10.6774   H         1 RES1   0.0000
    39 C13      9.5639   8.8431  10.8900   C.3       1 RES1   0.0000
    40 H14      9.2431   7.9196  10.8268   H         1 RES1   0.0000
    41 H15      9.4947   9.1511  11.8174   H         1 RES1   0.0000
    42 H16     10.5000   8.8842  10.6012   H         1 RES1   0.0000
    43 C14      6.1272  13.5351   8.7039   C.3       1 RES1   0.0000
    44 H17      5.3523  14.1468   8.7724   H         1 RES1   0.0000
    45 H18      6.9574  14.0737   8.7487   H         1 RES1   0.0000
    46 C15      5.0027   2.5057   5.0895   C.3       1 RES1   0.0000
    47 H19      4.7327   1.5539   5.0793   H         1 RES1   0.0000
    48 H20      4.4450   2.9989   4.4370   H         1 RES1   0.0000
    49 C16      6.0989  12.5201   9.8390   C.3       1 RES1   0.0000
    50 H21      6.2915  12.9721  10.6977   H         1 RES1   0.0000
    51 H22      5.1983  12.1118   9.8990   H         1 RES1   0.0000
    52 C17      4.8247   3.0853   6.4727   C.3       1 RES1   0.0000
    53 H23      3.8611   3.1025   6.6978   H         1 RES1   0.0000
    54 H24      5.2821   2.5049   7.1314   H         1 RES1   0.0000
    55 C18      5.2974   7.9310   8.1584   C.3       1 RES1   0.0000
    56 H25      5.9987   8.1084   8.8188   H         1 RES1   0.0000
    57 H26      4.4496   7.7594   8.6198   H         1 RES1   0.0000
    58 H27      5.1974   8.7077   7.5698   H         1 RES1   0.0000
    59 Te1A     6.6604   9.2803   4.1053   Te        1 RES1   0.0000
    60 Te2A    11.9197  10.6570   7.4483   Te        1 RES1   0.0000
    61 Te3A    11.3428   4.5104   5.3087   Te        1 RES1   0.0000
    62 O1A      9.1942   6.7813   4.7766   O.3       1 RES1  -1.0000
    63 O2A     11.5046   7.7471   6.4042   O.3       1 RES1  -1.0000
    64 O3A      9.3568   9.5869   5.5742   O.3       1 RES1  -1.0000
    65 O4A     12.6017  12.9902   8.1778   O.3       1 RES1   0.0000
    66 H1A     12.5125  13.0302   9.0118   H         1 RES1   0.0000
    67 N1A      8.7002   9.7436   4.4030   N.pl3     1 RES1   1.0000
    68 O5A      4.4926   9.4562   2.7975   O.3       1 RES1   0.0000
    69 H2A      4.2308   8.7588   2.4098   H         1 RES1   0.0000
    70 N2A     12.2477   8.8833   6.3344   N.pl3     1 RES1   1.0000
    71 N3A     10.1274   5.9418   4.2259   N.pl3     1 RES1   1.0000
    72 O6A     12.9205   2.8190   5.4579   O.3       1 RES1   0.0000
    73 H3A     13.0696   2.2075   6.0965   H         1 RES1   0.0000
    74 C1A      7.1644  10.1615   2.2920   C.2       1 RES1   0.0000
    75 C2A     10.2616   5.9029   2.9164   C.2       1 RES1   0.0000
    76 C3A      8.4582  10.5200   2.2338   C.2       1 RES1   0.0000
    77 H4A      8.8127  10.9117   1.4440   H         1 RES1   0.0000
    78 C4A     13.3249   8.8880   5.5833   C.2       1 RES1   0.0000
    79 C5A      9.3043  10.3026   3.3831   C.2       1 RES1   0.0000
    80 C6A     10.7519  10.6458   3.4477   C.3       1 RES1   0.0000
    81 H5A     11.2817   9.8225   3.4904   H         1 RES1   0.0000
    82 H6A     11.0035  11.1548   2.6486   H         1 RES1   0.0000
    83 H7A     10.9249  11.1870   4.2467   H         1 RES1   0.0000
    84 C7A     11.8693   4.1730   3.3430   C.2       1 RES1   0.0000
    85 C8A     14.0419  10.1411   5.5820   C.2       1 RES1   0.0000
    86 H8A     14.8092  10.2547   5.0335   H         1 RES1   0.0000
    87 C9A     13.6136  11.1419   6.3602   C.2       1 RES1   0.0000
    88 C10A     6.1252  10.2651   1.2190   C.3       1 RES1   0.0000
    89 H9A      6.3434  11.0232   0.6203   H         1 RES1   0.0000
    90 H10A     6.1251   9.4365   0.6778   H         1 RES1   0.0000
    91 C11A    11.2156   4.9492   2.4407   C.2       1 RES1   0.0000
    92 H11A    11.3903   4.8614   1.5114   H         1 RES1   0.0000
    93 C12A     4.7594  10.4755   1.8215   C.3       1 RES1   0.0000
    94 H12A     4.0726  10.4424   1.1090   H         1 RES1   0.0000
    95 H13A     4.7174  11.3666   2.2499   H         1 RES1   0.0000
    96 C13A     9.4323   6.7790   2.0373   C.3       1 RES1   0.0000
    97 H14A     9.7531   7.7025   2.1005   H         1 RES1   0.0000
    98 H15A     9.5015   6.4709   1.1099   H         1 RES1   0.0000
    99 H16A     8.4962   6.7379   2.3261   H         1 RES1   0.0000
   100 C14A    12.8690   2.0870   4.2233   C.3       1 RES1   0.0000
   101 H17A    13.6439   1.4752   4.1549   H         1 RES1   0.0000
   102 H18A    12.0388   1.5484   4.1786   H         1 RES1   0.0000
   103 C15A    13.9935  13.1163   7.8378   C.3       1 RES1   0.0000
   104 H19A    14.2635  14.0681   7.8480   H         1 RES1   0.0000
   105 H20A    14.5512  12.6232   8.4902   H         1 RES1   0.0000
   106 C16A    12.8973   3.1019   3.0883   C.3       1 RES1   0.0000
   107 H21A    12.7047   2.6500   2.2296   H         1 RES1   0.0000
   108 H22A    13.7979   3.5103   3.0283   H         1 RES1   0.0000
   109 C17A    14.1715  12.5368   6.4546   C.3       1 RES1   0.0000
   110 H23A    15.1351  12.5196   6.2294   H         1 RES1   0.0000
   111 H24A    13.7141  13.1171   5.7959   H         1 RES1   0.0000
   112 C18A    13.6988   7.6911   4.7689   C.3       1 RES1   0.0000
   113 H25A    12.9975   7.5136   4.1085   H         1 RES1   0.0000
   114 H26A    14.5466   7.8627   4.3075   H         1 RES1   0.0000
   115 H27A    13.7988   6.9144   5.3575   H         1 RES1   0.0000
   116 F1       6.6081   7.6558  11.9539   F         2 RES2   0.0000
   117 F2       8.0598   6.0170  12.5576   F         2 RES2   0.0000
   118 F3       6.7788   6.9408  14.1024   F         2 RES2   0.0000
   119 F4       5.8429   5.6235  12.5162   F         2 RES2   0.0000
   120 B1       6.8019   6.5419  12.7670   B         2 RES2  -1.0000
   121 O7       7.6331   1.7446  10.8163   O.3       3 RES3   0.0000
   122 H28      7.5425   1.0533  10.3474   H         3 RES3   0.0000
   123 C19      6.4074   2.0421  11.4588   C.3       3 RES3   0.0000
   124 H29      6.5106   2.8627  12.0031   H         3 RES3   0.0000
   125 H30      6.1631   1.2995  12.0655   H         3 RES3   0.0000
   126 C20      5.3332   2.2415  10.4659   C.3       3 RES3   0.0000
   127 H31      4.4746   2.3349  10.9286   H         3 RES3   0.0000
   128 H32      5.2981   1.4693   9.8639   H         3 RES3   0.0000
   129 H33      5.5150   3.0526   9.9469   H         3 RES3   0.0000
   130 O8       3.9190   8.1677  11.6423   O.3       4 RES4   0.0000
   131 H34      4.7257   8.0609  11.8483   H         4 RES4   0.0000
   132 C21      3.6715   9.5422  11.3941   C.3       4 RES4   0.0000
   133 H35      4.1605   9.8382  10.5864   H         4 RES4   0.0000
   134 H36      3.9736  10.0884  12.1628   H         4 RES4   0.0000
   135 C22      2.1764   9.7042  11.1912   C.3       4 RES4   0.0000
   136 H37      1.9069   9.2455  10.3687   H         4 RES4   0.0000
   137 H38      1.9578  10.6570  11.1212   H         4 RES4   0.0000
   138 H39      1.6993   9.3151  11.9540   H         4 RES4   0.0000
@<TRIPOS>BOND
     1     1    10    1
     2     2    13    1
     3     3    14    1
     4     4     5    1
     5     5    14    1
     6     6     4    1
     7     7     4    1
     8     8     9    1
     9    10     7    1
    10    11    12    1
    11    13     6    1
    12    14    18    2
    13    15    16    1
    14    17     1    1
    15    18    34    1
    16    19    17    2
    17    20    19    1
    18    21    13    2
    19    22    10    2
    20    23    22    1
    21    24    23    1
    22    25    23    1
    23    26    23    1
    24    27     3    1
    25    28    21    1
    26    29    28    1
    27    30     2    1
    28    31    17    1
    29    32    31    1
    30    33    31    1
    31    34    27    2
    32    35    34    1
    33    36    11    1
    34    37    36    1
    35    38    36    1
    36    39    18    1
    37    40    39    1
    38    41    39    1
    39    42    39    1
    40    43    15    1
    41    44    43    1
    42    45    43    1
    43    46     8    1
    44    47    46    1
    45    48    46    1
    46    49    27    1
    47    50    49    1
    48    51    49    1
    49    52    30    1
    50    53    52    1
    51    54    52    1
    52    55    21    1
    53    56    55    1
    54    57    55    1
    55    58    55    1
    56    59    67    1
    57    60    70    1
    58    61    71    1
    59    62     4    1
    60    63     4    1
    61    64     4    1
    62    65    66    1
    63    67    64    1
    64    68    69    1
    65    70    63    1
    66    71    62    1
    67    72    73    1
    68    74    59    1
    69    75    71    2
    70    76    74    2
    71    77    76    1
    72    78    70    2
    73    79    67    2
    74    80    79    1
    75    81    80    1
    76    82    80    1
    77    83    80    1
    78    84    61    1
    79    85    78    1
    80    86    85    1
    81    87    60    1
    82    88    74    1
    83    89    88    1
    84    90    88    1
    85    91    75    1
    86    92    91    1
    87    93    68    1
    88    94    93    1
    89    95    93    1
    90    96    75    1
    91    97    96    1
    92    98    96    1
    93    99    96    1
    94   100    72    1
    95   101   100    1
    96   102   100    1
    97   103    65    1
    98   104   103    1
    99   105   103    1
   100   106    84    1
   101   107   106    1
   102   108   106    1
   103   109    87    1
   104   110   109    1
   105   111   109    1
   106   112    78    1
   107   113   112    1
   108   114   112    1
   109   115   112    1
   110    19    22    1
   111    28    30    2
   112    31    36    1
   113    43    49    1
   114    46    52    1
   115    76    79    1
   116    84    91    2
   117    85    87    2
   118    88    93    1
   119   100   106    1
   120   103   109    1
   121   116   120    1
   122   117   120    1
   123   118   120    1
   124   119   120    1
   125   121   122    1
   126   123   121    1
   127   124   123    1
   128   125   123    1
   129   126   123    1
   130   127   126    1
   131   128   126    1
   132   129   126    1
   133   130   131    1
   134   132   130    1
   135   133   132    1
   136   134   132    1
   137   135   132    1
   138   136   135    1
   139   137   135    1
   140   138   135    1
@<TRIPOS>SUBSTRUCTURE
     1 RES1        1 GROUP             0 ****  ****    0  
     2 RES2      116 GROUP             0 ****  ****    0  
     3 RES3      121 GROUP             0 ****  ****    0  
     4 RES4      130 GROUP             0 ****  ****    0  
@<TRIPOS>CRYSIN
   11.4553   12.3121   13.8982   68.8860   78.2500   67.5050     2     1
