@<TRIPOS>MOLECULE
SOPPUM03
   142   154     2     0     0
SMALL
USER_CHARGES
****
Generated from the CSD

@<TRIPOS>ATOM
     1 Fe1      2.1273  -0.6645  12.5130   Fe        1 RES1   1.0000
     2 O1       2.4891  -2.2060  11.4460   O.3       1 RES1   0.0000
     3 O2       3.8102  -0.5405  13.4033   O.3       1 RES1   0.0000
     4 N1       0.9260   3.1540  13.9021   N.pl3     1 RES1   0.0000
     5 N2       1.2460   1.8949  14.2144   N.2       1 RES1   0.0000
     6 N3       1.6291   1.3535  13.0752   N.2       1 RES1   0.0000
     7 N4       2.4136   0.4389  10.7421   N.2       1 RES1   0.0000
     8 N5      -2.0096  -0.8977  11.6711   N.pl3     1 RES1   0.0000
     9 N6      -0.8179  -0.4129  11.3287   N.2       1 RES1   0.0000
    10 N7       0.0119  -0.8761  12.2378   N.2       1 RES1   0.0000
    11 N8       1.4753  -1.6897  14.2452   N.2       1 RES1   0.0000
    12 C1      -4.0783   0.8697  17.1382   C.3       1 RES1   0.0000
    13 H1      -4.2232  -0.0793  17.1215   H         1 RES1   0.0000
    14 H2      -3.5975   1.1060  17.9345   H         1 RES1   0.0000
    15 H3      -4.9236   1.3232  17.1270   H         1 RES1   0.0000
    16 C2      -3.2971   1.2634  15.9620   C.3       1 RES1   0.0000
    17 H4      -3.7832   0.9897  15.1688   H         1 RES1   0.0000
    18 H5      -2.4607   0.7731  15.9741   H         1 RES1   0.0000
    19 C3      -2.9867   2.7096  15.8426   C.3       1 RES1   0.0000
    20 H6      -3.7047   3.1447  15.3548   H         1 RES1   0.0000
    21 H7      -2.9573   3.0987  16.7307   H         1 RES1   0.0000
    22 C4      -1.7618   2.9750  15.1856   C.3       1 RES1   0.0000
    23 H8      -1.3338   2.1074  15.1175   H         1 RES1   0.0000
    24 H9      -2.0209   3.2091  14.2803   H         1 RES1   0.0000
    25 C5      -0.8126   3.7714  15.4544   C.3       1 RES1   0.0000
    26 H10     -0.6395   3.5853  16.3899   H         1 RES1   0.0000
    27 H11     -1.2535   4.6352  15.4478   H         1 RES1   0.0000
    28 C6       0.4656   4.0789  14.9633   C.3       1 RES1   0.0000
    29 H12      1.0990   4.0538  15.6976   H         1 RES1   0.0000
    30 H13      0.4584   4.9823  14.6103   H         1 RES1   0.0000
    31 C7       1.0907   3.4070  12.6113   C.2       1 RES1   0.0000
    32 H14      0.9203   4.2062  12.1675   H         1 RES1   0.0000
    33 C8       1.5598   2.2528  12.0754   C.2       1 RES1   0.0000
    34 C9       2.0094   1.8566  10.7194   C.3       1 RES1   0.0000
    35 H15      1.2881   1.9837  10.0829   H         1 RES1   0.0000
    36 H16      2.7579   2.4089  10.4455   H         1 RES1   0.0000
    37 C10      2.9255  -0.0188   9.6431   C.2       1 RES1   0.0000
    38 H17      3.0896   0.6054   8.9736   H         1 RES1   0.0000
    39 C11      3.2648  -1.3675   9.3448   C.ar      1 RES1   0.0000
    40 C12      3.8951  -1.6867   8.0711   C.ar      1 RES1   0.0000
    41 C13      4.3508  -0.7026   7.1628   C.ar      1 RES1   0.0000
    42 H18      4.2139   0.1973   7.3558   H         1 RES1   0.0000
    43 C14      4.9905  -1.0546   6.0016   C.ar      1 RES1   0.0000
    44 H19      5.2847  -0.3877   5.4233   H         1 RES1   0.0000
    45 C15      5.2070  -2.3762   5.6751   C.ar      1 RES1   0.0000
    46 H20      5.6393  -2.5987   4.8823   H         1 RES1   0.0000
    47 C16      4.7803  -3.3615   6.5298   C.ar      1 RES1   0.0000
    48 H21      4.9211  -4.2535   6.3102   H         1 RES1   0.0000
    49 C17      4.1248  -3.0328   7.7441   C.ar      1 RES1   0.0000
    50 C18      3.7252  -4.0518   8.6472   C.ar      1 RES1   0.0000
    51 H22      3.8445  -4.9424   8.4067   H         1 RES1   0.0000
    52 C19      3.1764  -3.7609   9.8511   C.ar      1 RES1   0.0000
    53 H23      2.9373  -4.4517  10.4261   H         1 RES1   0.0000
    54 C20      2.9618  -2.4157  10.2448   C.ar      1 RES1   0.0000
    55 C21     -4.2740   5.3274  10.8161   C.3       1 RES1   0.0000
    56 H24     -4.1038   5.9811  10.1341   H         1 RES1   0.0000
    57 H25     -5.2207   5.2291  10.9369   H         1 RES1   0.0000
    58 H26     -3.8737   5.6137  11.6406   H         1 RES1   0.0000
    59 C22     -3.6567   3.9484  10.3848   C.3       1 RES1   0.0000
    60 H27     -4.0517   3.6307   9.5592   H         1 RES1   0.0000
    61 H28     -2.6942   4.0183  10.2683   H         1 RES1   0.0000
    62 C23     -3.9617   3.1253  11.4232   C.3       1 RES1   0.0000
    63 H29     -4.9120   2.9314  11.4267   H         1 RES1   0.0000
    64 H30     -3.7303   3.5474  12.2650   H         1 RES1   0.0000
    65 C24     -3.1849   1.8773  11.2457   C.3       1 RES1   0.0000
    66 H31     -2.6436   2.0031  10.4513   H         1 RES1   0.0000
    67 H32     -2.5692   1.8309  11.9936   H         1 RES1   0.0000
    68 C25     -3.7145   0.7111  11.1412   C.3       1 RES1   0.0000
    69 H33     -4.4055   0.8294  10.4712   H         1 RES1   0.0000
    70 H34     -4.1861   0.5943  11.9806   H         1 RES1   0.0000
    71 C26     -3.2009  -0.5469  10.8708   C.3       1 RES1   0.0000
    72 H35     -2.9680  -0.5931   9.9299   H         1 RES1   0.0000
    73 H36     -3.8916  -1.2077  11.0349   H         1 RES1   0.0000
    74 C27     -1.9497  -1.6606  12.7550   C.2       1 RES1   0.0000
    75 H37     -2.6516  -2.1052  13.1728   H         1 RES1   0.0000
    76 C28     -0.6491  -1.6537  13.1211   C.2       1 RES1   0.0000
    77 C29      0.1408  -2.3296  14.1692   C.3       1 RES1   0.0000
    78 H38      0.2379  -3.2715  13.9556   H         1 RES1   0.0000
    79 H39     -0.3106  -2.2561  15.0242   H         1 RES1   0.0000
    80 C30      2.1432  -1.8438  15.3378   C.2       1 RES1   0.0000
    81 H40      1.7049  -2.2859  16.0286   H         1 RES1   0.0000
    82 C31      3.4750  -1.4151  15.6095   C.ar      1 RES1   0.0000
    83 C32      4.0781  -1.7010  16.8980   C.ar      1 RES1   0.0000
    84 C33      3.3912  -2.3606  17.9469   C.ar      1 RES1   0.0000
    85 H41      2.4971  -2.5924  17.8349   H         1 RES1   0.0000
    86 C34      4.0259  -2.6610  19.1284   C.ar      1 RES1   0.0000
    87 H42      3.5613  -3.1088  19.7979   H         1 RES1   0.0000
    88 C35      5.3574  -2.3062  19.3369   C.ar      1 RES1   0.0000
    89 H43      5.7793  -2.5245  20.1367   H         1 RES1   0.0000
    90 C36      6.0327  -1.6448  18.3764   C.ar      1 RES1   0.0000
    91 H44      6.9119  -1.3855  18.5304   H         1 RES1   0.0000
    92 C37      5.4162  -1.3376  17.1247   C.ar      1 RES1   0.0000
    93 C38      6.1498  -0.6804  16.1058   C.ar      1 RES1   0.0000
    94 H45      7.0300  -0.4280  16.2680   H         1 RES1   0.0000
    95 C39      5.5927  -0.4103  14.8983   C.ar      1 RES1   0.0000
    96 H46      6.0969   0.0243  14.2488   H         1 RES1   0.0000
    97 C40      4.2544  -0.7816  14.6105   C.ar      1 RES1   0.0000
    98 C41      4.5297   5.4720  12.1210   C.ar      2 RES2   0.0000
    99 C42      4.1102   4.7063  13.1784   C.ar      2 RES2   0.0000
   100 H47      3.5291   5.0756  13.8035   H         2 RES2   0.0000
   101 C43      4.5463   3.3456  13.3409   C.ar      2 RES2   0.0000
   102 H48      4.2768   2.8538  14.0842   H         2 RES2   0.0000
   103 C44      5.3409   2.7896  12.4186   C.ar      2 RES2   0.0000
   104 H49      5.6081   1.9040  12.5121   H         2 RES2   0.0000
   105 C45      5.7611   3.5099  11.3469   C.ar      2 RES2   0.0000
   106 H50      6.3074   3.1161  10.7047   H         2 RES2   0.0000
   107 C46      5.3758   4.8232  11.2159   C.ar      2 RES2   0.0000
   108 H51      5.6952   5.3058  10.4871   H         2 RES2   0.0000
   109 C47      2.5494   6.7203  11.0062   C.ar      2 RES2   0.0000
   110 C48      1.2824   6.8315  11.5999   C.ar      2 RES2   0.0000
   111 H52      1.2228   7.1508  12.4714   H         2 RES2   0.0000
   112 C49      0.1086   6.4813  10.9305   C.ar      2 RES2   0.0000
   113 H53     -0.7134   6.5722  11.3555   H         2 RES2   0.0000
   114 C50      0.1703   5.9980   9.6399   C.ar      2 RES2   0.0000
   115 H54     -0.6080   5.7544   9.1927   H         2 RES2   0.0000
   116 C51      1.3965   5.8794   9.0195   C.ar      2 RES2   0.0000
   117 H55      1.4475   5.5571   8.1481   H         2 RES2   0.0000
   118 C52      2.5474   6.2358   9.6867   C.ar      2 RES2   0.0000
   119 H56      3.3606   6.1528   9.2438   H         2 RES2   0.0000
   120 C53      5.0707   7.8169  10.9206   C.ar      2 RES2   0.0000
   121 C54      4.8080   8.5680   9.8101   C.ar      2 RES2   0.0000
   122 H57      3.9335   8.6075   9.4939   H         2 RES2   0.0000
   123 C55      5.8005   9.2808   9.1306   C.ar      2 RES2   0.0000
   124 H58      5.5796   9.7611   8.3654   H         2 RES2   0.0000
   125 C56      7.0794   9.2810   9.5719   C.ar      2 RES2   0.0000
   126 H59      7.7385   9.7530   9.1165   H         2 RES2   0.0000
   127 C57      7.3773   8.5888  10.6800   C.ar      2 RES2   0.0000
   128 H60      8.2485   8.5997  11.0068   H         2 RES2   0.0000
   129 C58      6.4046   7.8558  11.3464   C.ar      2 RES2   0.0000
   130 H61      6.6482   7.3724  12.1030   H         2 RES2   0.0000
   131 C59      3.7280   7.9352  13.1301   C.ar      2 RES2   0.0000
   132 C60      2.9379   9.0871  13.0629   C.ar      2 RES2   0.0000
   133 H62      2.5003   9.2817  12.2658   H         2 RES2   0.0000
   134 C61      2.7805   9.9473  14.1322   C.ar      2 RES2   0.0000
   135 H63      2.2343  10.6968  14.0579   H         2 RES2   0.0000
   136 C62      3.4578   9.6760  15.3335   C.ar      2 RES2   0.0000
   137 H64      3.3635  10.2404  16.0667   H         2 RES2   0.0000
   138 C63      4.2330   8.5997  15.4043   C.ar      2 RES2   0.0000
   139 H65      4.6919   8.4242  16.1944   H         2 RES2   0.0000
   140 C64      4.3787   7.7348  14.3414   C.ar      2 RES2   0.0000
   141 H66      4.9313   6.9934  14.4377   H         2 RES2   0.0000
   142 B1       3.9641   6.9969  11.8084   B         2 RES2  -1.0000
@<TRIPOS>BOND
     1     1     2    1
     2     2    54    1
     3     3     1    1
     4     4     5    1
     5     5     6    2
     6     6     1    1
     7     7     1    1
     8     8     9    1
     9     9    10    2
    10    10     1    1
    11    11     1    1
    12    12    13    1
    13    14    12    1
    14    15    12    1
    15    16    12    1
    16    17    16    1
    17    18    16    1
    18    19    16    1
    19    20    19    1
    20    21    19    1
    21    22    19    1
    22    23    22    1
    23    24    22    1
    24    25    22    1
    25    26    25    1
    26    27    25    1
    27    28     4    1
    28    29    28    1
    29    30    28    1
    30    31     4    1
    31    32    31    1
    32    33     6    1
    33    34     7    1
    34    35    34    1
    35    36    34    1
    36    37     7    2
    37    38    37    1
    38    39    37    1
    39    40    39   ar
    40    41    40   ar
    41    42    41    1
    42    43    41   ar
    43    44    43    1
    44    45    43   ar
    45    46    45    1
    46    47    45   ar
    47    48    47    1
    48    49    40   ar
    49    50    49   ar
    50    51    50    1
    51    52    50   ar
    52    53    52    1
    53    54    39   ar
    54    55    56    1
    55    57    55    1
    56    58    55    1
    57    59    55    1
    58    60    59    1
    59    61    59    1
    60    62    59    1
    61    63    62    1
    62    64    62    1
    63    65    62    1
    64    66    65    1
    65    67    65    1
    66    68    65    1
    67    69    68    1
    68    70    68    1
    69    71     8    1
    70    72    71    1
    71    73    71    1
    72    74     8    1
    73    75    74    1
    74    76    10    1
    75    77    11    1
    76    78    77    1
    77    79    77    1
    78    80    11    2
    79    81    80    1
    80    82    80    1
    81    83    82   ar
    82    84    83   ar
    83    85    84    1
    84    86    84   ar
    85    87    86    1
    86    88    86   ar
    87    89    88    1
    88    90    88   ar
    89    91    90    1
    90    92    83   ar
    91    93    92   ar
    92    94    93    1
    93    95    93   ar
    94    96    95    1
    95    97     3    1
    96    25    28    1
    97    31    33    2
    98    33    34    1
    99    47    49   ar
   100    52    54   ar
   101    68    71    1
   102    74    76    2
   103    76    77    1
   104    82    97   ar
   105    90    92   ar
   106    95    97   ar
   107    98    99   ar
   108    99   100    1
   109   101    99   ar
   110   102   101    1
   111   103   101   ar
   112   104   103    1
   113   105   103   ar
   114   106   105    1
   115   107    98   ar
   116   108   107    1
   117   109   110   ar
   118   110   111    1
   119   112   110   ar
   120   113   112    1
   121   114   112   ar
   122   115   114    1
   123   116   114   ar
   124   117   116    1
   125   118   109   ar
   126   119   118    1
   127   120   121   ar
   128   121   122    1
   129   123   121   ar
   130   124   123    1
   131   125   123   ar
   132   126   125    1
   133   127   125   ar
   134   128   127    1
   135   129   120   ar
   136   130   129    1
   137   131   132   ar
   138   132   133    1
   139   134   132   ar
   140   135   134    1
   141   136   134   ar
   142   137   136    1
   143   138   136   ar
   144   139   138    1
   145   140   131   ar
   146   141   140    1
   147   142    98    1
   148   105   107   ar
   149   109   142    1
   150   116   118   ar
   151   120   142    1
   152   127   129   ar
   153   131   142    1
   154   138   140   ar
@<TRIPOS>SUBSTRUCTURE
     1 RES1        1 GROUP             0 ****  ****    0  
     2 RES2       98 GROUP             0 ****  ****    0  
@<TRIPOS>CRYSIN
   13.9178   14.1124   17.1203   96.9390   98.2410  115.2960     2     1
