@<TRIPOS>MOLECULE
SOPPUM04
   142   154     2     0     0
SMALL
USER_CHARGES
****
Generated from the CSD

@<TRIPOS>ATOM
     1 Fe1     11.6090  13.3153  11.5537   Fe        1 RES1   1.0000
     2 O1      11.0243  14.9819  10.9333   O.3       1 RES1   0.0000
     3 O2       9.9262  12.7789  12.1952   O.3       1 RES1   0.0000
     4 N1      13.5017   9.9434  12.6877   N.pl3     1 RES1   0.0000
     5 N2      13.0897  11.1671  13.0220   N.2       1 RES1   0.0000
     6 N3      12.3712  11.5763  11.9896   N.2       1 RES1   0.0000
     7 N4      11.2069  12.4233   9.8846   N.2       1 RES1   0.0000
     8 N5      15.4313  13.9940  10.4112   N.pl3     1 RES1   0.0000
     9 N6      14.2221  13.5264  10.0714   N.2       1 RES1   0.0000
    10 N7      13.4520  13.7858  11.1133   N.2       1 RES1   0.0000
    11 N8      12.0452  14.2112  13.2137   N.2       1 RES1   0.0000
    12 C1      17.3541  12.0084  16.9170   C.3       1 RES1   0.0000
    13 H1      17.6133  12.9348  16.7282   H         1 RES1   0.0000
    14 H2      18.0120  11.6022  17.5196   H         1 RES1   0.0000
    15 H3      16.4713  11.9973  17.3430   H         1 RES1   0.0000
    16 C2      17.3008  11.2197  15.6150   C.3       1 RES1   0.0000
    17 H4      17.1649  10.2622  15.8277   H         1 RES1   0.0000
    18 H5      18.1733  11.3043  15.1549   H         1 RES1   0.0000
    19 C3      16.1960  11.6757  14.6636   C.3       1 RES1   0.0000
    20 H6      15.3179  11.4695  15.0737   H         1 RES1   0.0000
    21 H7      16.2532  12.6575  14.5558   H         1 RES1   0.0000
    22 C4      16.2549  11.0262  13.2851   C.3       1 RES1   0.0000
    23 H8      17.1734  11.1351  12.9299   H         1 RES1   0.0000
    24 H9      15.6444  11.5192  12.6820   H         1 RES1   0.0000
    25 C5      15.8919   9.5435  13.2308   C.3       1 RES1   0.0000
    26 H10     16.4807   9.0498  13.8553   H         1 RES1   0.0000
    27 H11     16.0742   9.2057  12.3181   H         1 RES1   0.0000
    28 C6      14.4284   9.2326  13.5862   C.3       1 RES1   0.0000
    29 H12     14.2726   8.2576  13.5156   H         1 RES1   0.0000
    30 H13     14.2527   9.5039  14.5220   H         1 RES1   0.0000
    31 C7      13.0680   9.5659  11.4585   C.2       1 RES1   0.0000
    32 H14     13.2335   8.7447  11.0106   H         1 RES1   0.0000
    33 C8      12.3365  10.6363  11.0074   C.2       1 RES1   0.0000
    34 C9      11.5945  10.9928   9.7653   C.3       1 RES1   0.0000
    35 H15     12.1698  10.8578   8.9709   H         1 RES1   0.0000
    36 H16     10.7891  10.4251   9.6713   H         1 RES1   0.0000
    37 C10     10.5936  12.9459   8.8671   C.2       1 RES1   0.0000
    38 H17     10.4115  12.3754   8.1297   H         1 RES1   0.0000
    39 C11     10.1666  14.3145   8.7607   C.ar      1 RES1   0.0000
    40 C12      9.4198  14.7447   7.5875   C.ar      1 RES1   0.0000
    41 C13      9.0150  13.8644   6.5501   C.ar      1 RES1   0.0000
    42 H18      9.2667  12.9497   6.5902   H         1 RES1   0.0000
    43 C14      8.2610  14.3156   5.4819   C.ar      1 RES1   0.0000
    44 H19      7.9990  13.7032   4.8037   H         1 RES1   0.0000
    45 C15      7.8713  15.6681   5.3824   C.ar      1 RES1   0.0000
    46 H20      7.3505  15.9673   4.6465   H         1 RES1   0.0000
    47 C16      8.2559  16.5426   6.3602   C.ar      1 RES1   0.0000
    48 H21      8.0005  17.4557   6.2959   H         1 RES1   0.0000
    49 C17      9.0301  16.1131   7.4705   C.ar      1 RES1   0.0000
    50 C18      9.4174  17.0306   8.4845   C.ar      1 RES1   0.0000
    51 H22      9.2023  17.9502   8.3852   H         1 RES1   0.0000
    52 C19     10.0896  16.6194   9.5948   C.ar      1 RES1   0.0000
    53 H23     10.3286  17.2578  10.2565   H         1 RES1   0.0000
    54 C20     10.4433  15.2476   9.7860   C.ar      1 RES1   0.0000
    55 C21     18.4868   7.7171   9.9242   C.3       1 RES1   0.0000
    56 H24     19.3795   7.9489   9.5927   H         1 RES1   0.0000
    57 H25     18.2113   6.8561   9.5454   H         1 RES1   0.0000
    58 H26     18.5081   7.6518  10.9017   H         1 RES1   0.0000
    59 C22     17.4931   8.7980   9.5077   C.3       1 RES1   0.0000
    60 H27     17.3877   8.7808   8.5232   H         1 RES1   0.0000
    61 H28     16.6100   8.6000   9.9103   H         1 RES1   0.0000
    62 C23     17.9374  10.1902   9.9385   C.3       1 RES1   0.0000
    63 H29     18.7987  10.4009   9.4977   H         1 RES1   0.0000
    64 H30     18.0930  10.1874  10.9163   H         1 RES1   0.0000
    65 C24     16.9288  11.2883   9.6019   C.3       1 RES1   0.0000
    66 H31     16.0935  11.1340  10.1105   H         1 RES1   0.0000
    67 H32     16.7109  11.2496   8.6370   H         1 RES1   0.0000
    68 C25     17.4816  12.6746   9.9424   C.3       1 RES1   0.0000
    69 H33     17.6246  12.7243  10.9208   H         1 RES1   0.0000
    70 H34     18.3650  12.7762   9.5067   H         1 RES1   0.0000
    71 C26     16.5938  13.8439   9.5203   C.3       1 RES1   0.0000
    72 H35     17.1251  14.6796   9.5332   H         1 RES1   0.0000
    73 H36     16.2783  13.6979   8.5933   H         1 RES1   0.0000
    74 C27     15.4477  14.5382  11.6472   C.2       1 RES1   0.0000
    75 H37     16.1840  14.9307  12.1012   H         1 RES1   0.0000
    76 C28     14.1602  14.3956  12.0983   C.2       1 RES1   0.0000
    77 C29     13.4363  14.6985  13.3682   C.3       1 RES1   0.0000
    78 H38     13.8768  14.2441  14.1297   H         1 RES1   0.0000
    79 H39     13.4410  15.6740  13.5399   H         1 RES1   0.0000
    80 C30     11.2195  14.5138  14.1620   C.2       1 RES1   0.0000
    81 H40     11.5424  15.0692  14.8619   H         1 RES1   0.0000
    82 C31      9.8502  14.0762  14.2420   C.ar      1 RES1   0.0000
    83 C32      9.0247  14.5236  15.3574   C.ar      1 RES1   0.0000
    84 C33      9.4350  15.5161  16.2843   C.ar      1 RES1   0.0000
    85 H41     10.3093  15.8821  16.2197   H         1 RES1   0.0000
    86 C34      8.5860  15.9592  17.2783   C.ar      1 RES1   0.0000
    87 H42      8.8766  16.6441  17.8689   H         1 RES1   0.0000
    88 C35      7.2970  15.4143  17.4328   C.ar      1 RES1   0.0000
    89 H43      6.7239  15.7206  18.1258   H         1 RES1   0.0000
    90 C36      6.8783  14.4307  16.5662   C.ar      1 RES1   0.0000
    91 H44      6.0156  14.0485  16.6727   H         1 RES1   0.0000
    92 C37      7.7171  13.9822  15.5174   C.ar      1 RES1   0.0000
    93 C38      7.2527  13.0186  14.5714   C.ar      1 RES1   0.0000
    94 H45      6.3927  12.6330  14.6905   H         1 RES1   0.0000
    95 C39      8.0044  12.6369  13.5056   C.ar      1 RES1   0.0000
    96 H46      7.6578  11.9971  12.8948   H         1 RES1   0.0000
    97 C40      9.3184  13.1864  13.2863   C.ar      1 RES1   0.0000
    98 C41     10.3436   7.1472  12.3272   C.ar      2 RES2   0.0000
    99 C42     11.0012   7.4176  13.5433   C.ar      2 RES2   0.0000
   100 H47     11.5161   6.7289  13.9465   H         2 RES2   0.0000
   101 C43     10.9246   8.6568  14.1788   C.ar      2 RES2   0.0000
   102 H48     11.3626   8.7936  15.0108   H         2 RES2   0.0000
   103 C44     10.2042   9.6919  13.5870   C.ar      2 RES2   0.0000
   104 H49     10.1609  10.5446  14.0039   H         2 RES2   0.0000
   105 C45      9.5500   9.4695  12.3864   C.ar      2 RES2   0.0000
   106 H50      9.0558  10.1712  11.9790   H         2 RES2   0.0000
   107 C46      9.6133   8.2167  11.7726   C.ar      2 RES2   0.0000
   108 H51      9.1494   8.0814  10.9547   H         2 RES2   0.0000
   109 C47     11.8283   6.1125  10.5010   C.ar      2 RES2   0.0000
   110 C48     13.1657   5.9853  10.9297   C.ar      2 RES2   0.0000
   111 H52     13.3329   5.5900  11.7772   H         2 RES2   0.0000
   112 C49     14.2529   6.4110  10.1711   C.ar      2 RES2   0.0000
   113 H53     15.1368   6.2908  10.4977   H         2 RES2   0.0000
   114 C50     14.0432   7.0164   8.9280   C.ar      2 RES2   0.0000
   115 H54     14.7780   7.3050   8.4006   H         2 RES2   0.0000
   116 C51     12.7407   7.1874   8.4777   C.ar      2 RES2   0.0000
   117 H55     12.5821   7.6126   7.6430   H         2 RES2   0.0000
   118 C52     11.6588   6.7378   9.2469   C.ar      2 RES2   0.0000
   119 H56     10.7782   6.8583   8.9117   H         2 RES2   0.0000
   120 C53      9.1943   5.3255  10.6778   C.ar      2 RES2   0.0000
   121 C54      9.2084   4.6863   9.4323   C.ar      2 RES2   0.0000
   122 H57     10.0405   4.5758   8.9878   H         2 RES2   0.0000
   123 C55      8.0442   4.2007   8.8111   C.ar      2 RES2   0.0000
   124 H58      8.1007   3.7857   7.9587   H         2 RES2   0.0000
   125 C56      6.8153   4.3281   9.4411   C.ar      2 RES2   0.0000
   126 H59      6.0254   3.9927   9.0326   H         2 RES2   0.0000
   127 C57      6.7588   4.9551  10.6822   C.ar      2 RES2   0.0000
   128 H60      5.9256   5.0458  11.1289   H         2 RES2   0.0000
   129 C58      7.9230   5.4515  11.2748   C.ar      2 RES2   0.0000
   130 H61      7.8551   5.8920  12.1138   H         2 RES2   0.0000
   131 C59     10.8579   4.4675  12.4691   C.ar      2 RES2   0.0000
   132 C60     11.6884   3.4093  12.0619   C.ar      2 RES2   0.0000
   133 H62     12.1297   3.4761  11.2233   H         2 RES2   0.0000
   134 C61     11.8942   2.2643  12.8343   C.ar      2 RES2   0.0000
   135 H63     12.4825   1.5835  12.5295   H         2 RES2   0.0000
   136 C62     11.2338   2.1229  14.0535   C.ar      2 RES2   0.0000
   137 H64     11.3737   1.3515  14.5902   H         2 RES2   0.0000
   138 C63     10.3670   3.1266  14.4741   C.ar      2 RES2   0.0000
   139 H65      9.8909   3.0286  15.2900   H         2 RES2   0.0000
   140 C64     10.1940   4.2802  13.7006   C.ar      2 RES2   0.0000
   141 H66      9.6098   4.9601  14.0150   H         2 RES2   0.0000
   142 B1      10.5563   5.7591  11.4868   B         2 RES2  -1.0000
@<TRIPOS>BOND
     1     1     2    1
     2     2    54    1
     3     3     1    1
     4     4     5    1
     5     5     6    2
     6     6     1    1
     7     7     1    1
     8     8     9    1
     9     9    10    2
    10    10     1    1
    11    11     1    1
    12    12    13    1
    13    14    12    1
    14    15    12    1
    15    16    12    1
    16    17    16    1
    17    18    16    1
    18    19    16    1
    19    20    19    1
    20    21    19    1
    21    22    19    1
    22    23    22    1
    23    24    22    1
    24    25    22    1
    25    26    25    1
    26    27    25    1
    27    28     4    1
    28    29    28    1
    29    30    28    1
    30    31     4    1
    31    32    31    1
    32    33     6    1
    33    34     7    1
    34    35    34    1
    35    36    34    1
    36    37     7    2
    37    38    37    1
    38    39    37    1
    39    40    39   ar
    40    41    40   ar
    41    42    41    1
    42    43    41   ar
    43    44    43    1
    44    45    43   ar
    45    46    45    1
    46    47    45   ar
    47    48    47    1
    48    49    40   ar
    49    50    49   ar
    50    51    50    1
    51    52    50   ar
    52    53    52    1
    53    54    39   ar
    54    55    56    1
    55    57    55    1
    56    58    55    1
    57    59    55    1
    58    60    59    1
    59    61    59    1
    60    62    59    1
    61    63    62    1
    62    64    62    1
    63    65    62    1
    64    66    65    1
    65    67    65    1
    66    68    65    1
    67    69    68    1
    68    70    68    1
    69    71     8    1
    70    72    71    1
    71    73    71    1
    72    74     8    1
    73    75    74    1
    74    76    10    1
    75    77    11    1
    76    78    77    1
    77    79    77    1
    78    80    11    2
    79    81    80    1
    80    82    80    1
    81    83    82   ar
    82    84    83   ar
    83    85    84    1
    84    86    84   ar
    85    87    86    1
    86    88    86   ar
    87    89    88    1
    88    90    88   ar
    89    91    90    1
    90    92    83   ar
    91    93    92   ar
    92    94    93    1
    93    95    93   ar
    94    96    95    1
    95    97     3    1
    96    25    28    1
    97    31    33    2
    98    33    34    1
    99    47    49   ar
   100    52    54   ar
   101    68    71    1
   102    74    76    2
   103    76    77    1
   104    82    97   ar
   105    90    92   ar
   106    95    97   ar
   107    98    99   ar
   108    99   100    1
   109   101    99   ar
   110   102   101    1
   111   103   101   ar
   112   104   103    1
   113   105   103   ar
   114   106   105    1
   115   107    98   ar
   116   108   107    1
   117   109   110   ar
   118   110   111    1
   119   112   110   ar
   120   113   112    1
   121   114   112   ar
   122   115   114    1
   123   116   114   ar
   124   117   116    1
   125   118   109   ar
   126   119   118    1
   127   120   121   ar
   128   121   122    1
   129   123   121   ar
   130   124   123    1
   131   125   123   ar
   132   126   125    1
   133   127   125   ar
   134   128   127    1
   135   129   120   ar
   136   130   129    1
   137   131   132   ar
   138   132   133    1
   139   134   132   ar
   140   135   134    1
   141   136   134   ar
   142   137   136    1
   143   138   136   ar
   144   139   138    1
   145   140   131   ar
   146   141   140    1
   147   142    98    1
   148   105   107   ar
   149   109   142    1
   150   116   118   ar
   151   120   142    1
   152   127   129   ar
   153   131   142    1
   154   138   140   ar
@<TRIPOS>SUBSTRUCTURE
     1 RES1        1 GROUP             0 ****  ****    0  
     2 RES2       98 GROUP             0 ****  ****    0  
@<TRIPOS>CRYSIN
   14.2177   14.4364   15.8796   75.7420   85.5600   61.1520     2     1
