@<TRIPOS>MOLECULE
SOPWIE
   105   112     4     0     0
SMALL
USER_CHARGES
****
Generated from the CSD

@<TRIPOS>ATOM
     1 Fe1      0.1508   0.7200   4.9356   Fe        1 RES1   2.0000
     2 O1       1.7705   0.8143   1.8117   O.3       1 RES1   0.0000
     3 N1       1.7907  -0.0490   4.0051   N.3       1 RES1   0.0000
     4 O2       1.1251  -2.8531   4.2046   O.3       1 RES1   0.0000
     5 N2      -1.4982   1.6204   5.5903   N.ar      1 RES1   0.0000
     6 N3       0.2980   2.4041   3.9148   N.2       1 RES1   0.0000
     7 N4      -0.8313  -0.1127   3.3969   N.ar      1 RES1   0.0000
     8 N5       1.1317   1.3682   6.5421   N.ar      1 RES1   0.0000
     9 N6       0.0220  -0.9255   6.0559   N.2       1 RES1   0.0000
    10 N7      -0.6716  -4.9674   3.8435   N.pl3     1 RES1   0.0000
    11 N8      -0.7778  -5.6153   1.7610   N.pl3     1 RES1   1.0000
    12 N9       2.3297  -5.3293   3.5173   N.ar      1 RES1   0.0000
    13 C1      -2.3611   1.2145   6.5484   C.ar      1 RES1   0.0000
    14 H1      -2.1512   0.4628   7.0536   H         1 RES1   0.0000
    15 C2      -3.5565   1.8867   6.8034   C.ar      1 RES1   0.0000
    16 H2      -4.1331   1.5821   7.4669   H         1 RES1   0.0000
    17 C3      -3.8780   3.0057   6.0654   C.ar      1 RES1   0.0000
    18 H3      -4.6739   3.4597   6.2253   H         1 RES1   0.0000
    19 C4      -2.9992   3.4488   5.0772   C.ar      1 RES1   0.0000
    20 H4      -3.2058   4.1917   4.5577   H         1 RES1   0.0000
    21 C5      -1.8228   2.7671   4.8856   C.ar      1 RES1   0.0000
    22 C6      -0.7436   3.1440   3.9765   C.2       1 RES1   0.0000
    23 H5      -0.8133   3.9086   3.4524   H         1 RES1   0.0000
    24 C7       1.4560   2.8699   3.0754   C.3       1 RES1   0.0000
    25 H6       1.1098   3.2742   2.2662   H         1 RES1   0.0000
    26 H7       1.9378   3.5546   3.5648   H         1 RES1   0.0000
    27 C8       2.4132   1.7875   2.6985   C.3       1 RES1   0.0000
    28 H8       3.1780   2.1861   2.2345   H         1 RES1   0.0000
    29 C9       2.9211   0.9272   3.8435   C.3       1 RES1   0.0000
    30 H9       3.7486   0.4778   3.6107   H         1 RES1   0.0000
    31 H10      3.0571   1.4496   4.6496   H         1 RES1   0.0000
    32 C10      1.4217  -0.3603   2.5560   C.3       1 RES1   0.0000
    33 H11      1.9393  -1.1288   2.2345   H         1 RES1   0.0000
    34 C11     -0.0357  -0.6294   2.4151   C.ar      1 RES1   0.0000
    35 C12     -0.5790  -1.3107   1.3160   C.ar      1 RES1   0.0000
    36 H12     -0.0239  -1.6656   0.6588   H         1 RES1   0.0000
    37 C13     -1.9391  -1.4472   1.2273   C.ar      1 RES1   0.0000
    38 H13     -2.3139  -1.8849   0.4973   H         1 RES1   0.0000
    39 C14     -2.7657  -0.9276   2.2266   C.ar      1 RES1   0.0000
    40 H14     -3.6886  -1.0297   2.1839   H         1 RES1   0.0000
    41 C15     -2.1763  -0.2655   3.2766   C.ar      1 RES1   0.0000
    42 H15     -2.7232   0.0977   3.9354   H         1 RES1   0.0000
    43 C16      1.6137   2.6015   6.8049   C.ar      1 RES1   0.0000
    44 H16      1.5222   3.2598   6.1541   H         1 RES1   0.0000
    45 C17      2.2422   2.9381   8.0022   C.ar      1 RES1   0.0000
    46 H17      2.5582   3.8000   8.1510   H         1 RES1   0.0000
    47 C18      2.3849   1.9571   8.9603   C.ar      1 RES1   0.0000
    48 H18      2.8073   2.1556   9.7648   H         1 RES1   0.0000
    49 C19      1.9123   0.7074   8.7386   C.ar      1 RES1   0.0000
    50 H19      2.0192   0.0403   9.3784   H         1 RES1   0.0000
    51 C20      1.2559   0.4332   7.5192   C.ar      1 RES1   0.0000
    52 C21      0.6461  -0.8380   7.1945   C.2       1 RES1   0.0000
    53 H20      0.6982  -1.5625   7.7757   H         1 RES1   0.0000
    54 C22     -0.5969  -2.2414   5.7471   C.3       1 RES1   0.0000
    55 H21     -1.2079  -2.1379   5.0012   H         1 RES1   0.0000
    56 H22     -1.1102  -2.5396   6.5136   H         1 RES1   0.0000
    57 C23      0.4479  -3.3039   5.3971   C.3       1 RES1   0.0000
    58 H23      1.1007  -3.3439   6.1256   H         1 RES1   0.0000
    59 C24     -0.1662  -4.7168   5.2102   C.3       1 RES1   0.0000
    60 H24      0.5081  -5.3830   5.4224   H         1 RES1   0.0000
    61 H25     -0.8964  -4.8287   5.8405   H         1 RES1   0.0000
    62 C25     -1.9026  -4.6080   3.3795   C.2       1 RES1   0.0000
    63 H26     -2.5612  -4.1694   3.8689   H         1 RES1   0.0000
    64 C26     -2.0054  -5.0018   2.0746   C.2       1 RES1   0.0000
    65 C27     -3.0208  -4.9380   1.0563   C.2       1 RES1   0.0000
    66 H27     -3.8548  -4.5720   1.2416   H         1 RES1   0.0000
    67 C28     -2.7347  -5.4276  -0.1916   C.2       1 RES1   0.0000
    68 H28     -3.3727  -5.3680  -0.8647   H         1 RES1   0.0000
    69 C29     -1.4915  -6.0214  -0.4672   C.2       1 RES1   0.0000
    70 H29     -1.3363  -6.3644  -1.3176   H         1 RES1   0.0000
    71 C30     -0.5158  -6.1116   0.4593   C.2       1 RES1   0.0000
    72 H30      0.3073  -6.4898   0.2502   H         1 RES1   0.0000
    73 C31      0.0366  -5.5850   2.8474   C.2       1 RES1   0.0000
    74 C32      1.3994  -6.1507   2.9503   C.ar      1 RES1   0.0000
    75 C33      1.6891  -7.4227   2.5133   C.ar      1 RES1   0.0000
    76 H31      1.0227  -7.9590   2.1474   H         1 RES1   0.0000
    77 C34      2.9810  -7.8890   2.6304   C.ar      1 RES1   0.0000
    78 H32      3.2049  -8.7432   2.3359   H         1 RES1   0.0000
    79 C35      3.9394  -7.0670   3.1926   C.ar      1 RES1   0.0000
    80 H33      4.8220  -7.3515   3.2671   H         1 RES1   0.0000
    81 C36      3.5661  -5.8134   3.6408   C.ar      1 RES1   0.0000
    82 H34      4.2096  -5.2813   4.0510   H         1 RES1   0.0000
    83 H35      2.0309  -0.8966   4.3392   H         1 RES1   0.0000
    84 H36      1.6521  -3.4989   4.0066   H         1 RES1   0.0000
    85 P1      -1.8795  -8.6559   4.9546   P.3       2 RES2  -1.0000
    86 F1      -1.7831  -7.9819   3.5252   F         2 RES2   0.0000
    87 F2      -1.2112  -9.9661   4.3883   F         2 RES2   0.0000
    88 F3      -1.9707  -9.3596   6.3441   F         2 RES2   0.0000
    89 F4      -2.5461  -7.3388   5.4905   F         2 RES2   0.0000
    90 F5      -0.4445  -8.0678   5.3068   F         2 RES2   0.0000
    91 F6      -3.3172  -9.2433   4.5482   F         2 RES2   0.0000
    92 P2      -2.8325   3.5495   0.4414   P.3       3 RES3  -1.0000
    93 F7      -1.5804   4.1655   1.0848   F         3 RES3   0.0000
    94 F8      -3.4874   3.7649   1.7262   F         3 RES3   0.0000
    95 F9      -4.0818   3.0057  -0.0871   F         3 RES3   0.0000
    96 F10     -1.9778   3.5120  -0.8568   F         3 RES3   0.0000
    97 F11     -3.2685   5.0106  -0.0428   F         3 RES3   0.0000
    98 F12     -2.3028   2.1575   0.8156   F         3 RES3   0.0000
    99 P3      -3.6985  10.6094   9.6623   P.3       4 RES4  -1.0000
   100 F13     -2.5715   9.5664   9.7046   F         4 RES4   0.0000
   101 F14     -3.3506  10.8397  11.2012   F         4 RES4   0.0000
   102 F15     -4.8063  11.7330   9.7521   F         4 RES4   0.0000
   103 F16     -3.9964  10.4348   8.2191   F         4 RES4   0.0000
   104 F17     -2.7016  11.7974   9.3657   F         4 RES4   0.0000
   105 F18     -4.7272   9.5184  10.0498   F         4 RES4   0.0000
@<TRIPOS>BOND
     1     1     3    1
     2     2    27    1
     3     3    29    1
     4     4    57    1
     5     5     1    1
     6     6     1    1
     7     7     1    1
     8     8     1    1
     9     9     1    1
    10    10    59    1
    11    11    64    1
    12    12    74   ar
    13    13     5   ar
    14    14    13    1
    15    15    13   ar
    16    16    15    1
    17    17    15   ar
    18    18    17    1
    19    19    17   ar
    20    20    19    1
    21    21     5   ar
    22    22     6    2
    23    23    22    1
    24    24     6    1
    25    25    24    1
    26    26    24    1
    27    27    24    1
    28    28    27    1
    29    29    27    1
    30    30    29    1
    31    31    29    1
    32    32     2    1
    33    33    32    1
    34    34     7   ar
    35    35    34   ar
    36    36    35    1
    37    37    35   ar
    38    38    37    1
    39    39    37   ar
    40    40    39    1
    41    41     7   ar
    42    42    41    1
    43    43     8   ar
    44    44    43    1
    45    45    43   ar
    46    46    45    1
    47    47    45   ar
    48    48    47    1
    49    49    47   ar
    50    50    49    1
    51    51     8   ar
    52    52     9    2
    53    53    52    1
    54    54     9    1
    55    55    54    1
    56    56    54    1
    57    57    54    1
    58    58    57    1
    59    59    57    1
    60    60    59    1
    61    61    59    1
    62    62    10    1
    63    63    62    1
    64    64    62    2
    65    65    64    1
    66    66    65    1
    67    67    65    2
    68    68    67    1
    69    69    67    1
    70    70    69    1
    71    71    11    1
    72    72    71    1
    73    73    10   un
    74    74    73    1
    75    75    74   ar
    76    76    75    1
    77    77    75   ar
    78    78    77    1
    79    79    77   ar
    80    80    79    1
    81    81    12   ar
    82    82    81    1
    83    83     3    1
    84    84     4    1
    85     3    32    1
    86    11    73   un
    87    19    21   ar
    88    21    22    1
    89    32    34    1
    90    39    41   ar
    91    49    51   ar
    92    51    52    1
    93    69    71    2
    94    79    81   ar
    95    85    86    1
    96    87    85    1
    97    88    85    1
    98    89    85    1
    99    90    85    1
   100    91    85    1
   101    92    93    1
   102    94    92    1
   103    95    92    1
   104    96    92    1
   105    97    92    1
   106    98    92    1
   107    99   100    1
   108   101    99    1
   109   102    99    1
   110   103    99    1
   111   104    99    1
   112   105    99    1
@<TRIPOS>SUBSTRUCTURE
     1 RES1        1 GROUP             0 ****  ****    0  
     2 RES2       85 GROUP             0 ****  ****    0  
     3 RES3       92 GROUP             0 ****  ****    0  
     4 RES4       99 GROUP             0 ****  ****    0  
@<TRIPOS>CRYSIN
    9.4490   15.7930   17.6940  108.0470  102.4520  107.0970     2     1
