@<TRIPOS>MOLECULE
SOQFIQ
   108   115     1     0     0
SMALL
NO_CHARGES
****
Generated from the CSD

@<TRIPOS>ATOM
     1 Fe1      6.5471   8.0112   3.5889   Fe        1 RES1   0.0000
     2 O1       8.3454   7.5471   3.9895   O.3       1 RES1   0.0000
     3 N1       6.0222   5.8380   4.2115   N.3       1 RES1   0.0000
     4 C1       6.6883  10.8882   4.4072   C.ar      1 RES1   0.0000
     5 O2       6.8077   9.8734   3.5526   O.3       1 RES1   0.0000
     6 N2       5.4458   8.3509   5.4359   N.3       1 RES1   0.0000
     7 C2       6.7234  12.2280   3.9751   C.ar      1 RES1   0.0000
     8 O3       6.6789   7.6681   1.5418   O.co2     1 RES1   0.0000
     9 C3       6.5976  13.2315   4.9363   C.ar      1 RES1   0.0000
    10 H1       6.6285  14.1355   4.6463   H         1 RES1   0.0000
    11 O4       4.7436   8.0552   2.4345   O.co2     1 RES1   0.0000
    12 C4       6.4270  12.9801   6.3006   C.ar      1 RES1   0.0000
    13 C5       6.3547  11.6487   6.6870   C.ar      1 RES1   0.0000
    14 H2       6.2086  11.4419   7.6026   H         1 RES1   0.0000
    15 C6       6.4878  10.6137   5.7798   C.ar      1 RES1   0.0000
    16 C7       6.8982  12.5693   2.4820   C.3       1 RES1   0.0000
    17 C8       5.7255  11.9877   1.6801   C.3       1 RES1   0.0000
    18 H3       5.7011  11.0149   1.7960   H         1 RES1   0.0000
    19 H4       5.8417  12.2008   0.7307   H         1 RES1   0.0000
    20 H5       4.8853  12.3763   2.0017   H         1 RES1   0.0000
    21 C9       8.2292  12.0025   1.9737   C.3       1 RES1   0.0000
    22 H6       8.9658  12.3746   2.5031   H         1 RES1   0.0000
    23 H7       8.3488  12.2450   1.0321   H         1 RES1   0.0000
    24 H8       8.2238  11.0268   2.0624   H         1 RES1   0.0000
    25 C10      6.9215  14.0907   2.2438   C.3       1 RES1   0.0000
    26 H9       6.0756  14.4820   2.5457   H         1 RES1   0.0000
    27 H10      7.0427  14.2701   1.2884   H         1 RES1   0.0000
    28 H11      7.6631  14.4888   2.7473   H         1 RES1   0.0000
    29 C11      6.2928  14.1063   7.3352   C.3       1 RES1   0.0000
    30 C12      6.6071  15.4799   6.7410   C.3       1 RES1   0.0000
    31 H12      5.9997  15.6586   5.9929   H         1 RES1   0.0000
    32 H13      7.5328  15.4927   6.4211   H         1 RES1   0.0000
    33 H14      6.4889  16.1674   7.4291   H         1 RES1   0.0000
    34 C13      4.8534  14.1337   7.8670   C.3       1 RES1   0.0000
    35 H15      4.7493  14.8849   8.4878   H         1 RES1   0.0000
    36 H16      4.6630  13.2941   8.3358   H         1 RES1   0.0000
    37 H17      4.2302  14.2389   7.1188   H         1 RES1   0.0000
    38 C14      7.2598  13.8688   8.4986   C.3       1 RES1   0.0000
    39 H18      8.1766  13.8155   8.1564   H         1 RES1   0.0000
    40 H19      7.0300  13.0294   8.9492   H         1 RES1   0.0000
    41 H20      7.1924  14.6105   9.1364   H         1 RES1   0.0000
    42 C15      6.4052   9.1929   6.2479   C.3       1 RES1   0.0000
    43 H21      6.1179   9.1830   7.1958   H         1 RES1   0.0000
    44 H22      7.3069   8.7865   6.2024   H         1 RES1   0.0000
    45 C16      4.1160   9.0368   5.3338   C.3       1 RES1   0.0000
    46 H23      3.6142   8.7084   4.5459   H         1 RES1   0.0000
    47 H24      4.2347  10.0163   5.2494   H         1 RES1   0.0000
    48 C17      3.3712   8.6900   6.6357   C.3       1 RES1   0.0000
    49 H25      3.4941   9.4060   7.3083   H         1 RES1   0.0000
    50 H26      2.4024   8.5794   6.4634   H         1 RES1   0.0000
    51 C18      3.9818   7.3770   7.1302   C.3       1 RES1   0.0000
    52 H27      3.3149   6.6468   7.0940   H         1 RES1   0.0000
    53 H28      4.3002   7.4709   8.0634   H         1 RES1   0.0000
    54 C19      5.1665   7.0818   6.1787   C.3       1 RES1   0.0000
    55 H29      5.9676   6.8652   6.7363   H         1 RES1   0.0000
    56 C20      3.6429   5.8693   4.3947   C.3       1 RES1   0.0000
    57 H30      2.8846   5.5216   4.9270   H         1 RES1   0.0000
    58 H31      3.4108   6.7684   4.0512   H         1 RES1   0.0000
    59 C21      3.9909   4.9214   3.2535   C.3       1 RES1   0.0000
    60 H32      3.5578   5.2174   2.4134   H         1 RES1   0.0000
    61 H33      3.6835   4.0030   3.4605   H         1 RES1   0.0000
    62 C22      5.5095   4.9568   3.1122   C.3       1 RES1   0.0000
    63 H34      5.8848   4.0446   3.1969   H         1 RES1   0.0000
    64 H35      5.7650   5.3229   2.2286   H         1 RES1   0.0000
    65 C23      7.2168   5.2185   4.8490   C.3       1 RES1   0.0000
    66 H36      6.9942   4.2896   5.1100   H         1 RES1   0.0000
    67 H37      7.4337   5.7191   5.6748   H         1 RES1   0.0000
    68 C24      8.4313   5.1948   3.9640   C.ar      1 RES1   0.0000
    69 C25      9.0333   3.9997   3.5997   C.ar      1 RES1   0.0000
    70 H38      8.6315   3.1770   3.8525   H         1 RES1   0.0000
    71 C26     10.2209   3.9887   2.8670   C.ar      1 RES1   0.0000
    72 C27     10.7707   5.2253   2.5429   C.ar      1 RES1   0.0000
    73 H39     11.5886   5.2322   2.0598   H         1 RES1   0.0000
    74 C28     10.2018   6.4653   2.8809   C.ar      1 RES1   0.0000
    75 C29      8.9762   6.4321   3.5997   C.ar      1 RES1   0.0000
    76 C30     10.9082   2.6592   2.5166   C.3       1 RES1   0.0000
    77 C31     11.7273   2.1998   3.7368   C.3       1 RES1   0.0000
    78 H40     11.1354   2.1093   4.5118   H         1 RES1   0.0000
    79 H41     12.4230   2.8619   3.9315   H         1 RES1   0.0000
    80 H42     12.1455   1.3347   3.5418   H         1 RES1   0.0000
    81 C32      9.9011   1.5835   2.1731   C.3       1 RES1   0.0000
    82 H43      9.3568   1.3818   2.9623   H         1 RES1   0.0000
    83 H44     10.3727   0.7742   1.8853   H         1 RES1   0.0000
    84 H45      9.3210   1.8986   1.4482   H         1 RES1   0.0000
    85 C33     11.8764   2.8083   1.3296   C.3       1 RES1   0.0000
    86 H46     12.2481   1.9305   1.0996   H         1 RES1   0.0000
    87 H47     12.6040   3.4165   1.5751   H         1 RES1   0.0000
    88 H48     11.3938   3.1703   0.5574   H         1 RES1   0.0000
    89 C34     10.8583   7.7927   2.4889   C.3       1 RES1   0.0000
    90 C35     12.2078   7.5972   1.7978   C.3       1 RES1   0.0000
    91 H49     12.8135   7.1104   2.3948   H         1 RES1   0.0000
    92 H50     12.5945   8.4720   1.5829   H         1 RES1   0.0000
    93 H51     12.0813   7.0847   0.9721   H         1 RES1   0.0000
    94 C36      9.9533   8.5601   1.5235   C.3       1 RES1   0.0000
    95 H52      9.8189   8.0304   0.7101   H         1 RES1   0.0000
    96 H53     10.3731   9.4146   1.2914   H         1 RES1   0.0000
    97 H54      9.0869   8.7275   1.9508   H         1 RES1   0.0000
    98 C37     11.1170   8.6299   3.7548   C.3       1 RES1   0.0000
    99 H55     10.2675   8.8053   4.2101   H         1 RES1   0.0000
   100 H56     11.5347   9.4806   3.5034   H         1 RES1   0.0000
   101 H57     11.7147   8.1379   4.3554   H         1 RES1   0.0000
   102 C38      5.4468   7.8761   1.4003   C.2       1 RES1   0.0000
   103 C39      4.8328   7.9137   0.0291   C.3       1 RES1   0.0000
   104 H58      5.1836   8.6836  -0.4654   H         1 RES1   0.0000
   105 H59      3.8589   7.9933   0.1088   H         1 RES1   0.0000
   106 H60      5.0542   7.0885  -0.4514   H         1 RES1   0.0000
   107 C40      4.9226   5.9168   5.2299   C.3       1 RES1   0.0000
   108 H61      4.9564   5.0768   5.7719   H         1 RES1   0.0000
@<TRIPOS>BOND
     1     1     2    1
     2     2    75    1
     3     3     1    1
     4     4     5    1
     5     5     1    1
     6     6     1    1
     7     7     4   ar
     8     8     1    1
     9     9     7   ar
    10    10     9    1
    11    11     1    1
    12    12     9   ar
    13    13    12   ar
    14    14    13    1
    15    15     4   ar
    16    16     7    1
    17    17    16    1
    18    18    17    1
    19    19    17    1
    20    20    17    1
    21    21    16    1
    22    22    21    1
    23    23    21    1
    24    24    21    1
    25    25    16    1
    26    26    25    1
    27    27    25    1
    28    28    25    1
    29    29    12    1
    30    30    29    1
    31    31    30    1
    32    32    30    1
    33    33    30    1
    34    34    29    1
    35    35    34    1
    36    36    34    1
    37    37    34    1
    38    38    29    1
    39    39    38    1
    40    40    38    1
    41    41    38    1
    42    42     6    1
    43    43    42    1
    44    44    42    1
    45    45     6    1
    46    46    45    1
    47    47    45    1
    48    48    45    1
    49    49    48    1
    50    50    48    1
    51    51    48    1
    52    52    51    1
    53    53    51    1
    54    54     6    1
    55    55    54    1
    56    56    57    1
    57    58    56    1
    58    59    56    1
    59    60    59    1
    60    61    59    1
    61    62     3    1
    62    63    62    1
    63    64    62    1
    64    65     3    1
    65    66    65    1
    66    67    65    1
    67    68    65    1
    68    69    68   ar
    69    70    69    1
    70    71    69   ar
    71    72    71   ar
    72    73    72    1
    73    74    72   ar
    74    75    68   ar
    75    76    71    1
    76    77    76    1
    77    78    77    1
    78    79    77    1
    79    80    77    1
    80    81    76    1
    81    82    81    1
    82    83    81    1
    83    84    81    1
    84    85    76    1
    85    86    85    1
    86    87    85    1
    87    88    85    1
    88    89    74    1
    89    90    89    1
    90    91    90    1
    91    92    90    1
    92    93    90    1
    93    94    89    1
    94    95    94    1
    95    96    94    1
    96    97    94    1
    97    98    89    1
    98    99    98    1
    99   100    98    1
   100   101    98    1
   101   102     8   un
   102   103   102    1
   103   104   103    1
   104   105   103    1
   105   106   103    1
   106   107     3    1
   107   108   107    1
   108    11   102   un
   109    13    15   ar
   110    15    42    1
   111    51    54    1
   112    54   107    1
   113    56   107    1
   114    59    62    1
   115    74    75   ar
@<TRIPOS>SUBSTRUCTURE
     1 RES1        1 GROUP             0 ****  ****    0  
@<TRIPOS>CRYSIN
   10.9269   13.1291   14.0182   87.6930   81.1680   80.3940     2     1
