@<TRIPOS>MOLECULE
SORDOS
   100   108     2     0     0
SMALL
USER_CHARGES
****
Generated from the CSD

@<TRIPOS>ATOM
     1 Fe1      8.5951   9.4973   4.8261   Fe        1 RES1   1.0000
     2 O1       7.7798  10.4438   6.2554   O.3       1 RES1   0.0000
     3 O2       9.1778   8.0922   5.9369   O.3       1 RES1   0.0000
     4 N1       9.3186   8.5268   3.2686   N.ar      1 RES1   0.0000
     5 N2       7.0154   8.4449   4.4624   N.2       1 RES1   0.0000
     6 N3       8.1475  10.9556   3.5631   N.ar      1 RES1   0.0000
     7 N4      10.1768  10.5671   5.1269   N.2       1 RES1   0.0000
     8 C1      10.5554   8.6315   2.7932   C.ar      1 RES1   0.0000
     9 C2      10.9763   7.9507   1.6715   C.ar      1 RES1   0.0000
    10 C3      10.0571   7.1742   0.9864   C.ar      1 RES1   0.0000
    11 C4       8.7983   7.0283   1.4951   C.ar      1 RES1   0.0000
    12 C5       8.4439   7.7059   2.6511   C.ar      1 RES1   0.0000
    13 C6       7.1191   7.5495   3.3018   C.3       1 RES1   0.0000
    14 C7       5.9297   8.3995   5.1911   C.2       1 RES1   0.0000
    15 C8       5.7653   9.2151   6.3333   C.2       1 RES1   0.0000
    16 C9       6.6475  10.1597   6.7801   C.2       1 RES1   0.0000
    17 C10      4.7910   7.4947   4.8107   C.3       1 RES1   0.0000
    18 C11      6.2810  11.0023   7.9716   C.3       1 RES1   0.0000
    19 C12      7.0184  11.0449   2.8424   C.ar      1 RES1   0.0000
    20 C13      6.7807  12.1002   1.9706   C.ar      1 RES1   0.0000
    21 C14      7.7274  13.1048   1.8709   C.ar      1 RES1   0.0000
    22 C15      8.8755  13.0240   2.6419   C.ar      1 RES1   0.0000
    23 C16      9.0687  11.9258   3.4519   C.ar      1 RES1   0.0000
    24 C17     10.3161  11.7488   4.2528   C.3       1 RES1   0.0000
    25 C18     11.1141  10.3343   6.0045   C.2       1 RES1   0.0000
    26 C19     11.0935   9.1787   6.8248   C.2       1 RES1   0.0000
    27 C20     10.2132   8.1289   6.7171   C.2       1 RES1   0.0000
    28 C21     12.3130  11.2424   6.1237   C.3       1 RES1   0.0000
    29 C22     10.4298   6.8892   7.5214   C.3       1 RES1   0.0000
    30 H1      11.1404   9.2993   3.2194   H         1 RES1   0.0000
    31 H2      11.7959   7.9827   1.3977   H         1 RES1   0.0000
    32 H3      10.4030   6.6471   0.2062   H         1 RES1   0.0000
    33 H4       8.1688   6.4273   1.1571   H         1 RES1   0.0000
    34 H5       7.0281   6.6792   3.5401   H         1 RES1   0.0000
    35 H6       6.3834   7.6905   2.7038   H         1 RES1   0.0000
    36 H7       4.8964   9.1840   6.7251   H         1 RES1   0.0000
    37 H8       3.9583   7.5992   5.3847   H         1 RES1   0.0000
    38 H9       5.1341   6.6343   4.7317   H         1 RES1   0.0000
    39 H10      4.3951   7.8196   3.8609   H         1 RES1   0.0000
    40 H11      6.0060  11.8699   7.6761   H         1 RES1   0.0000
    41 H12      5.5609  10.6416   8.4437   H         1 RES1   0.0000
    42 H13      7.0255  11.0343   8.6041   H         1 RES1   0.0000
    43 H14      6.3026  10.3572   3.0131   H         1 RES1   0.0000
    44 H15      5.9965  12.1192   1.4550   H         1 RES1   0.0000
    45 H16      7.5549  13.9628   1.2832   H         1 RES1   0.0000
    46 H17      9.5769  13.7100   2.5892   H         1 RES1   0.0000
    47 H18     11.1407  11.5961   3.6891   H         1 RES1   0.0000
    48 H19     10.5200  12.5532   4.7087   H         1 RES1   0.0000
    49 H20     11.9342   9.0487   7.3323   H         1 RES1   0.0000
    50 H21     12.9368  11.0246   5.4534   H         1 RES1   0.0000
    51 H22     12.0662  12.1487   6.2325   H         1 RES1   0.0000
    52 H23     11.2535   6.9813   8.2145   H         1 RES1   0.0000
    53 H24     12.9370  10.9363   6.8282   H         1 RES1   0.0000
    54 H25     10.7059   6.2541   7.1261   H         1 RES1   0.0000
    55 H26      9.5556   6.6035   7.8937   H         1 RES1   0.0000
    56 B1       8.4984   3.3129  -1.1548   B         2 RES2  -1.0000
    57 C23      7.8587   2.0079  -1.9545   C.ar      2 RES2   0.0000
    58 C24      7.4599   2.0040  -3.2996   C.ar      2 RES2   0.0000
    59 C25      7.0254   0.8367  -3.9251   C.ar      2 RES2   0.0000
    60 C26      6.9757  -0.3473  -3.2537   C.ar      2 RES2   0.0000
    61 C27      7.3158  -0.3808  -1.9018   C.ar      2 RES2   0.0000
    62 C28      7.7183   0.7968  -1.2877   C.ar      2 RES2   0.0000
    63 C29      9.9761   2.8723  -0.5453   C.ar      2 RES2   0.0000
    64 C30     10.7442   1.8581  -1.1067   C.ar      2 RES2   0.0000
    65 C31     12.0205   1.5509  -0.6725   C.ar      2 RES2   0.0000
    66 C32     12.6060   2.2587   0.3701   C.ar      2 RES2   0.0000
    67 C33     11.8693   3.2632   0.9509   C.ar      2 RES2   0.0000
    68 C34     10.5979   3.5667   0.5144   C.ar      2 RES2   0.0000
    69 C35      8.8043   4.5638  -2.1791   C.ar      2 RES2   0.0000
    70 C36      9.5698   4.3417  -3.3408   C.ar      2 RES2   0.0000
    71 C37      9.9161   5.3615  -4.2276   C.ar      2 RES2   0.0000
    72 C38      9.5473   6.6723  -3.9709   C.ar      2 RES2   0.0000
    73 C39      8.8158   6.9325  -2.8092   C.ar      2 RES2   0.0000
    74 C40      8.4609   5.8897  -1.9591   C.ar      2 RES2   0.0000
    75 C41      7.4125   3.7174   0.0103   C.ar      2 RES2   0.0000
    76 C42      7.5632   3.4798   1.3931   C.ar      2 RES2   0.0000
    77 C43      6.6127   3.8391   2.3234   C.ar      2 RES2   0.0000
    78 C44      5.4274   4.4321   1.9270   C.ar      2 RES2   0.0000
    79 C45      5.2184   4.6247   0.5763   C.ar      2 RES2   0.0000
    80 C46      6.1905   4.2808  -0.3357   C.ar      2 RES2   0.0000
    81 H27      7.5139   2.8484  -3.7693   H         2 RES2   0.0000
    82 H28      6.6162   0.9634  -4.7087   H         2 RES2   0.0000
    83 H29      6.6857  -1.2539  -3.7693   H         2 RES2   0.0000
    84 H30      7.3149  -1.3239  -1.3175   H         2 RES2   0.0000
    85 H31      8.0534   0.7821  -0.4926   H         2 RES2   0.0000
    86 H32     10.2760   1.4130  -1.7643   H         2 RES2   0.0000
    87 H33     12.5553   0.8232  -1.0769   H         2 RES2   0.0000
    88 H34     13.4644   2.0914   0.6989   H         2 RES2   0.0000
    89 H35     12.2769   3.8772   1.4321   H         2 RES2   0.0000
    90 H36     10.1108   4.2233   0.9624   H         2 RES2   0.0000
    91 H37      9.9638   3.4014  -3.4943   H         2 RES2   0.0000
    92 H38     10.5481   5.1755  -5.0410   H         2 RES2   0.0000
    93 H39      9.8969   7.3351  -4.6515   H         2 RES2   0.0000
    94 H40      8.5155   7.9008  -2.5320   H         2 RES2   0.0000
    95 H41      7.8141   6.0939  -1.3404   H         2 RES2   0.0000
    96 H42      6.7054   3.6153   3.4027   H         2 RES2   0.0000
    97 H43      8.4082   3.0628   1.7071   H         2 RES2   0.0000
    98 H44      4.6646   4.6812   2.5434   H         2 RES2   0.0000
    99 H45      4.3769   4.9492   0.3666   H         2 RES2   0.0000
   100 H46      6.0323   4.4465  -1.1571   H         2 RES2   0.0000
@<TRIPOS>BOND
     1     1     2    1
     2     2    16    1
     3     3     1    1
     4     4     1    1
     5     5     1    1
     6     6     1    1
     7     7     1    1
     8     8     4   ar
     9     9     8   ar
    10    10     9   ar
    11    11    10   ar
    12    12     4   ar
    13    13     5    1
    14    14     5    2
    15    15    14    1
    16    16    15    2
    17    17    14    1
    18    18    16    1
    19    19     6   ar
    20    20    19   ar
    21    21    20   ar
    22    22    21   ar
    23    23     6   ar
    24    24     7    1
    25    25     7    2
    26    26    25    1
    27    27     3    1
    28    28    25    1
    29    29    27    1
    30    30     8    1
    31    31     9    1
    32    32    10    1
    33    33    11    1
    34    34    13    1
    35    35    13    1
    36    36    15    1
    37    37    17    1
    38    38    17    1
    39    39    17    1
    40    40    18    1
    41    41    18    1
    42    42    18    1
    43    43    19    1
    44    44    20    1
    45    45    21    1
    46    46    22    1
    47    47    24    1
    48    48    24    1
    49    49    26    1
    50    50    28    1
    51    51    28    1
    52    52    29    1
    53    53    28    1
    54    54    29    1
    55    55    29    1
    56    11    12   ar
    57    12    13    1
    58    22    23   ar
    59    23    24    1
    60    26    27    2
    61    56    57    1
    62    57    58   ar
    63    58    59   ar
    64    59    60   ar
    65    60    61   ar
    66    61    62   ar
    67    62    57   ar
    68    63    56    1
    69    64    63   ar
    70    65    64   ar
    71    66    65   ar
    72    67    66   ar
    73    68    63   ar
    74    69    56    1
    75    70    69   ar
    76    71    70   ar
    77    72    71   ar
    78    73    72   ar
    79    74    69   ar
    80    75    56    1
    81    76    75   ar
    82    77    76   ar
    83    78    77   ar
    84    79    78   ar
    85    80    75   ar
    86    81    58    1
    87    82    59    1
    88    83    60    1
    89    84    61    1
    90    85    62    1
    91    86    64    1
    92    87    65    1
    93    88    66    1
    94    89    67    1
    95    90    68    1
    96    91    70    1
    97    92    71    1
    98    93    72    1
    99    94    73    1
   100    95    74    1
   101    96    77    1
   102    97    76    1
   103    98    78    1
   104    99    79    1
   105   100    80    1
   106    67    68   ar
   107    73    74   ar
   108    79    80   ar
@<TRIPOS>SUBSTRUCTURE
     1 RES1        1 GROUP             0 ****  ****    0  
     2 RES2       56 GROUP             0 ****  ****    0  
@<TRIPOS>CRYSIN
   12.7840   13.2900   11.7760   93.3500  102.2900   98.3700     2     1
