@<TRIPOS>MOLECULE
SORDOS02
   100   108     2     0     0
SMALL
USER_CHARGES
****
Generated from the CSD

@<TRIPOS>ATOM
     1 Fe1      8.7086   9.7288   4.8705   Fe        1 RES1   1.0000
     2 O1       7.8544  10.6848   6.2902   O.3       1 RES1   0.0000
     3 O2       9.3401   8.3569   5.9773   O.3       1 RES1   0.0000
     4 N1       9.4207   8.6976   3.2837   N.ar      1 RES1   0.0000
     5 N2       7.1076   8.6488   4.4787   N.2       1 RES1   0.0000
     6 N3       8.2677  11.1944   3.5816   N.ar      1 RES1   0.0000
     7 N4      10.3144  10.8354   5.1446   N.2       1 RES1   0.0000
     8 C1      10.6708   8.7797   2.7914   C.ar      1 RES1   0.0000
     9 C2      11.0775   8.0825   1.6758   C.ar      1 RES1   0.0000
    10 C3      10.1669   7.2864   1.0064   C.ar      1 RES1   0.0000
    11 C4       8.8915   7.1621   1.5124   C.ar      1 RES1   0.0000
    12 C5       8.5436   7.8645   2.6672   C.ar      1 RES1   0.0000
    13 C6       7.2104   7.7389   3.3193   C.3       1 RES1   0.0000
    14 C7       6.0115   8.6197   5.1964   C.2       1 RES1   0.0000
    15 C8       5.8390   9.4467   6.3408   C.2       1 RES1   0.0000
    16 C9       6.7113  10.4033   6.8146   C.2       1 RES1   0.0000
    17 C10      4.8788   7.6979   4.8111   C.3       1 RES1   0.0000
    18 C11      6.3545  11.2465   8.0315   C.3       1 RES1   0.0000
    19 C12      7.1434  11.2824   2.8420   C.ar      1 RES1   0.0000
    20 C13      6.9298  12.3130   1.9760   C.ar      1 RES1   0.0000
    21 C14      7.8642  13.3056   1.8770   C.ar      1 RES1   0.0000
    22 C15      9.0044  13.2422   2.6442   C.ar      1 RES1   0.0000
    23 C16      9.1927  12.1653   3.4700   C.ar      1 RES1   0.0000
    24 C17     10.4394  12.0030   4.2808   C.3       1 RES1   0.0000
    25 C18     11.2825  10.5968   5.9969   C.2       1 RES1   0.0000
    26 C19     11.2731   9.4477   6.8066   C.2       1 RES1   0.0000
    27 C20     10.3873   8.4094   6.7272   C.2       1 RES1   0.0000
    28 C21     12.4678  11.5133   6.1038   C.3       1 RES1   0.0000
    29 C22     10.6179   7.1701   7.5335   C.3       1 RES1   0.0000
    30 H1      11.2781   9.3361   3.3124   H         1 RES1   0.0000
    31 H2      12.0123   8.1587   1.3572   H         1 RES1   0.0000
    32 H3      10.4011   6.8159   0.2185   H         1 RES1   0.0000
    33 H4       8.2542   6.6155   1.1501   H         1 RES1   0.0000
    34 H5       6.5031   7.9218   2.6108   H         1 RES1   0.0000
    35 H6       7.0893   6.8368   3.6230   H         1 RES1   0.0000
    36 H7       5.0103   9.3395   6.7744   H         1 RES1   0.0000
    37 H8       4.1463   7.7661   5.5092   H         1 RES1   0.0000
    38 H9       4.6109   7.8256   3.9450   H         1 RES1   0.0000
    39 H10      5.1950   6.7946   4.7616   H         1 RES1   0.0000
    40 H11      5.9519  11.8742   7.8210   H         1 RES1   0.0000
    41 H12      5.6072  10.8565   8.4536   H         1 RES1   0.0000
    42 H13      7.1645  11.4067   8.5801   H         1 RES1   0.0000
    43 H14      6.4653  10.5978   2.9904   H         1 RES1   0.0000
    44 H15      6.1467  12.2529   1.4607   H         1 RES1   0.0000
    45 H16      7.7413  14.0248   1.2652   H         1 RES1   0.0000
    46 H17      9.6786  13.8887   2.5993   H         1 RES1   0.0000
    47 H18     10.6089  12.8239   4.8076   H         1 RES1   0.0000
    48 H19     11.1504  11.8673   3.6690   H         1 RES1   0.0000
    49 H20     12.0048   9.3921   7.3379   H         1 RES1   0.0000
    50 H21     13.0042  11.4274   5.3367   H         1 RES1   0.0000
    51 H22     12.2270  12.4506   6.1073   H         1 RES1   0.0000
    52 H23     12.9326  11.3321   6.8434   H         1 RES1   0.0000
    53 H24      9.7952   6.8637   8.0510   H         1 RES1   0.0000
    54 H25     10.9074   6.4739   6.9929   H         1 RES1   0.0000
    55 H26     11.4588   7.3107   7.9475   H         1 RES1   0.0000
    56 B1       8.5788   3.3392  -1.1720   B         2 RES2  -1.0000
    57 C23      7.9424   2.0385  -1.9898   C.ar      2 RES2   0.0000
    58 C24      7.5302   2.0081  -3.3228   C.ar      2 RES2   0.0000
    59 C25      7.0801   0.8298  -3.9542   C.ar      2 RES2   0.0000
    60 C26      7.0231  -0.3458  -3.2756   C.ar      2 RES2   0.0000
    61 C27      7.3592  -0.3499  -1.9437   C.ar      2 RES2   0.0000
    62 C28      7.7863   0.8200  -1.3250   C.ar      2 RES2   0.0000
    63 C29     10.0536   2.9094  -0.5670   C.ar      2 RES2   0.0000
    64 C30     10.8228   1.8777  -1.1271   C.ar      2 RES2   0.0000
    65 C31     12.1020   1.5691  -0.6878   C.ar      2 RES2   0.0000
    66 C32     12.6665   2.2891   0.3519   C.ar      2 RES2   0.0000
    67 C33     11.9563   3.3213   0.9420   C.ar      2 RES2   0.0000
    68 C34     10.6796   3.6219   0.4854   C.ar      2 RES2   0.0000
    69 C35      8.9010   4.5856  -2.1864   C.ar      2 RES2   0.0000
    70 C36      9.6619   4.3746  -3.3423   C.ar      2 RES2   0.0000
    71 C37     10.0211   5.3905  -4.2072   C.ar      2 RES2   0.0000
    72 C38      9.6429   6.6799  -3.9347   C.ar      2 RES2   0.0000
    73 C39      8.9081   6.9483  -2.7995   C.ar      2 RES2   0.0000
    74 C40      8.5386   5.9164  -1.9529   C.ar      2 RES2   0.0000
    75 C41      7.4982   3.7557  -0.0035   C.ar      2 RES2   0.0000
    76 C42      7.6403   3.5437   1.3664   C.ar      2 RES2   0.0000
    77 C43      6.6696   3.9035   2.3049   C.ar      2 RES2   0.0000
    78 C44      5.5031   4.4780   1.9092   C.ar      2 RES2   0.0000
    79 C45      5.2995   4.6647   0.5762   C.ar      2 RES2   0.0000
    80 C46      6.2704   4.3120  -0.3508   C.ar      2 RES2   0.0000
    81 H27      7.6440   2.7914  -3.8070   H         2 RES2   0.0000
    82 H28      6.8924   0.9193  -4.8076   H         2 RES2   0.0000
    83 H29      6.7123  -1.1854  -3.6920   H         2 RES2   0.0000
    84 H30      7.2728  -1.2056  -1.3802   H         2 RES2   0.0000
    85 H31      8.0363   0.8156  -0.4141   H         2 RES2   0.0000
    86 H32     10.4350   1.3562  -1.8172   H         2 RES2   0.0000
    87 H33     12.5534   0.8795  -1.1156   H         2 RES2   0.0000
    88 H34     13.5353   2.1109   0.6441   H         2 RES2   0.0000
    89 H35     12.3543   3.8774   1.6332   H         2 RES2   0.0000
    90 H36     10.2046   4.3566   0.8971   H         2 RES2   0.0000
    91 H37      9.9370   3.5197  -3.5655   H         2 RES2   0.0000
    92 H38     10.5413   5.1682  -5.0031   H         2 RES2   0.0000
    93 H39      9.9085   7.3681  -4.4856   H         2 RES2   0.0000
    94 H40      8.6498   7.8555  -2.5648   H         2 RES2   0.0000
    95 H41      8.0241   6.1613  -1.2307   H         2 RES2   0.0000
    96 H42      8.4822   3.1266   1.7022   H         2 RES2   0.0000
    97 H43      6.8602   3.8303   3.2089   H         2 RES2   0.0000
    98 H44      4.8296   4.7315   2.5303   H         2 RES2   0.0000
    99 H45      4.5140   5.0555   0.2530   H         2 RES2   0.0000
   100 H46      6.1133   4.3668  -1.2767   H         2 RES2   0.0000
@<TRIPOS>BOND
     1     1     2    1
     2     2    16    1
     3     3     1    1
     4     4     1    1
     5     5     1    1
     6     6     1    1
     7     7     1    1
     8     8     4   ar
     9     9     8   ar
    10    10     9   ar
    11    11    10   ar
    12    12     4   ar
    13    13     5    1
    14    14     5    2
    15    15    14    1
    16    16    15    2
    17    17    14    1
    18    18    16    1
    19    19     6   ar
    20    20    19   ar
    21    21    20   ar
    22    22    21   ar
    23    23     6   ar
    24    24     7    1
    25    25     7    2
    26    26    25    1
    27    27     3    1
    28    28    25    1
    29    29    27    1
    30    30     8    1
    31    31     9    1
    32    32    10    1
    33    33    11    1
    34    34    13    1
    35    35    13    1
    36    36    15    1
    37    37    17    1
    38    38    17    1
    39    39    17    1
    40    40    18    1
    41    41    18    1
    42    42    18    1
    43    43    19    1
    44    44    20    1
    45    45    21    1
    46    46    22    1
    47    47    24    1
    48    48    24    1
    49    49    26    1
    50    50    28    1
    51    51    28    1
    52    52    28    1
    53    53    29    1
    54    54    29    1
    55    55    29    1
    56    11    12   ar
    57    12    13    1
    58    22    23   ar
    59    23    24    1
    60    26    27    2
    61    56    57    1
    62    57    58   ar
    63    58    59   ar
    64    59    60   ar
    65    60    61   ar
    66    61    62   ar
    67    62    57   ar
    68    63    56    1
    69    64    63   ar
    70    65    64   ar
    71    66    65   ar
    72    67    66   ar
    73    68    63   ar
    74    69    56    1
    75    70    69   ar
    76    71    70   ar
    77    72    71   ar
    78    73    72   ar
    79    74    69   ar
    80    75    56    1
    81    76    75   ar
    82    77    76   ar
    83    78    77   ar
    84    79    78   ar
    85    80    75   ar
    86    81    58    1
    87    82    59    1
    88    83    60    1
    89    84    61    1
    90    85    62    1
    91    86    64    1
    92    87    65    1
    93    88    66    1
    94    89    67    1
    95    90    68    1
    96    91    70    1
    97    92    71    1
    98    93    72    1
    99    94    73    1
   100    95    74    1
   101    96    76    1
   102    97    77    1
   103    98    78    1
   104    99    79    1
   105   100    80    1
   106    67    68   ar
   107    73    74   ar
   108    79    80   ar
@<TRIPOS>SUBSTRUCTURE
     1 RES1        1 GROUP             0 ****  ****    0  
     2 RES2       56 GROUP             0 ****  ****    0  
@<TRIPOS>CRYSIN
   12.9180   13.4580   11.8000   92.2300  102.2500   98.3000     2     1
