@<TRIPOS>MOLECULE
SUJRIY
   106   112     3     0     0
SMALL
USER_CHARGES
****
Generated from the CSD

@<TRIPOS>ATOM
     1 Fe1      1.8665   6.8776   1.2782   Fe        1 RES1   1.0000
     2 O1       0.3434   7.1022   2.3232   O.3       1 RES1   0.0000
     3 O2       1.3172   8.2446  -0.1335   O.3       1 RES1   0.0000
     4 O3       1.1376   5.3370   0.3222   O.3       1 RES1   0.0000
     5 N1       3.8413   6.8817   0.3329   N.3       1 RES1   0.0000
     6 N2       2.9469   5.5327   2.6063   N.3       1 RES1   0.0000
     7 N3       2.8675   8.3714   2.5351   N.3       1 RES1   0.0000
     8 C1       4.4504   5.5423   0.6462   C.3       1 RES1   0.0000
     9 C2       4.3433   5.2378   2.1167   C.3       1 RES1   0.0000
    10 C3       2.9950   6.2782   3.9201   C.3       1 RES1   0.0000
    11 C4       3.5203   7.6975   3.6976   C.3       1 RES1   0.0000
    12 C5       3.8653   9.0287   1.6360   C.3       1 RES1   0.0000
    13 C6       4.7042   8.0034   0.8492   C.3       1 RES1   0.0000
    14 C7       3.7193   6.9313  -1.1625   C.3       1 RES1   0.0000
    15 C8       3.1511   8.2101  -1.7001   C.ar      1 RES1   0.0000
    16 C9       3.7922   8.7861  -2.8163   C.ar      1 RES1   0.0000
    17 C10      3.2540   9.8789  -3.4857   C.ar      1 RES1   0.0000
    18 C11      2.0898  10.4122  -2.9926   C.ar      1 RES1   0.0000
    19 C12      1.4427   9.8830  -1.8604   C.ar      1 RES1   0.0000
    20 C13      1.9869   8.7723  -1.2337   C.ar      1 RES1   0.0000
    21 C14      3.8661  10.4480  -4.7639   C.3       1 RES1   0.0000
    22 C15      5.2860   9.9574  -4.9562   C.3       1 RES1   0.0000
    23 C16      3.0141  10.3019  -5.9051   C.3       1 RES1   0.0000
    24 C17      4.2014  11.9335  -4.5218   C.3       1 RES1   0.0000
    25 C18      2.1274   4.2690   2.7647   C.3       1 RES1   0.0000
    26 C19      2.1064   3.4643   1.4918   C.ar      1 RES1   0.0000
    27 C20      2.5221   2.1400   1.4349   C.ar      1 RES1   0.0000
    28 C21      2.4491   1.3628   0.3009   C.ar      1 RES1   0.0000
    29 C22      1.8698   1.9568  -0.8510   C.ar      1 RES1   0.0000
    30 C23      1.4398   3.2728  -0.8527   C.ar      1 RES1   0.0000
    31 C24      1.5583   4.0293   0.3151   C.ar      1 RES1   0.0000
    32 C25      2.8786  -0.1089   0.2599   C.3       1 RES1   0.0000
    33 C26      3.6182  -0.4354  -1.0272   C.3       1 RES1   0.0000
    34 C27      3.7819  -0.4534   1.4242   C.3       1 RES1   0.0000
    35 C28      1.6679  -0.9770   0.3276   C.3       1 RES1   0.0000
    36 C29      1.8771   9.3952   2.9908   C.3       1 RES1   0.0000
    37 C30      0.8271   8.8164   3.9058   C.ar      1 RES1   0.0000
    38 C31      0.5818   9.3676   5.1698   C.ar      1 RES1   0.0000
    39 C32     -0.3639   8.8647   6.0279   C.ar      1 RES1   0.0000
    40 C33     -1.0815   7.7540   5.5828   C.ar      1 RES1   0.0000
    41 C34     -0.8871   7.1739   4.3420   C.ar      1 RES1   0.0000
    42 C35      0.0681   7.6906   3.4893   C.ar      1 RES1   0.0000
    43 C36     -0.5924   9.4503   7.3880   C.3       1 RES1   0.0000
    44 C37     -0.9341  10.8283   7.3204   C.3       1 RES1   0.0000
    45 C38      0.5523   9.4448   8.1588   C.3       1 RES1   0.0000
    46 C39     -1.6324   8.9432   8.1749   C.3       1 RES1   0.0000
    47 H1       3.9900   4.8616   0.1495   H         1 RES1   0.0000
    48 H2       5.3767   5.5506   0.3917   H         1 RES1   0.0000
    49 H3       4.5429   4.3118   2.2662   H         1 RES1   0.0000
    50 H4       4.9695   5.7821   2.5992   H         1 RES1   0.0000
    51 H5       2.1104   6.3223   4.2939   H         1 RES1   0.0000
    52 H6       3.5750   5.8152   4.5289   H         1 RES1   0.0000
    53 H7       4.4668   7.6548   3.5373   H         1 RES1   0.0000
    54 H8       3.3536   8.2170   4.4880   H         1 RES1   0.0000
    55 H9       3.3982   9.5895   1.0130   H         1 RES1   0.0000
    56 H10      4.4552   9.5647   2.1701   H         1 RES1   0.0000
    57 H11      5.3785   7.6396   1.4278   H         1 RES1   0.0000
    58 H12      5.1233   8.4444   0.1068   H         1 RES1   0.0000
    59 H13      3.1491   6.2106  -1.4420   H         1 RES1   0.0000
    60 H14      4.5942   6.8101  -1.5399   H         1 RES1   0.0000
    61 H15      4.6214   8.4113  -3.1243   H         1 RES1   0.0000
    62 H16      1.7033  11.1714  -3.4359   H         1 RES1   0.0000
    63 H17      0.6367  10.2840  -1.5292   H         1 RES1   0.0000
    64 H18      5.2772   9.0121  -5.1253   H         1 RES1   0.0000
    65 H19      5.7964  10.1352  -4.1622   H         1 RES1   0.0000
    66 H20      5.6839  10.4122  -5.7021   H         1 RES1   0.0000
    67 H21      2.8169   9.3718  -6.0404   H         1 RES1   0.0000
    68 H22      3.4568  10.6506  -6.6812   H         1 RES1   0.0000
    69 H23      2.1970  10.7829  -5.7573   H         1 RES1   0.0000
    70 H24      3.3892  12.4240  -4.3741   H         1 RES1   0.0000
    71 H25      4.6551  12.2890  -5.2891   H         1 RES1   0.0000
    72 H26      4.7676  12.0120  -3.7510   H         1 RES1   0.0000
    73 H27      1.2273   4.5074   2.9979   H         1 RES1   0.0000
    74 H28      2.5104   3.7344   3.4643   H         1 RES1   0.0000
    75 H29      2.8789   1.7432   2.2324   H         1 RES1   0.0000
    76 H30      1.7750   1.4317  -1.6485   H         1 RES1   0.0000
    77 H31      1.0646   3.6600  -1.6467   H         1 RES1   0.0000
    78 H32      4.4035   0.1116  -1.0913   H         1 RES1   0.0000
    79 H33      3.0457  -0.2660  -1.7767   H         1 RES1   0.0000
    80 H34      3.8733  -1.3615  -1.0219   H         1 RES1   0.0000
    81 H35      4.5665   0.0978   1.3957   H         1 RES1   0.0000
    82 H36      4.0376  -1.3766   1.3690   H         1 RES1   0.0000
    83 H37      3.3130  -0.3004   2.2484   H         1 RES1   0.0000
    84 H38      1.1837  -0.7868   1.1340   H         1 RES1   0.0000
    85 H39      1.9351  -1.8989   0.3240   H         1 RES1   0.0000
    86 H40      1.1075  -0.8020  -0.4308   H         1 RES1   0.0000
    87 H41      2.3475  10.0897   3.4608   H         1 RES1   0.0000
    88 H42      1.4427   9.7686   2.2200   H         1 RES1   0.0000
    89 H43      1.0961  10.1283   5.4475   H         1 RES1   0.0000
    90 H44     -1.7407   7.3723   6.1650   H         1 RES1   0.0000
    91 H45     -1.4152   6.4173   4.0750   H         1 RES1   0.0000
    92 H46     -0.2738  11.2872   6.7970   H         1 RES1   0.0000
    93 H47     -0.9554  11.1976   8.2051   H         1 RES1   0.0000
    94 H48     -1.7956  10.9303   6.9091   H         1 RES1   0.0000
    95 H49      0.8551   8.5408   8.2657   H         1 RES1   0.0000
    96 H50      0.3611   9.8210   9.0205   H         1 RES1   0.0000
    97 H51      1.2362   9.9629   7.7280   H         1 RES1   0.0000
    98 H52     -1.5183   7.9979   8.2959   H         1 RES1   0.0000
    99 H53     -2.4689   9.1100   7.7334   H         1 RES1   0.0000
   100 H54     -1.6304   9.3773   9.0312   H         1 RES1   0.0000
   101 Cl1      0.2641  13.8737   4.5058   Cl        2 RES2   0.0000
   102 O4       1.2135  12.8857   4.2494   O.2       2 RES2   0.0000
   103 O5       0.3518  14.1507   5.7929   O.2       2 RES2   0.0000
   104 O6      -0.9944  13.6408   4.2174   O.2       2 RES2   0.0000
   105 O7       0.6203  15.1084   3.9949   O.3       2 RES2  -1.0000
   106 O8       9.0283   7.2855   1.1821   O.3       3 RES3   0.0000
@<TRIPOS>BOND
     1     1     2    1
     2     2    42    1
     3     3     1    1
     4     4     1    1
     5     5     1    1
     6     6     1    1
     7     7     1    1
     8     8     5    1
     9     9     6    1
    10    10     6    1
    11    11     7    1
    12    12     7    1
    13    13     5    1
    14    14     5    1
    15    15    14    1
    16    16    15   ar
    17    17    16   ar
    18    18    17   ar
    19    19    18   ar
    20    20     3    1
    21    21    17    1
    22    22    21    1
    23    23    21    1
    24    24    21    1
    25    25     6    1
    26    26    25    1
    27    27    26   ar
    28    28    27   ar
    29    29    28   ar
    30    30    29   ar
    31    31     4    1
    32    32    28    1
    33    33    32    1
    34    34    32    1
    35    35    32    1
    36    36     7    1
    37    37    36    1
    38    38    37   ar
    39    39    38   ar
    40    40    39   ar
    41    41    40   ar
    42    42    37   ar
    43    43    39    1
    44    44    43    1
    45    45    43    1
    46    46    43    1
    47    47     8    1
    48    48     8    1
    49    49     9    1
    50    50     9    1
    51    51    10    1
    52    52    10    1
    53    53    11    1
    54    54    11    1
    55    55    12    1
    56    56    12    1
    57    57    13    1
    58    58    13    1
    59    59    14    1
    60    60    14    1
    61    61    16    1
    62    62    18    1
    63    63    19    1
    64    64    22    1
    65    65    22    1
    66    66    22    1
    67    67    23    1
    68    68    23    1
    69    69    23    1
    70    70    24    1
    71    71    24    1
    72    72    24    1
    73    73    25    1
    74    74    25    1
    75    75    27    1
    76    76    29    1
    77    77    30    1
    78    78    33    1
    79    79    33    1
    80    80    33    1
    81    81    34    1
    82    82    34    1
    83    83    34    1
    84    84    35    1
    85    85    35    1
    86    86    35    1
    87    87    36    1
    88    88    36    1
    89    89    38    1
    90    90    40    1
    91    91    41    1
    92    92    44    1
    93    93    44    1
    94    94    44    1
    95    95    45    1
    96    96    45    1
    97    97    45    1
    98    98    46    1
    99    99    46    1
   100   100    46    1
   101     8     9    1
   102    10    11    1
   103    12    13    1
   104    15    20   ar
   105    19    20   ar
   106    26    31   ar
   107    30    31   ar
   108    41    42   ar
   109   101   102    2
   110   103   101    2
   111   104   101    2
   112   105   101    1
@<TRIPOS>SUBSTRUCTURE
     1 RES1        1 GROUP             0 ****  ****    0  
     2 RES2      101 GROUP             0 ****  ****    0  
     3 RES3      106 GROUP             0 ****  ****    0  
@<TRIPOS>CRYSIN
   16.4800   13.7800   17.8400   90.0000   93.7200   90.0000   231     1
