@<TRIPOS>MOLECULE
SURMAT
   111   118     1     0     0
SMALL
NO_CHARGES
****
Generated from the CSD

@<TRIPOS>ATOM
     1 Fe1      0.0000   0.0000   0.0000   Fe        1 RES1   0.0000
     2 P1       0.6872  -0.8429  -1.9982   P.3       1 RES1   0.0000
     3 N1       1.2243  -1.2456   0.9680   N.2       1 RES1   0.0000
     4 N2       1.4341   1.3854  -0.0391   N.2       1 RES1   0.0000
     5 C1       0.9180  -2.4854   1.4755   C.2       1 RES1   0.0000
     6 C2       2.0556  -3.0283   2.1907   C.2       1 RES1   0.0000
     7 C3       3.0509  -2.1304   2.0884   C.2       1 RES1   0.0000
     8 C4       2.5323  -1.0156   1.3361   C.2       1 RES1   0.0000
     9 C5       3.2133   0.1610   1.0994   C.2       1 RES1   0.0000
    10 C6       2.7015   1.2861   0.4965   C.2       1 RES1   0.0000
    11 C7       3.4251   2.5329   0.3170   C.2       1 RES1   0.0000
    12 C8       2.6071   3.3607  -0.3651   C.2       1 RES1   0.0000
    13 C9       1.3730   2.6402  -0.5938   C.2       1 RES1   0.0000
    14 C10     -0.2854  -3.1233   1.2970   C.2       1 RES1   0.0000
    15 C11      2.2346  -0.1858  -2.6672   C.3       1 RES1   0.0000
    16 C12      0.9923  -2.6196  -2.0412   C.3       1 RES1   0.0000
    17 C13     -0.4371  -0.6337  -3.4034   C.3       1 RES1   0.0000
    18 C14      2.0464  -4.3226   2.9540   C.3       1 RES1   0.0000
    19 C15      1.4374  -4.1988   4.3302   C.3       1 RES1   0.0000
    20 C16      4.4340  -2.1985   2.6782   C.3       1 RES1   0.0000
    21 C17      4.5414  -1.4760   3.9972   C.3       1 RES1   0.0000
    22 C18      4.7879   2.8013   0.8747   C.3       1 RES1   0.0000
    23 C19      4.7692   3.0386   2.3753   C.3       1 RES1   0.0000
    24 C20      2.8539   4.7789  -0.7884   C.3       1 RES1   0.0000
    25 C21      2.2635   5.8048   0.1244   C.3       1 RES1   0.0000
    26 H1       4.1236   0.1858   1.3742   H         1 RES1   0.0000
    27 H2      -0.3770  -3.9841   1.6852   H         1 RES1   0.0000
    28 H3       2.3612  -0.5161  -3.5509   H         1 RES1   0.0000
    29 H4       2.1983   0.7638  -2.6782   H         1 RES1   0.0000
    30 H5       2.9547  -0.4748  -2.1165   H         1 RES1   0.0000
    31 H6       0.1765  -3.0964  -1.8858   H         1 RES1   0.0000
    32 H7       1.3427  -2.8694  -2.8888   H         1 RES1   0.0000
    33 H8       1.6250  -2.8487  -1.3642   H         1 RES1   0.0000
    34 H9      -0.5734   0.2890  -3.5509   H         1 RES1   0.0000
    35 H10     -1.2668  -1.0528  -3.2198   H         1 RES1   0.0000
    36 H11     -0.0579  -1.0322  -4.1728   H         1 RES1   0.0000
    37 H12      1.5534  -4.9750   2.4575   H         1 RES1   0.0000
    38 H13      2.9408  -4.6240   3.0594   H         1 RES1   0.0000
    39 H14      1.4937  -5.0369   4.7846   H         1 RES1   0.0000
    40 H15      0.5270  -3.9428   4.2329   H         1 RES1   0.0000
    41 H16      1.8959  -3.5300   4.8248   H         1 RES1   0.0000
    42 H17      5.0406  -1.8166   2.0663   H         1 RES1   0.0000
    43 H18      4.6659  -3.1171   2.8186   H         1 RES1   0.0000
    44 H19      4.2985  -0.5574   3.8718   H         1 RES1   0.0000
    45 H20      3.9536  -1.8785   4.6241   H         1 RES1   0.0000
    46 H21      5.4285  -1.5276   4.3232   H         1 RES1   0.0000
    47 H22      5.1519   3.5506   0.4313   H         1 RES1   0.0000
    48 H23      5.3425   2.0437   0.7021   H         1 RES1   0.0000
    49 H24      4.2053   3.7777   2.5578   H         1 RES1   0.0000
    50 H25      5.6507   3.2410   2.6782   H         1 RES1   0.0000
    51 H26      4.4456   2.2707   2.8287   H         1 RES1   0.0000
    52 H27      2.4817   4.8924  -1.6551   H         1 RES1   0.0000
    53 H28      3.7868   4.9337  -0.8225   H         1 RES1   0.0000
    54 H29      1.3246   5.6975   0.1304   H         1 RES1   0.0000
    55 H30      2.4713   6.6883  -0.1705   H         1 RES1   0.0000
    56 H31      2.6041   5.6768   1.0031   H         1 RES1   0.0000
    57 P1B     -0.6872   0.8429   1.9982   P.3       1 RES1   0.0000
    58 N1B     -1.2243   1.2456  -0.9680   N.2       1 RES1   0.0000
    59 N2B     -1.4341  -1.3854   0.0391   N.2       1 RES1   0.0000
    60 C10B     0.2854   3.1233  -1.2970   C.2       1 RES1   0.0000
    61 C9B     -1.3730  -2.6402   0.5938   C.2       1 RES1   0.0000
    62 C11B    -2.2346   0.1858   2.6672   C.3       1 RES1   0.0000
    63 C12B    -0.9923   2.6196   2.0412   C.3       1 RES1   0.0000
    64 C13B     0.4371   0.6337   3.4034   C.3       1 RES1   0.0000
    65 C1B     -0.9180   2.4854  -1.4755   C.2       1 RES1   0.0000
    66 C4B     -2.5323   1.0156  -1.3361   C.2       1 RES1   0.0000
    67 C6B     -2.7015  -1.2861  -0.4965   C.2       1 RES1   0.0000
    68 H2B      0.3770   3.9841  -1.6852   H         1 RES1   0.0000
    69 C8B     -2.6071  -3.3607   0.3651   C.2       1 RES1   0.0000
    70 H3B     -2.3612   0.5161   3.5509   H         1 RES1   0.0000
    71 H4B     -2.1983  -0.7638   2.6782   H         1 RES1   0.0000
    72 H5B     -2.9547   0.4748   2.1165   H         1 RES1   0.0000
    73 H6B     -0.1765   3.0964   1.8858   H         1 RES1   0.0000
    74 H7B     -1.3427   2.8694   2.8888   H         1 RES1   0.0000
    75 H8B     -1.6250   2.8487   1.3642   H         1 RES1   0.0000
    76 H9B      0.5734  -0.2890   3.5509   H         1 RES1   0.0000
    77 H10B     1.2668   1.0528   3.2198   H         1 RES1   0.0000
    78 H11B     0.0579   1.0322   4.1728   H         1 RES1   0.0000
    79 C2B     -2.0556   3.0283  -2.1907   C.2       1 RES1   0.0000
    80 C3B     -3.0509   2.1304  -2.0884   C.2       1 RES1   0.0000
    81 C5B     -3.2133  -0.1610  -1.0994   C.2       1 RES1   0.0000
    82 C7B     -3.4251  -2.5329  -0.3170   C.2       1 RES1   0.0000
    83 C20B    -2.8539  -4.7789   0.7884   C.3       1 RES1   0.0000
    84 C14B    -2.0464   4.3226  -2.9540   C.3       1 RES1   0.0000
    85 C16B    -4.4340   2.1985  -2.6782   C.3       1 RES1   0.0000
    86 H1B     -4.1236  -0.1858  -1.3742   H         1 RES1   0.0000
    87 C18B    -4.7879  -2.8013  -0.8747   C.3       1 RES1   0.0000
    88 C21B    -2.2635  -5.8048  -0.1244   C.3       1 RES1   0.0000
    89 H27B    -2.4817  -4.8924   1.6551   H         1 RES1   0.0000
    90 H28B    -3.7868  -4.9337   0.8225   H         1 RES1   0.0000
    91 C15B    -1.4374   4.1988  -4.3302   C.3       1 RES1   0.0000
    92 H12B    -1.5534   4.9750  -2.4575   H         1 RES1   0.0000
    93 H13B    -2.9408   4.6240  -3.0594   H         1 RES1   0.0000
    94 C17B    -4.5414   1.4760  -3.9972   C.3       1 RES1   0.0000
    95 H17B    -5.0406   1.8166  -2.0663   H         1 RES1   0.0000
    96 H18B    -4.6659   3.1171  -2.8186   H         1 RES1   0.0000
    97 C19B    -4.7692  -3.0386  -2.3753   C.3       1 RES1   0.0000
    98 H22B    -5.1519  -3.5506  -0.4313   H         1 RES1   0.0000
    99 H23B    -5.3425  -2.0437  -0.7021   H         1 RES1   0.0000
   100 H29B    -1.3246  -5.6975  -0.1304   H         1 RES1   0.0000
   101 H30B    -2.4713  -6.6883   0.1705   H         1 RES1   0.0000
   102 H31B    -2.6041  -5.6768  -1.0031   H         1 RES1   0.0000
   103 H14B    -1.4937   5.0369  -4.7846   H         1 RES1   0.0000
   104 H15B    -0.5270   3.9428  -4.2329   H         1 RES1   0.0000
   105 H16B    -1.8959   3.5300  -4.8248   H         1 RES1   0.0000
   106 H19B    -4.2985   0.5574  -3.8718   H         1 RES1   0.0000
   107 H20B    -3.9536   1.8785  -4.6241   H         1 RES1   0.0000
   108 H21B    -5.4285   1.5276  -4.3232   H         1 RES1   0.0000
   109 H24B    -4.2053  -3.7777  -2.5578   H         1 RES1   0.0000
   110 H25B    -5.6507  -3.2410  -2.6782   H         1 RES1   0.0000
   111 H26B    -4.4456  -2.2707  -2.8287   H         1 RES1   0.0000
@<TRIPOS>BOND
     1     1     2    1
     2     2    15    1
     3     3     1    1
     4     4     1    1
     5     5     3    1
     6     6     5    1
     7     7     6    2
     8     8     3    2
     9     9     8    1
    10    10     4    1
    11    11    10    1
    12    12    11    2
    13    13     4    1
    14    14     5    2
    15    15    28    1
    16    16     2    1
    17    17     2    1
    18    18     6    1
    19    19    18    1
    20    20     7    1
    21    21    20    1
    22    22    11    1
    23    23    22    1
    24    24    12    1
    25    25    24    1
    26    26     9    1
    27    27    14    1
    28    29    15    1
    29    30    15    1
    30    31    16    1
    31    32    16    1
    32    33    16    1
    33    34    17    1
    34    35    17    1
    35    36    17    1
    36    37    18    1
    37    38    18    1
    38    39    19    1
    39    40    19    1
    40    41    19    1
    41    42    20    1
    42    43    20    1
    43    44    21    1
    44    45    21    1
    45    46    21    1
    46    47    22    1
    47    48    22    1
    48    49    23    1
    49    50    23    1
    50    51    23    1
    51    52    24    1
    52    53    24    1
    53    54    25    1
    54    55    25    1
    55    56    25    1
    56    57     1    1
    57    58     1    1
    58    59     1    1
    59    60    13    2
    60    61    14    1
    61    62    57    1
    62    63    57    1
    63    64    57    1
    64    65    58    2
    65    66    58    1
    66    67    59    1
    67    68    60    1
    68    69    61    2
    69    70    62    1
    70    71    62    1
    71    72    62    1
    72    73    63    1
    73    74    63    1
    74    75    63    1
    75    76    64    1
    76    77    64    1
    77    78    64    1
    78    79    65    1
    79    80    66    1
    80    81    66    2
    81    82    67    2
    82    83    69    1
    83    84    79    1
    84    85    80    1
    85    86    81    1
    86    87    82    1
    87    88    83    1
    88    89    83    1
    89    90    83    1
    90    91    84    1
    91    92    84    1
    92    93    84    1
    93    94    85    1
    94    95    85    1
    95    96    85    1
    96    97    87    1
    97    98    87    1
    98    99    87    1
    99   100    88    1
   100   101    88    1
   101   102    88    1
   102   103    91    1
   103   104    91    1
   104   105    91    1
   105   106    94    1
   106   107    94    1
   107   108    94    1
   108   109    97    1
   109   110    97    1
   110   111    97    1
   111     7     8    1
   112     9    10    2
   113    12    13    1
   114    59    61    1
   115    60    65    1
   116    67    81    1
   117    69    82    1
   118    79    80    2
@<TRIPOS>SUBSTRUCTURE
     1 RES1        1 GROUP             0 ****  ****    0  
@<TRIPOS>CRYSIN
    9.9480   20.6430   10.1300   90.0000   98.0300   90.0000    14     1
