@<TRIPOS>MOLECULE
SUTROR
   265   282     3     0     0
SMALL
USER_CHARGES
****
Generated from the CSD

@<TRIPOS>ATOM
     1 Fe1      2.2434   5.7693   8.0210   Fe        1 RES1   2.0000
     2 F1      -1.7591   6.3500  10.1645   F         1 RES1   0.0000
     3 F2      -3.6399   4.4761  10.3159   F         1 RES1   0.0000
     4 F3      -5.5287   4.2801   8.3729   F         1 RES1   0.0000
     5 F4      -5.4988   6.0008   6.2758   F         1 RES1   0.0000
     6 F5      -3.6558   7.9126   6.1131   F         1 RES1   0.0000
     7 F6       0.0485   8.5929  10.9342   F         1 RES1   0.0000
     8 F7      -0.9618   9.6237  13.1677   F         1 RES1   0.0000
     9 F8      -3.3927  10.8177  13.1815   F         1 RES1   0.0000
    10 F9      -4.8049  11.0218  10.8468   F         1 RES1   0.0000
    11 F10     -3.8829   9.8720   8.6177   F         1 RES1   0.0000
    12 F11     -0.9265   7.5575   5.5544   F         1 RES1   0.0000
    13 F12     -0.8131   9.0470   3.3366   F         1 RES1   0.0000
    14 F13     -1.1867  11.7399   3.4594   F         1 RES1   0.0000
    15 F14     -1.6583  12.9187   5.8737   F         1 RES1   0.0000
    16 F15     -1.7169  11.4863   8.0906   F         1 RES1   0.0000
    17 F16      3.9289   7.9989  12.0627   F         1 RES1   0.0000
    18 F17      3.1118  10.2950  13.1570   F         1 RES1   0.0000
    19 F18      1.1814  10.2839  15.0815   F         1 RES1   0.0000
    20 F19      0.0100   7.9328  15.8020   F         1 RES1   0.0000
    21 F20      0.7754   5.6338  14.6970   F         1 RES1   0.0000
    22 F21      4.8413   3.9213  10.8320   F         1 RES1   0.0000
    23 F22      7.4796   3.7598  11.1658   F         1 RES1   0.0000
    24 F23      8.6596   4.8611  13.3460   F         1 RES1   0.0000
    25 F24      7.1202   6.0298  15.2670   F         1 RES1   0.0000
    26 F25      4.4872   6.2126  14.9602   F         1 RES1   0.0000
    27 F26      0.1734   4.9925  11.8067   F         1 RES1   0.0000
    28 F27     -1.2220   2.7149  11.8010   F         1 RES1   0.0000
    29 F28     -0.0739   0.4009  12.6609   F         1 RES1   0.0000
    30 F29      2.4442   0.4625  13.7217   F         1 RES1   0.0000
    31 F30      3.8166   2.7221  13.8001   F         1 RES1   0.0000
    32 F31      5.8310   7.4283   5.6628   F         1 RES1   0.0000
    33 F32      7.8994   7.7895   4.0357   F         1 RES1   0.0000
    34 F33      9.5447   9.9415   4.3222   F         1 RES1   0.0000
    35 F34      9.0535  11.7611   6.2871   F         1 RES1   0.0000
    36 F35      6.9361  11.4595   7.9069   F         1 RES1   0.0000
    37 F36      2.9379   9.6154   9.9004   F         1 RES1   0.0000
    38 F37      0.8520  11.2827   9.7377   F         1 RES1   0.0000
    39 F38      0.6257  12.9819   7.6061   F         1 RES1   0.0000
    40 F39      2.5688  13.0494   5.7274   F         1 RES1   0.0000
    41 F40      4.7060  11.5043   5.9273   F         1 RES1   0.0000
    42 F41      6.7794   7.0724   8.7242   F         1 RES1   0.0000
    43 F42      8.2656   6.7841  10.9242   F         1 RES1   0.0000
    44 F43      8.2316   8.6808  12.8728   F         1 RES1   0.0000
    45 F44      6.6727  10.9075  12.5560   F         1 RES1   0.0000
    46 F45      5.2318  11.2473  10.3679   F         1 RES1   0.0000
    47 F46     -0.3763   4.3798   4.5118   F         1 RES1   0.0000
    48 F47     -2.8610   4.8304   3.6685   F         1 RES1   0.0000
    49 F48     -3.3254   6.4299   1.5227   F         1 RES1   0.0000
    50 F49     -1.2248   7.6946   0.3059   F         1 RES1   0.0000
    51 F50      1.2523   7.3404   1.1818   F         1 RES1   0.0000
    52 F51      2.9456   3.0464   5.1413   F         1 RES1   0.0000
    53 F52      2.9514   0.5471   4.3087   F         1 RES1   0.0000
    54 F53      2.4147  -0.0634   1.7070   F         1 RES1   0.0000
    55 F54      1.9612   1.9538  -0.0693   F         1 RES1   0.0000
    56 F55      1.9572   4.4942   0.7402   F         1 RES1   0.0000
    57 F56      4.6828   5.1065   1.8330   F         1 RES1   0.0000
    58 F57      6.5039   7.0150   1.4246   F         1 RES1   0.0000
    59 F58      6.1019   9.5417   2.3366   F         1 RES1   0.0000
    60 F59      3.8352  10.1218   3.7227   F         1 RES1   0.0000
    61 F60      1.9785   8.2546   4.1288   F         1 RES1   0.0000
    62 N1      -0.0863   7.6989   8.3190   N.1       1 RES1   0.0000
    63 N2       2.7639   5.6588  11.0220   N.1       1 RES1   0.0000
    64 N3       4.2659   7.9994   7.8270   N.1       1 RES1   0.0000
    65 N4       2.0400   5.5755   4.9862   N.1       1 RES1   0.0000
    66 N5       1.0349   4.1786   8.2228   N.ar      1 RES1   0.0000
    67 N6       3.6248   4.3210   7.8963   N.ar      1 RES1   0.0000
    68 C1       0.8281   6.9996   8.1987   C.1       1 RES1   0.0000
    69 C2      -2.5973   7.2327   8.1313   C.ar      1 RES1   0.0000
    70 C3      -2.6706   6.3125   9.1711   C.ar      1 RES1   0.0000
    71 C4      -3.6249   5.3232   9.2749   C.ar      1 RES1   0.0000
    72 C5      -4.5863   5.2228   8.2918   C.ar      1 RES1   0.0000
    73 C6      -4.5642   6.0995   7.2360   C.ar      1 RES1   0.0000
    74 C7      -3.5871   7.0817   7.1689   C.ar      1 RES1   0.0000
    75 C8      -1.8616   9.1843   9.6475   C.ar      1 RES1   0.0000
    76 C9      -1.1640   9.1634  10.8490   C.ar      1 RES1   0.0000
    77 C10     -1.6709   9.6901  12.0254   C.ar      1 RES1   0.0000
    78 C11     -2.9056  10.2935  12.0411   C.ar      1 RES1   0.0000
    79 C12     -3.6257  10.3736  10.8693   C.ar      1 RES1   0.0000
    80 C13     -3.1100   9.8019   9.7277   C.ar      1 RES1   0.0000
    81 C14     -1.3613   9.4226   6.9445   C.ar      1 RES1   0.0000
    82 C15     -1.0943   8.8901   5.6863   C.ar      1 RES1   0.0000
    83 C16     -1.0324   9.6324   4.5262   C.ar      1 RES1   0.0000
    84 C17     -1.2294  11.0013   4.5813   C.ar      1 RES1   0.0000
    85 C18     -1.4668  11.5884   5.7969   C.ar      1 RES1   0.0000
    86 C19     -1.5113  10.8043   6.9395   C.ar      1 RES1   0.0000
    87 C20      2.5339   5.7640   9.9035   C.1       1 RES1   0.0000
    88 C21      2.3732   6.7003  13.2977   C.ar      1 RES1   0.0000
    89 C22      2.9284   7.9360  12.9671   C.ar      1 RES1   0.0000
    90 C23      2.5448   9.1327  13.5387   C.ar      1 RES1   0.0000
    91 C24      1.5702   9.1289  14.5115   C.ar      1 RES1   0.0000
    92 C25      0.9839   7.9391  14.8737   C.ar      1 RES1   0.0000
    93 C26      1.3890   6.7570  14.2692   C.ar      1 RES1   0.0000
    94 C27      4.5384   5.1715  12.8280   C.ar      1 RES1   0.0000
    95 C28      5.3668   4.5176  11.9226   C.ar      1 RES1   0.0000
    96 C29      6.7347   4.4023  12.0818   C.ar      1 RES1   0.0000
    97 C30      7.3268   4.9358  13.2000   C.ar      1 RES1   0.0000
    98 C31      6.5505   5.5379  14.1486   C.ar      1 RES1   0.0000
    99 C32      5.1809   5.6351  13.9574   C.ar      1 RES1   0.0000
   100 C33      2.0820   3.9782  12.7675   C.ar      1 RES1   0.0000
   101 C34      0.7767   3.8896  12.2846   C.ar      1 RES1   0.0000
   102 C35      0.0470   2.7228  12.2620   C.ar      1 RES1   0.0000
   103 C36      0.6166   1.5519  12.7174   C.ar      1 RES1   0.0000
   104 C37      1.8865   1.5873  13.2404   C.ar      1 RES1   0.0000
   105 C38      2.5790   2.7838  13.2648   C.ar      1 RES1   0.0000
   106 C39      3.4873   7.1533   7.8750   C.1       1 RES1   0.0000
   107 C40      6.2781   9.4329   6.8778   C.ar      1 RES1   0.0000
   108 C41      6.5783   8.5353   5.8615   C.ar      1 RES1   0.0000
   109 C42      7.6508   8.6919   5.0000   C.ar      1 RES1   0.0000
   110 C43      8.4875   9.7844   5.1366   C.ar      1 RES1   0.0000
   111 C44      8.2396  10.6999   6.1395   C.ar      1 RES1   0.0000
   112 C45      7.1546  10.5089   6.9612   C.ar      1 RES1   0.0000
   113 C46      3.9408  10.4635   7.9308   C.ar      1 RES1   0.0000
   114 C47      2.8992  10.4628   8.8552   C.ar      1 RES1   0.0000
   115 C48      1.7988  11.2933   8.7813   C.ar      1 RES1   0.0000
   116 C49      1.6842  12.1649   7.7164   C.ar      1 RES1   0.0000
   117 C50      2.6763  12.2023   6.7709   C.ar      1 RES1   0.0000
   118 C51      3.7809  11.3767   6.8985   C.ar      1 RES1   0.0000
   119 C52      5.8891   9.1552   9.4441   C.ar      1 RES1   0.0000
   120 C53      6.6932   8.0433   9.6660   C.ar      1 RES1   0.0000
   121 C54      7.4731   7.8648  10.7929   C.ar      1 RES1   0.0000
   122 C55      7.4543   8.8192  11.7838   C.ar      1 RES1   0.0000
   123 C56      6.6739   9.9448  11.6190   C.ar      1 RES1   0.0000
   124 C57      5.9252  10.0895  10.4654   C.ar      1 RES1   0.0000
   125 C58      2.0635   5.6978   6.1269   C.1       1 RES1   0.0000
   126 C59      0.5747   5.8340   2.8925   C.ar      1 RES1   0.0000
   127 C60     -0.5341   5.2310   3.4713   C.ar      1 RES1   0.0000
   128 C61     -1.8320   5.4329   3.0420   C.ar      1 RES1   0.0000
   129 C62     -2.0687   6.2479   1.9615   C.ar      1 RES1   0.0000
   130 C63     -1.0111   6.8709   1.3450   C.ar      1 RES1   0.0000
   131 C64      0.2758   6.6627   1.8226   C.ar      1 RES1   0.0000
   132 C65      2.3740   3.9178   2.9956   C.ar      1 RES1   0.0000
   133 C66      2.6638   2.8497   3.8367   C.ar      1 RES1   0.0000
   134 C67      2.6824   1.5244   3.4275   C.ar      1 RES1   0.0000
   135 C68      2.4218   1.2147   2.1188   C.ar      1 RES1   0.0000
   136 C69      2.1805   2.2368   1.2253   C.ar      1 RES1   0.0000
   137 C70      2.1754   3.5397   1.6725   C.ar      1 RES1   0.0000
   138 C71      3.2321   6.5740   3.0132   C.ar      1 RES1   0.0000
   139 C72      4.4080   6.3371   2.3206   C.ar      1 RES1   0.0000
   140 C73      5.3711   7.3102   2.0799   C.ar      1 RES1   0.0000
   141 C74      5.1769   8.5875   2.5459   C.ar      1 RES1   0.0000
   142 C75      4.0271   8.8838   3.2448   C.ar      1 RES1   0.0000
   143 C76      3.0941   7.8855   3.4560   C.ar      1 RES1   0.0000
   144 B1      -1.4539   8.4282   8.2485   B         1 RES1  -1.0000
   145 B2       2.9360   5.3623  12.5400   B         1 RES1  -1.0000
   146 B3       5.0953   9.2933   8.0060   B         1 RES1  -1.0000
   147 B4       2.0884   5.4776   3.4438   B         1 RES1  -1.0000
   148 C77      1.7116   3.0020   8.3266   C.ar      1 RES1   0.0000
   149 C78      3.1185   3.0781   8.1435   C.ar      1 RES1   0.0000
   150 C79     -0.2880   4.1346   8.2958   C.ar      1 RES1   0.0000
   151 H1      -0.7782   4.9416   8.1914   H         1 RES1   0.0000
   152 C80     -0.9923   2.9422   8.5215   C.ar      1 RES1   0.0000
   153 H2      -1.9406   2.9550   8.5775   H         1 RES1   0.0000
   154 C81     -0.3142   1.7581   8.6609   C.ar      1 RES1   0.0000
   155 H3      -0.7838   0.9491   8.8267   H         1 RES1   0.0000
   156 C82      1.0894   1.7620   8.5547   C.ar      1 RES1   0.0000
   157 C83      1.9060   0.5857   8.6258   C.ar      1 RES1   0.0000
   158 H4       1.5029  -0.2548   8.8093   H         1 RES1   0.0000
   159 C84      3.2409   0.6572   8.4356   C.ar      1 RES1   0.0000
   160 H5       3.7601  -0.1372   8.4802   H         1 RES1   0.0000
   161 C85      3.8922   1.9072   8.1674   C.ar      1 RES1   0.0000
   162 C86      5.2647   2.0491   7.8960   C.ar      1 RES1   0.0000
   163 H6       5.8374   1.2912   7.9048   H         1 RES1   0.0000
   164 C87      5.7652   3.2918   7.6186   C.ar      1 RES1   0.0000
   165 H7       6.6870   3.3952   7.4137   H         1 RES1   0.0000
   166 C88      4.9243   4.4132   7.6359   C.ar      1 RES1   0.0000
   167 H8       5.2964   5.2684   7.4548   H         1 RES1   0.0000
   168 As1      3.0101  14.6588   2.0091   As        2 RES2   1.0000
   169 C89      4.4085  14.2078   3.2313   C.ar      2 RES2   0.0000
   170 C90      5.2544  13.1457   2.9389   C.ar      2 RES2   0.0000
   171 H9       5.0666  12.5658   2.2103   H         2 RES2   0.0000
   172 C91      6.3783  12.9450   3.7283   C.ar      2 RES2   0.0000
   173 H10      6.9643  12.2209   3.5416   H         2 RES2   0.0000
   174 C92      6.6477  13.7926   4.7822   C.ar      2 RES2   0.0000
   175 H11      7.4223  13.6544   5.3145   H         2 RES2   0.0000
   176 C93      5.7961  14.8410   5.0668   C.ar      2 RES2   0.0000
   177 H12      5.9884  15.4187   5.7959   H         2 RES2   0.0000
   178 C94      4.6616  15.0590   4.2977   C.ar      2 RES2   0.0000
   179 H13      4.0708  15.7758   4.4969   H         2 RES2   0.0000
   180 C95      2.2804  13.0474   1.2598   C.ar      2 RES2   0.0000
   181 C96      1.9991  12.9597  -0.0997   C.ar      2 RES2   0.0000
   182 H14      2.1560  13.6992  -0.6749   H         2 RES2   0.0000
   183 C97      1.4844  11.7698  -0.6001   C.ar      2 RES2   0.0000
   184 H15      1.2916  11.6940  -1.5274   H         2 RES2   0.0000
   185 C98      1.2496  10.6931   0.2394   C.ar      2 RES2   0.0000
   186 H16      0.9016   9.8828  -0.1137   H         2 RES2   0.0000
   187 C99      1.5211  10.7970   1.5888   C.ar      2 RES2   0.0000
   188 H17      1.3500  10.0607   2.1641   H         2 RES2   0.0000
   189 C100     2.0439  11.9755   2.1087   C.ar      2 RES2   0.0000
   190 H18      2.2375  12.0463   3.0362   H         2 RES2   0.0000
   191 C101     1.6168  15.6424   2.8869   C.ar      2 RES2   0.0000
   192 C102     0.6959  14.9614   3.6810   C.ar      2 RES2   0.0000
   193 H19      0.7642  14.0210   3.7966   H         2 RES2   0.0000
   194 C103    -0.3223  15.6726   4.3015   C.ar      2 RES2   0.0000
   195 H20     -0.9591  15.2172   4.8395   H         2 RES2   0.0000
   196 C104    -0.4117  17.0452   4.1370   C.ar      2 RES2   0.0000
   197 H21     -1.1119  17.5269   4.5616   H         2 RES2   0.0000
   198 C105     0.5122  17.7190   3.3585   C.ar      2 RES2   0.0000
   199 H22      0.4492  18.6616   3.2577   H         2 RES2   0.0000
   200 C106     1.5365  17.0181   2.7211   C.ar      2 RES2   0.0000
   201 H23      2.1700  17.4760   2.1810   H         2 RES2   0.0000
   202 C107     3.8038  15.7810   0.6794   C.ar      2 RES2   0.0000
   203 C108     3.0265  16.3364  -0.3372   C.ar      2 RES2   0.0000
   204 H24      2.0966  16.1498  -0.3904   H         2 RES2   0.0000
   205 C109     3.6323  17.1641  -1.2679   C.ar      2 RES2   0.0000
   206 H25      3.1161  17.5358  -1.9736   H         2 RES2   0.0000
   207 C110     4.9809  17.4545  -1.1799   C.ar      2 RES2   0.0000
   208 H26      5.3825  18.0363  -1.8144   H         2 RES2   0.0000
   209 C111     5.7498  16.8986  -0.1670   C.ar      2 RES2   0.0000
   210 H27      6.6773  17.0966  -0.1115   H         2 RES2   0.0000
   211 C112     5.1636  16.0541   0.7637   C.ar      2 RES2   0.0000
   212 H28      5.6879  15.6652   1.4540   H         2 RES2   0.0000
   213 N7      -3.7509   8.6863  17.4247   N.4       3 RES3   1.0000
   214 C113    -3.4785   7.4178  16.6362   C.3       3 RES3   0.0000
   215 H29     -2.7378   6.9332  17.0797   H         3 RES3   0.0000
   216 H30     -4.2821   6.8422  16.6926   H         3 RES3   0.0000
   217 C114    -3.1216   7.5865  15.1724   C.3       3 RES3   0.0000
   218 H31     -2.3596   8.2119  15.0796   H         3 RES3   0.0000
   219 H32     -3.8931   7.9593  14.6766   H         3 RES3   0.0000
   220 C115    -2.7468   6.2191  14.6036   C.3       3 RES3   0.0000
   221 H33     -1.9273   5.8938  15.0539   H         3 RES3   0.0000
   222 H34     -3.4749   5.5766  14.7970   H         3 RES3   0.0000
   223 C116    -2.5073   6.2635  13.1056   C.3       3 RES3   0.0000
   224 H35     -3.2938   6.6421  12.6603   H         3 RES3   0.0000
   225 H36     -2.3490   5.3554  12.7731   H         3 RES3   0.0000
   226 H37     -1.7244   6.8218  12.9165   H         3 RES3   0.0000
   227 C117    -2.4621   9.4788  17.6161   C.3       3 RES3   0.0000
   228 H38     -2.0358   9.6046  16.7315   H         3 RES3   0.0000
   229 H39     -2.6935  10.3757  17.9657   H         3 RES3   0.0000
   230 C118    -1.4494   8.8412  18.5541   C.3       3 RES3   0.0000
   231 H40     -1.1735   7.9615  18.1934   H         3 RES3   0.0000
   232 H41     -1.8672   8.6926  19.4393   H         3 RES3   0.0000
   233 C119    -0.2222   9.7333  18.7139   C.3       3 RES3   0.0000
   234 H42      0.2827   9.7531  17.8626   H         3 RES3   0.0000
   235 H43     -0.5121  10.6573  18.9194   H         3 RES3   0.0000
   236 C120     0.6844   9.2298  19.8264   C.3       3 RES3   0.0000
   237 H44      0.9207   8.2940  19.6567   H         3 RES3   0.0000
   238 H45      0.2167   9.2982  20.6848   H         3 RES3   0.0000
   239 H46      1.4996   9.7728  19.8543   H         3 RES3   0.0000
   240 C121    -4.3179   8.2543  18.7684   C.3       3 RES3   0.0000
   241 H47     -3.6726   7.6386  19.1980   H         3 RES3   0.0000
   242 H48     -5.1524   7.7463  18.6082   H         3 RES3   0.0000
   243 C122    -4.6222   9.3874  19.7387   C.3       3 RES3   0.0000
   244 H49     -5.3746   9.9282  19.3899   H         3 RES3   0.0000
   245 H50     -3.8307   9.9768  19.8172   H         3 RES3   0.0000
   246 C123    -4.9865   8.8345  21.1172   C.3       3 RES3   0.0000
   247 H51     -5.2787   9.5836  21.6949   H         3 RES3   0.0000
   248 H52     -5.7511   8.2133  21.0206   H         3 RES3   0.0000
   249 C124    -3.8451   8.1035  21.8029   C.3       3 RES3   0.0000
   250 H53     -3.6597   7.2671  21.3269   H         3 RES3   0.0000
   251 H54     -4.0942   7.9038  22.7293   H         3 RES3   0.0000
   252 H55     -3.0437   8.6681  21.7948   H         3 RES3   0.0000
   253 C125    -4.7348   9.5763  16.6826   C.3       3 RES3   0.0000
   254 H56     -4.2972   9.9157  15.8620   H         3 RES3   0.0000
   255 H57     -4.9468  10.3572  17.2530   H         3 RES3   0.0000
   256 C126    -6.0374   8.8925  16.2915   C.3       3 RES3   0.0000
   257 H58     -6.4256   8.4381  17.0805   H         3 RES3   0.0000
   258 H59     -5.8599   8.2091  15.5975   H         3 RES3   0.0000
   259 C127    -7.0231   9.9240  15.7562   C.3       3 RES3   0.0000
   260 H60     -6.5888  10.4474  15.0368   H         3 RES3   0.0000
   261 H61     -7.2670  10.5499  16.4833   H         3 RES3   0.0000
   262 C128    -8.2893   9.2717  15.2087   C.3       3 RES3   0.0000
   263 H62     -8.0618   8.7165  14.4338   H         3 RES3   0.0000
   264 H63     -8.9238   9.9674  14.9370   H         3 RES3   0.0000
   265 H64     -8.6952   8.7124  15.9034   H         3 RES3   0.0000
@<TRIPOS>BOND
     1     1    66    1
     2     2    70    1
     3     3    71    1
     4     4    72    1
     5     5    73    1
     6     6    74    1
     7     7    76    1
     8     8    77    1
     9     9    78    1
    10    10    79    1
    11    11    80    1
    12    12    82    1
    13    13    83    1
    14    14    84    1
    15    15    85    1
    16    16    86    1
    17    17    89    1
    18    18    90    1
    19    19    91    1
    20    20    92    1
    21    21    93    1
    22    22    95    1
    23    23    96    1
    24    24    97    1
    25    25    98    1
    26    26    99    1
    27    27   101    1
    28    28   102    1
    29    29   103    1
    30    30   104    1
    31    31   105    1
    32    32   108    1
    33    33   109    1
    34    34   110    1
    35    35   111    1
    36    36   112    1
    37    37   114    1
    38    38   115    1
    39    39   116    1
    40    40   117    1
    41    41   118    1
    42    42   120    1
    43    43   121    1
    44    44   122    1
    45    45   123    1
    46    46   124    1
    47    47   127    1
    48    48   128    1
    49    49   129    1
    50    50   130    1
    51    51   131    1
    52    52   133    1
    53    53   134    1
    54    54   135    1
    55    55   136    1
    56    56   137    1
    57    57   139    1
    58    58   140    1
    59    59   141    1
    60    60   142    1
    61    61   143    1
    62    62    68    3
    63    63    87    3
    64    64   106    3
    65    65   125    3
    66    66   148   ar
    67    67     1    1
    68    68     1    1
    69    69    70   ar
    70    70    71   ar
    71    71    72   ar
    72    72    73   ar
    73    73    74   ar
    74    74    69   ar
    75    75    76   ar
    76    76    77   ar
    77    77    78   ar
    78    78    79   ar
    79    79    80   ar
    80    80    75   ar
    81    81    82   ar
    82    82    83   ar
    83    83    84   ar
    84    84    85   ar
    85    85    86   ar
    86    86    81   ar
    87    87     1    1
    88    88    89   ar
    89    89    90   ar
    90    90    91   ar
    91    91    92   ar
    92    92    93   ar
    93    93    88   ar
    94    94    95   ar
    95    95    96   ar
    96    96    97   ar
    97    97    98   ar
    98    98    99   ar
    99    99    94   ar
   100   100   101   ar
   101   101   102   ar
   102   102   103   ar
   103   103   104   ar
   104   104   105   ar
   105   105   100   ar
   106   106     1    1
   107   107   108   ar
   108   108   109   ar
   109   109   110   ar
   110   110   111   ar
   111   111   112   ar
   112   112   107   ar
   113   113   114   ar
   114   114   115   ar
   115   115   116   ar
   116   116   117   ar
   117   117   118   ar
   118   118   113   ar
   119   119   120   ar
   120   120   121   ar
   121   121   122   ar
   122   122   123   ar
   123   123   124   ar
   124   124   119   ar
   125   125     1    1
   126   126   127   ar
   127   127   128   ar
   128   128   129   ar
   129   129   130   ar
   130   130   131   ar
   131   131   126   ar
   132   132   133   ar
   133   133   134   ar
   134   134   135   ar
   135   135   136   ar
   136   136   137   ar
   137   137   132   ar
   138   138   139   ar
   139   139   140   ar
   140   140   141   ar
   141   141   142   ar
   142   142   143   ar
   143   143   138   ar
   144   144    62    1
   145   145    63    1
   146   146    64    1
   147   147    65    1
   148   148   149   ar
   149   149    67   ar
   150   150    66   ar
   151   151   150    1
   152   152   150   ar
   153   153   152    1
   154   154   152   ar
   155   155   154    1
   156   156   148   ar
   157   157   156   ar
   158   158   157    1
   159   159   157   ar
   160   160   159    1
   161   161   149   ar
   162   162   161   ar
   163   163   162    1
   164   164   162   ar
   165   165   164    1
   166   166    67   ar
   167   167   166    1
   168    69   144    1
   169    75   144    1
   170    81   144    1
   171    88   145    1
   172    94   145    1
   173   100   145    1
   174   107   146    1
   175   113   146    1
   176   119   146    1
   177   126   147    1
   178   132   147    1
   179   138   147    1
   180   154   156   ar
   181   159   161   ar
   182   164   166   ar
   183   168   169    1
   184   169   170   ar
   185   170   171    1
   186   172   170   ar
   187   173   172    1
   188   174   172   ar
   189   175   174    1
   190   176   174   ar
   191   177   176    1
   192   178   169   ar
   193   179   178    1
   194   180   168    1
   195   181   180   ar
   196   182   181    1
   197   183   181   ar
   198   184   183    1
   199   185   183   ar
   200   186   185    1
   201   187   185   ar
   202   188   187    1
   203   189   180   ar
   204   190   189    1
   205   191   168    1
   206   192   191   ar
   207   193   192    1
   208   194   192   ar
   209   195   194    1
   210   196   194   ar
   211   197   196    1
   212   198   196   ar
   213   199   198    1
   214   200   191   ar
   215   201   200    1
   216   202   168    1
   217   203   202   ar
   218   204   203    1
   219   205   203   ar
   220   206   205    1
   221   207   205   ar
   222   208   207    1
   223   209   207   ar
   224   210   209    1
   225   211   202   ar
   226   212   211    1
   227   176   178   ar
   228   187   189   ar
   229   198   200   ar
   230   209   211   ar
   231   213   214    1
   232   214   215    1
   233   216   214    1
   234   217   214    1
   235   218   217    1
   236   219   217    1
   237   220   217    1
   238   221   220    1
   239   222   220    1
   240   223   220    1
   241   224   223    1
   242   225   223    1
   243   226   223    1
   244   227   213    1
   245   228   227    1
   246   229   227    1
   247   230   227    1
   248   231   230    1
   249   232   230    1
   250   233   230    1
   251   234   233    1
   252   235   233    1
   253   236   233    1
   254   237   236    1
   255   238   236    1
   256   239   236    1
   257   240   213    1
   258   241   240    1
   259   242   240    1
   260   243   240    1
   261   244   243    1
   262   245   243    1
   263   246   243    1
   264   247   246    1
   265   248   246    1
   266   249   246    1
   267   250   249    1
   268   251   249    1
   269   252   249    1
   270   253   213    1
   271   254   253    1
   272   255   253    1
   273   256   253    1
   274   257   256    1
   275   258   256    1
   276   259   256    1
   277   260   259    1
   278   261   259    1
   279   262   259    1
   280   263   262    1
   281   264   262    1
   282   265   262    1
@<TRIPOS>SUBSTRUCTURE
     1 RES1        1 GROUP             0 ****  ****    0  
     2 RES2      168 GROUP             0 ****  ****    0  
     3 RES3      213 GROUP             0 ****  ****    0  
@<TRIPOS>CRYSIN
   14.1069   15.1484   31.6230   95.1500   92.6820  117.4530     2     1
