@<TRIPOS>MOLECULE
SUVZOB
   119   127     3     0     0
SMALL
USER_CHARGES
****
Generated from the CSD

@<TRIPOS>ATOM
     1 Fe1      2.8764  10.7428   6.2951   Fe        1 RES1   2.0000
     2 N1       3.0835  11.7814   8.7271   N.3       1 RES1   0.0000
     3 N2       4.7257  11.8421   6.4996   N.2       1 RES1   0.0000
     4 N3       4.4221   9.6008   5.0969   N.2       1 RES1   0.0000
     5 N4       4.4617   8.5660   4.2995   N.2       1 RES1   0.0000
     6 N5       5.6933   8.5653   3.7352   N.pl3     1 RES1   0.0000
     7 N6       2.8089   9.1828   7.7745   N.2       1 RES1   0.0000
     8 N7       1.4792   9.1866   5.5153   N.2       1 RES1   0.0000
     9 N8       0.8443   8.9929   4.3986   N.2       1 RES1   0.0000
    10 N9       0.3746   7.7205   4.4467   N.pl3     1 RES1   0.0000
    11 N10      1.1968  12.0446   6.6986   N.2       1 RES1   0.0000
    12 N11      2.3064  11.6477   4.3100   N.2       1 RES1   0.0000
    13 N12      2.5986  11.4093   3.0622   N.2       1 RES1   0.0000
    14 N13      1.5636  11.8842   2.3299   N.pl3     1 RES1   0.0000
    15 C1       4.4233  12.3828   8.8060   C.3       1 RES1   0.0000
    16 H1       5.0755  11.6984   9.0997   H         1 RES1   0.0000
    17 H2       4.4193  13.1109   9.4767   H         1 RES1   0.0000
    18 C2       4.8425  12.9355   7.4652   C.3       1 RES1   0.0000
    19 H3       4.2562  13.6892   7.2049   H         1 RES1   0.0000
    20 H4       5.7768  13.2616   7.5046   H         1 RES1   0.0000
    21 C3       5.7568  11.4337   5.8838   C.2       1 RES1   0.0000
    22 H5       6.5914  11.8802   5.9655   H         1 RES1   0.0000
    23 C4       5.6088  10.2621   5.0541   C.2       1 RES1   0.0000
    24 C5       6.4328   9.6019   4.1877   C.2       1 RES1   0.0000
    25 H6       7.3270   9.8225   3.9548   H         1 RES1   0.0000
    26 C6       6.0735   7.5083   2.8448   C.ar      1 RES1   0.0000
    27 C7       5.1055   6.6353   2.3856   C.ar      1 RES1   0.0000
    28 H7       4.1951   6.7522   2.6306   H         1 RES1   0.0000
    29 C8       5.4828   5.5881   1.5632   C.ar      1 RES1   0.0000
    30 H8       4.8169   4.9910   1.2429   H         1 RES1   0.0000
    31 C9       6.8094   5.3829   1.1909   C.ar      1 RES1   0.0000
    32 C10      7.7480   6.2806   1.6688   C.ar      1 RES1   0.0000
    33 H9       8.6595   6.1650   1.4275   H         1 RES1   0.0000
    34 C11      7.3995   7.3466   2.4909   C.ar      1 RES1   0.0000
    35 H10      8.0608   7.9527   2.8039   H         1 RES1   0.0000
    36 C12      7.1969   4.2234   0.3154   C.3       1 RES1   0.0000
    37 H11      8.0743   4.3954  -0.0853   H         1 RES1   0.0000
    38 H12      6.5297   4.1125  -0.3939   H         1 RES1   0.0000
    39 H13      7.2385   3.4064   0.8551   H         1 RES1   0.0000
    40 C13      2.9319  10.6637   9.6710   C.3       1 RES1   0.0000
    41 H14      1.9744  10.5442   9.8934   H         1 RES1   0.0000
    42 H15      3.4196  10.8669  10.5081   H         1 RES1   0.0000
    43 C14      3.4790   9.3810   9.0587   C.3       1 RES1   0.0000
    44 H16      4.4567   9.4559   8.9259   H         1 RES1   0.0000
    45 H17      3.3011   8.6136   9.6584   H         1 RES1   0.0000
    46 C15      2.1367   8.1289   7.5529   C.2       1 RES1   0.0000
    47 H18      2.0900   7.4226   8.1866   H         1 RES1   0.0000
    48 C16      1.4448   8.0614   6.2825   C.2       1 RES1   0.0000
    49 C17      0.7312   7.1133   5.5986   C.2       1 RES1   0.0000
    50 H19      0.5317   6.2262   5.8735   H         1 RES1   0.0000
    51 C18     -0.3072   7.2005   3.3069   C.ar      1 RES1   0.0000
    52 C19     -1.1282   8.0209   2.5655   C.ar      1 RES1   0.0000
    53 H20     -1.3008   8.9110   2.8492   H         1 RES1   0.0000
    54 C20     -1.6983   7.5350   1.4036   C.ar      1 RES1   0.0000
    55 H21     -2.2708   8.0994   0.8976   H         1 RES1   0.0000
    56 C21     -1.4532   6.2359   0.9559   C.ar      1 RES1   0.0000
    57 C22     -0.6497   5.4316   1.7422   C.ar      1 RES1   0.0000
    58 H22     -0.4881   4.5354   1.4714   H         1 RES1   0.0000
    59 C23     -0.0741   5.8924   2.9085   C.ar      1 RES1   0.0000
    60 H23      0.4746   5.3209   3.4324   H         1 RES1   0.0000
    61 C24     -2.0186   5.7452  -0.3447   C.3       1 RES1   0.0000
    62 H24     -2.6385   6.4139  -0.7040   H         1 RES1   0.0000
    63 H25     -2.4956   4.9029  -0.1965   H         1 RES1   0.0000
    64 H26     -1.2889   5.6003  -0.9831   H         1 RES1   0.0000
    65 C25      2.0090  12.7814   8.8401   C.3       1 RES1   0.0000
    66 H27      2.3269  13.6492   8.4853   H         1 RES1   0.0000
    67 H28      1.7740  12.9073   9.7936   H         1 RES1   0.0000
    68 C26      0.7846  12.3418   8.0734   C.3       1 RES1   0.0000
    69 H29      0.3912  11.5359   8.4930   H         1 RES1   0.0000
    70 H30      0.1040  13.0608   8.0773   H         1 RES1   0.0000
    71 C27      0.5797  12.5660   5.7213   C.2       1 RES1   0.0000
    72 H31     -0.1792  13.1228   5.8500   H         1 RES1   0.0000
    73 C28      1.0919  12.2693   4.3951   C.2       1 RES1   0.0000
    74 C29      0.6120  12.4215   3.1264   C.2       1 RES1   0.0000
    75 H32     -0.2096  12.8177   2.8613   H         1 RES1   0.0000
    76 C30      1.5946  11.7853   0.9051   C.ar      1 RES1   0.0000
    77 C31      2.7933  11.5494   0.2550   C.ar      1 RES1   0.0000
    78 H33      3.5937  11.4295   0.7527   H         1 RES1   0.0000
    79 C32      2.8143  11.4902  -1.1290   C.ar      1 RES1   0.0000
    80 H34      3.6354  11.3171  -1.5742   H         1 RES1   0.0000
    81 C33      1.6610  11.6783  -1.8798   C.ar      1 RES1   0.0000
    82 C34      0.4774  11.8992  -1.2021   C.ar      1 RES1   0.0000
    83 H35     -0.3225  12.0193  -1.7004   H         1 RES1   0.0000
    84 C35      0.4201  11.9514   0.1831   C.ar      1 RES1   0.0000
    85 H36     -0.4061  12.0977   0.6289   H         1 RES1   0.0000
    86 C36      1.7069  11.6335  -3.3879   C.3       1 RES1   0.0000
    87 H37      1.8654  10.7125  -3.6828   H         1 RES1   0.0000
    88 H38      2.4329  12.2086  -3.7097   H         1 RES1   0.0000
    89 H39      0.8540  11.9508  -3.7505   H         1 RES1   0.0000
    90 S1       9.4960  11.5920   1.6859   S.o2      2 RES2   0.0000
    91 S2       7.7041  13.4238   2.7667   S.o2      2 RES2   0.0000
    92 F1      10.5111  10.3523  -0.3500   F         2 RES2   0.0000
    93 F2      10.3451  12.4717  -0.6434   F         2 RES2   0.0000
    94 F3       8.5917  11.2305  -0.7508   F         2 RES2   0.0000
    95 F4       5.1581  13.2801   3.1690   F         2 RES2   0.0000
    96 F5       5.9469  11.6018   2.0963   F         2 RES2   0.0000
    97 F6       5.6830  13.4663   1.1038   F         2 RES2   0.0000
    98 O1      10.8030  11.7960   2.2108   O.2       2 RES2   0.0000
    99 O2       8.8122  10.4024   2.0864   O.2       2 RES2   0.0000
   100 O3       7.8926  12.7886   4.0339   O.2       2 RES2   0.0000
   101 O4       7.6256  14.8530   2.7130   O.2       2 RES2   0.0000
   102 N14      8.6362  12.9020   1.6292   N.2       2 RES2  -1.0000
   103 C37      9.7379  11.4168  -0.1182   C.3       2 RES2   0.0000
   104 C38      6.0354  12.9159   2.2419   C.3       2 RES2   0.0000
   105 S3      10.5866   9.6442   7.7457   S.o2      3 RES3   0.0000
   106 S4       7.9249   9.8613   8.5631   S.o2      3 RES3   0.0000
   107 F7      11.4942  10.5219   5.4683   F         3 RES3   0.0000
   108 F8       9.4098  10.8971   5.7846   F         3 RES3   0.0000
   109 F9      10.0857   8.9330   5.2762   F         3 RES3   0.0000
   110 F10      6.7114   9.9885  10.8428   F         3 RES3   0.0000
   111 F11      8.8494   9.8425  11.0021   F         3 RES3   0.0000
   112 F12      7.6799   8.1221  10.5013   F         3 RES3   0.0000
   113 O5      10.9178  10.8895   8.3516   O.2       3 RES3   0.0000
   114 O6      11.5554   8.5998   7.7636   O.2       3 RES3   0.0000
   115 O7       8.0403  11.2831   8.5476   O.2       3 RES3   0.0000
   116 O8       6.7652   9.2869   7.9778   O.2       3 RES3   0.0000
   117 N15      9.1889   9.0312   8.1259   N.2       3 RES3  -1.0000
   118 C39     10.3825  10.0265   5.9660   C.3       3 RES3   0.0000
   119 C40      7.7826   9.4186  10.3288   C.3       3 RES3   0.0000
@<TRIPOS>BOND
     1     1     3    1
     2     2    15    1
     3     3    18    1
     4     4     1    1
     5     5     4    2
     6     6     5    1
     7     7     1    1
     8     8     1    1
     9     9     8    2
    10    10     9    1
    11    11     1    1
    12    12     1    1
    13    13    12    2
    14    14    13    1
    15    15    16    1
    16    17    15    1
    17    18    15    1
    18    19    18    1
    19    20    18    1
    20    21     3    2
    21    22    21    1
    22    23     4    1
    23    24     6    1
    24    25    24    1
    25    26     6    1
    26    27    26   ar
    27    28    27    1
    28    29    27   ar
    29    30    29    1
    30    31    29   ar
    31    32    31   ar
    32    33    32    1
    33    34    26   ar
    34    35    34    1
    35    36    31    1
    36    37    36    1
    37    38    36    1
    38    39    36    1
    39    40     2    1
    40    41    40    1
    41    42    40    1
    42    43     7    1
    43    44    43    1
    44    45    43    1
    45    46     7    2
    46    47    46    1
    47    48     8    1
    48    49    10    1
    49    50    49    1
    50    51    10    1
    51    52    51   ar
    52    53    52    1
    53    54    52   ar
    54    55    54    1
    55    56    54   ar
    56    57    56   ar
    57    58    57    1
    58    59    51   ar
    59    60    59    1
    60    61    56    1
    61    62    61    1
    62    63    61    1
    63    64    61    1
    64    65     2    1
    65    66    65    1
    66    67    65    1
    67    68    11    1
    68    69    68    1
    69    70    68    1
    70    71    11    2
    71    72    71    1
    72    73    12    1
    73    74    14    1
    74    75    74    1
    75    76    14    1
    76    77    76   ar
    77    78    77    1
    78    79    77   ar
    79    80    79    1
    80    81    79   ar
    81    82    81   ar
    82    83    82    1
    83    84    76   ar
    84    85    84    1
    85    86    81    1
    86    87    86    1
    87    88    86    1
    88    89    86    1
    89    21    23    1
    90    23    24    2
    91    32    34   ar
    92    40    43    1
    93    46    48    1
    94    48    49    2
    95    57    59   ar
    96    65    68    1
    97    71    73    1
    98    73    74    2
    99    82    84   ar
   100    90    98    2
   101    91   100    2
   102    92   103    1
   103    93   103    1
   104    94   103    1
   105    95   104    1
   106    96   104    1
   107    97   104    1
   108    99    90    2
   109   101    91    2
   110   102    90    1
   111   103    90    1
   112   104    91    1
   113    91   102    1
   114   105   113    2
   115   106   115    2
   116   107   118    1
   117   108   118    1
   118   109   118    1
   119   110   119    1
   120   111   119    1
   121   112   119    1
   122   114   105    2
   123   116   106    2
   124   117   105    1
   125   118   105    1
   126   119   106    1
   127   106   117    1
@<TRIPOS>SUBSTRUCTURE
     1 RES1        1 GROUP             0 ****  ****    0  
     2 RES2       90 GROUP             0 ****  ****    0  
     3 RES3      105 GROUP             0 ****  ****    0  
@<TRIPOS>CRYSIN
   13.1399   13.6304   29.7834   90.0000   99.9014   90.0000    14     1
