@<TRIPOS>MOLECULE
SUVZIV01
   119   127     3     0     0
SMALL
USER_CHARGES
****
Generated from the CSD

@<TRIPOS>ATOM
     1 Fe1      2.8265  10.8371   6.3233   Fe        1 RES1   2.0000
     2 N1       3.0190  11.8818   8.7606   N.3       1 RES1   0.0000
     3 N2       4.6748  11.9439   6.5328   N.2       1 RES1   0.0000
     4 N3       4.3982   9.6906   5.1303   N.2       1 RES1   0.0000
     5 N4       4.4612   8.6483   4.3442   N.2       1 RES1   0.0000
     6 N5       5.6932   8.6580   3.7990   N.pl3     1 RES1   0.0000
     7 N6       2.7871   9.2738   7.7978   N.2       1 RES1   0.0000
     8 N7       1.4517   9.2598   5.5322   N.2       1 RES1   0.0000
     9 N8       0.8189   9.0526   4.4199   N.2       1 RES1   0.0000
    10 N9       0.3807   7.7792   4.4587   N.pl3     1 RES1   0.0000
    11 N10      1.1410  12.1317   6.7175   N.2       1 RES1   0.0000
    12 N11      2.2749  11.7585   4.3317   N.2       1 RES1   0.0000
    13 N12      2.5815  11.5402   3.0863   N.2       1 RES1   0.0000
    14 N13      1.5547  12.0390   2.3509   N.pl3     1 RES1   0.0000
    15 C1       4.3473  12.5031   8.8375   C.3       1 RES1   0.0000
    16 H1       4.9937  11.8471   9.1418   H         1 RES1   0.0000
    17 H2       4.3284  13.2280   9.4815   H         1 RES1   0.0000
    18 C2       4.7691  13.0374   7.4906   C.3       1 RES1   0.0000
    19 H3       4.1879  13.7671   7.2236   H         1 RES1   0.0000
    20 H4       5.6793  13.3686   7.5320   H         1 RES1   0.0000
    21 C3       5.6980  11.5422   5.9255   C.2       1 RES1   0.0000
    22 H5       6.5095  11.9880   6.0060   H         1 RES1   0.0000
    23 C4       5.5748  10.3700   5.1013   C.2       1 RES1   0.0000
    24 C5       6.4100   9.7169   4.2474   C.2       1 RES1   0.0000
    25 H6       7.2817   9.9469   4.0212   H         1 RES1   0.0000
    26 C6       6.0968   7.6032   2.9238   C.ar      1 RES1   0.0000
    27 C7       5.1885   6.6740   2.5196   C.ar      1 RES1   0.0000
    28 H7       4.2968   6.7487   2.7734   H         1 RES1   0.0000
    29 C8       5.6044   5.6164   1.7255   C.ar      1 RES1   0.0000
    30 H8       4.9801   4.9752   1.4704   H         1 RES1   0.0000
    31 C9       6.9053   5.4798   1.3020   C.ar      1 RES1   0.0000
    32 C10      7.8071   6.4200   1.7506   C.ar      1 RES1   0.0000
    33 H9       8.7022   6.3323   1.5140   H         1 RES1   0.0000
    34 C11      7.4247   7.4927   2.5435   C.ar      1 RES1   0.0000
    35 H10      8.0490   8.1262   2.8150   H         1 RES1   0.0000
    36 C12      7.3514   4.3338   0.4351   C.3       1 RES1   0.0000
    37 H11      8.2372   4.5080   0.1047   H         1 RES1   0.0000
    38 H12      6.7485   4.2391  -0.3068   H         1 RES1   0.0000
    39 H13      7.3560   3.5243   0.9493   H         1 RES1   0.0000
    40 C13      2.8906  10.7455   9.6976   C.3       1 RES1   0.0000
    41 H14      1.9560  10.6109   9.9173   H         1 RES1   0.0000
    42 H15      3.3666  10.9481  10.5186   H         1 RES1   0.0000
    43 C14      3.4551   9.4767   9.0873   C.3       1 RES1   0.0000
    44 H16      4.4125   9.5626   8.9589   H         1 RES1   0.0000
    45 H17      3.2896   8.7206   9.6724   H         1 RES1   0.0000
    46 C15      2.1314   8.2120   7.5613   C.2       1 RES1   0.0000
    47 H18      2.1037   7.5114   8.1729   H         1 RES1   0.0000
    48 C16      1.4302   8.1389   6.3011   C.2       1 RES1   0.0000
    49 C17      0.7464   7.1835   5.6056   C.2       1 RES1   0.0000
    50 H19      0.5722   6.3093   5.8690   H         1 RES1   0.0000
    51 C18     -0.3005   7.2566   3.3118   C.ar      1 RES1   0.0000
    52 C19     -1.1358   8.0616   2.5770   C.ar      1 RES1   0.0000
    53 H20     -1.3084   8.9340   2.8498   H         1 RES1   0.0000
    54 C20     -1.7117   7.5659   1.4372   C.ar      1 RES1   0.0000
    55 H21     -2.2889   8.1122   0.9546   H         1 RES1   0.0000
    56 C21     -1.4709   6.2930   0.9782   C.ar      1 RES1   0.0000
    57 C22     -0.6686   5.5074   1.7640   C.ar      1 RES1   0.0000
    58 H22     -0.5193   4.6274   1.5018   H         1 RES1   0.0000
    59 C23     -0.0712   5.9575   2.9182   C.ar      1 RES1   0.0000
    60 H23      0.4754   5.3971   3.4208   H         1 RES1   0.0000
    61 C24     -2.0665   5.7780  -0.2989   C.3       1 RES1   0.0000
    62 H24     -2.9409   6.1558  -0.4188   H         1 RES1   0.0000
    63 H25     -2.1332   4.8218  -0.2587   H         1 RES1   0.0000
    64 H26     -1.5059   6.0292  -1.0372   H         1 RES1   0.0000
    65 C25      1.9366  12.8510   8.8742   C.3       1 RES1   0.0000
    66 H27      2.2379  13.7111   8.5415   H         1 RES1   0.0000
    67 H28      1.6973  12.9588   9.8083   H         1 RES1   0.0000
    68 C26      0.7146  12.4092   8.0905   C.3       1 RES1   0.0000
    69 H29      0.3319  11.6128   8.4899   H         1 RES1   0.0000
    70 H30      0.0428  13.1093   8.0967   H         1 RES1   0.0000
    71 C27      0.5418  12.6618   5.7388   C.2       1 RES1   0.0000
    72 H31     -0.2015  13.2081   5.8637   H         1 RES1   0.0000
    73 C28      1.0619  12.3843   4.4084   C.2       1 RES1   0.0000
    74 C29      0.6054  12.5638   3.1497   C.2       1 RES1   0.0000
    75 H32     -0.1926  12.9642   2.8902   H         1 RES1   0.0000
    76 C30      1.6014  11.9619   0.9267   C.ar      1 RES1   0.0000
    77 C31      2.8052  11.7879   0.2770   C.ar      1 RES1   0.0000
    78 H33      3.5960  11.7110   0.7603   H         1 RES1   0.0000
    79 C32      2.8169  11.7299  -1.1069   C.ar      1 RES1   0.0000
    80 H34      3.6276  11.6081  -1.5467   H         1 RES1   0.0000
    81 C33      1.6506  11.8500  -1.8593   C.ar      1 RES1   0.0000
    82 C34      0.4778  12.0102  -1.1744   C.ar      1 RES1   0.0000
    83 H35     -0.3150  12.0793  -1.6557   H         1 RES1   0.0000
    84 C35      0.4248  12.0737   0.2024   C.ar      1 RES1   0.0000
    85 H36     -0.3881  12.1884   0.6384   H         1 RES1   0.0000
    86 C36      1.6943  11.7879  -3.3494   C.3       1 RES1   0.0000
    87 H37      2.0715  10.9489  -3.6239   H         1 RES1   0.0000
    88 H38      2.2370  12.5067  -3.6839   H         1 RES1   0.0000
    89 H39      0.8048  11.8694  -3.6997   H         1 RES1   0.0000
    90 S1       9.6402  11.6545   1.7938   S.o2      2 RES2   0.0000
    91 S2       7.8811  13.5045   2.9064   S.o2      2 RES2   0.0000
    92 F1      10.5348  10.4694  -0.3128   F         2 RES2   0.0000
    93 F2      10.4518  12.5584  -0.5286   F         2 RES2   0.0000
    94 F3       8.6548  11.4220  -0.6124   F         2 RES2   0.0000
    95 F4       5.3201  13.4640   3.1831   F         2 RES2   0.0000
    96 F5       6.0726  11.8210   2.0815   F         2 RES2   0.0000
    97 F6       5.9354  13.7125   1.1936   F         2 RES2   0.0000
    98 O1      10.9487  11.8031   2.2786   O.2       2 RES2   0.0000
    99 O2       8.9272  10.5163   2.1848   O.2       2 RES2   0.0000
   100 O3       7.9629  12.8289   4.1453   O.2       2 RES2   0.0000
   101 O4       7.8412  14.9510   2.8833   O.2       2 RES2   0.0000
   102 N14      8.8357  13.0153   1.7835   N.2       2 RES2  -1.0000
   103 C37      9.8243  11.5325  -0.0059   C.3       2 RES2   0.0000
   104 C38      6.2025  13.1188   2.2582   C.3       2 RES2   0.0000
   105 S3      10.6300   9.7522   7.8724   S.o2      3 RES3   0.0000
   106 S4       7.9751   9.9697   8.6653   S.o2      3 RES3   0.0000
   107 F7      11.5820  10.5688   5.6023   F         3 RES3   0.0000
   108 F8       9.5456  10.9761   5.8859   F         3 RES3   0.0000
   109 F9      10.1841   9.0598   5.3996   F         3 RES3   0.0000
   110 F10      6.7460  10.0000  10.9247   F         3 RES3   0.0000
   111 F11      8.8574   9.9544  11.0978   F         3 RES3   0.0000
   112 F12      7.7616   8.2217  10.5716   F         3 RES3   0.0000
   113 O5      10.9685  10.9733   8.4933   O.2       3 RES3   0.0000
   114 O6      11.5862   8.7105   7.9058   O.2       3 RES3   0.0000
   115 O7       8.0638  11.3627   8.6511   O.2       3 RES3   0.0000
   116 O8       6.8324   9.4146   8.0633   O.2       3 RES3   0.0000
   117 N15      9.2363   9.1440   8.2086   N.2       3 RES3  -1.0000
   118 C39     10.4719  10.1615   6.0910   C.3       3 RES3   0.0000
   119 C40      7.8246   9.4933  10.4183   C.3       3 RES3   0.0000
@<TRIPOS>BOND
     1     1     3    1
     2     2    15    1
     3     3    18    1
     4     4     1    1
     5     5     4    2
     6     6     5    1
     7     7     1    1
     8     8     1    1
     9     9     8    2
    10    10     9    1
    11    11     1    1
    12    12     1    1
    13    13    12    2
    14    14    13    1
    15    15    16    1
    16    17    15    1
    17    18    15    1
    18    19    18    1
    19    20    18    1
    20    21     3    2
    21    22    21    1
    22    23     4    1
    23    24     6    1
    24    25    24    1
    25    26     6    1
    26    27    26   ar
    27    28    27    1
    28    29    27   ar
    29    30    29    1
    30    31    29   ar
    31    32    31   ar
    32    33    32    1
    33    34    26   ar
    34    35    34    1
    35    36    31    1
    36    37    36    1
    37    38    36    1
    38    39    36    1
    39    40     2    1
    40    41    40    1
    41    42    40    1
    42    43     7    1
    43    44    43    1
    44    45    43    1
    45    46     7    2
    46    47    46    1
    47    48     8    1
    48    49    10    1
    49    50    49    1
    50    51    10    1
    51    52    51   ar
    52    53    52    1
    53    54    52   ar
    54    55    54    1
    55    56    54   ar
    56    57    56   ar
    57    58    57    1
    58    59    51   ar
    59    60    59    1
    60    61    56    1
    61    62    61    1
    62    63    61    1
    63    64    61    1
    64    65     2    1
    65    66    65    1
    66    67    65    1
    67    68    11    1
    68    69    68    1
    69    70    68    1
    70    71    11    2
    71    72    71    1
    72    73    12    1
    73    74    14    1
    74    75    74    1
    75    76    14    1
    76    77    76   ar
    77    78    77    1
    78    79    77   ar
    79    80    79    1
    80    81    79   ar
    81    82    81   ar
    82    83    82    1
    83    84    76   ar
    84    85    84    1
    85    86    81    1
    86    87    86    1
    87    88    86    1
    88    89    86    1
    89    21    23    1
    90    23    24    2
    91    32    34   ar
    92    40    43    1
    93    46    48    1
    94    48    49    2
    95    57    59   ar
    96    65    68    1
    97    71    73    1
    98    73    74    2
    99    82    84   ar
   100    90    98    2
   101    91   100    2
   102    92   103    1
   103    93   103    1
   104    94   103    1
   105    95   104    1
   106    96   104    1
   107    97   104    1
   108    99    90    2
   109   101    91    2
   110   102    90    1
   111   103    90    1
   112   104    91    1
   113    91   102    1
   114   105   113    2
   115   106   115    2
   116   107   118    1
   117   108   118    1
   118   109   118    1
   119   110   119    1
   120   111   119    1
   121   112   119    1
   122   114   105    2
   123   116   106    2
   124   117   105    1
   125   118   105    1
   126   119   106    1
   127   106   117    1
@<TRIPOS>SUBSTRUCTURE
     1 RES1        1 GROUP             0 ****  ****    0  
     2 RES2       90 GROUP             0 ****  ****    0  
     3 RES3      105 GROUP             0 ****  ****    0  
@<TRIPOS>CRYSIN
   13.3124   13.8064   30.0553   90.0000  100.0240   90.0000    14     1
