@<TRIPOS>MOLECULE
SUWBAQ
   110   118     3     0     0
SMALL
USER_CHARGES
****
Generated from the CSD

@<TRIPOS>ATOM
     1 Fe1      2.8297  10.3120   5.4716   Fe        1 RES1   2.0000
     2 Cl1      7.8325   3.8428   0.2501   Cl        1 RES1   0.0000
     3 Cl2     -2.5127   5.5899  -0.8577   Cl        1 RES1   0.0000
     4 Cl3      1.3971  11.7814  -3.8953   Cl        1 RES1   0.0000
     5 N1       3.1846  11.5073   8.5460   N.3       1 RES1   0.0000
     6 N2       4.2708  11.6425   5.8686   N.2       1 RES1   0.0000
     7 N3       4.2977   9.5098   4.4780   N.2       1 RES1   0.0000
     8 N4       4.4335   8.4159   3.7797   N.2       1 RES1   0.0000
     9 N5       5.7074   8.4489   3.3013   N.pl3     1 RES1   0.0000
    10 N6       3.1588   9.0163   6.9546   N.2       1 RES1   0.0000
    11 N7       1.6509   8.8831   4.9334   N.2       1 RES1   0.0000
    12 N8       0.9135   8.7219   3.8710   N.2       1 RES1   0.0000
    13 N9       0.4948   7.4380   3.9144   N.pl3     1 RES1   0.0000
    14 N10      1.2879  11.2810   6.3185   N.2       1 RES1   0.0000
    15 N11      2.2072  11.3214   3.9377   N.2       1 RES1   0.0000
    16 N12      2.5188  11.2663   2.6702   N.2       1 RES1   0.0000
    17 N13      1.4699  11.8337   2.0186   N.pl3     1 RES1   0.0000
    18 C1       4.2036  12.4632   8.1897   C.3       1 RES1   0.0000
    19 H1       5.0939  12.0814   8.3942   H         1 RES1   0.0000
    20 H2       4.0898  13.2800   8.7373   H         1 RES1   0.0000
    21 C2       4.1458  12.8407   6.7011   C.3       1 RES1   0.0000
    22 H3       3.2867  13.2925   6.5062   H         1 RES1   0.0000
    23 H4       4.8799  13.4704   6.4894   H         1 RES1   0.0000
    24 C3       5.3899  11.4458   5.2627   C.2       1 RES1   0.0000
    25 H5       6.1213  12.0479   5.3343   H         1 RES1   0.0000
    26 C4       5.4513  10.2435   4.4670   C.2       1 RES1   0.0000
    27 C5       6.3658   9.5657   3.6992   C.2       1 RES1   0.0000
    28 H6       7.2573   9.8213   3.4932   H         1 RES1   0.0000
    29 C6       6.2126   7.3414   2.5460   C.ar      1 RES1   0.0000
    30 C7       5.4217   6.2202   2.3731   C.ar      1 RES1   0.0000
    31 H7       4.5409   6.1925   2.7277   H         1 RES1   0.0000
    32 C8       5.9343   5.1342   1.6722   C.ar      1 RES1   0.0000
    33 H8       5.4083   4.3524   1.5513   H         1 RES1   0.0000
    34 C9       7.2160   5.1986   1.1513   C.ar      1 RES1   0.0000
    35 C10      8.0083   6.3109   1.3366   C.ar      1 RES1   0.0000
    36 H9       8.8927   6.3339   0.9903   H         1 RES1   0.0000
    37 C11      7.4993   7.3975   2.0350   C.ar      1 RES1   0.0000
    38 H10      8.0302   8.1750   2.1619   H         1 RES1   0.0000
    39 C12      3.5436  10.2314   9.0988   C.3       1 RES1   0.0000
    40 H11      2.7438   9.8324   9.5244   H         1 RES1   0.0000
    41 H12      4.2223  10.3704   9.8060   H         1 RES1   0.0000
    42 C13      4.1026   9.2365   8.0652   C.3       1 RES1   0.0000
    43 H13      4.9561   9.5851   7.7042   H         1 RES1   0.0000
    44 H14      4.2901   8.3728   8.5109   H         1 RES1   0.0000
    45 C14      2.5947   7.8614   6.8317   C.2       1 RES1   0.0000
    46 H15      2.7359   7.1517   7.4471   H         1 RES1   0.0000
    47 C15      1.7235   7.7370   5.6708   C.2       1 RES1   0.0000
    48 C16      0.9745   6.7860   5.0112   C.2       1 RES1   0.0000
    49 H16      0.8265   5.8822   5.2634   H         1 RES1   0.0000
    50 C17     -0.2876   6.9589   2.8027   C.ar      1 RES1   0.0000
    51 C18     -0.9609   7.8911   2.0239   C.ar      1 RES1   0.0000
    52 H17     -0.9413   8.8121   2.2560   H         1 RES1   0.0000
    53 C19     -1.6643   7.4661   0.9022   C.ar      1 RES1   0.0000
    54 H18     -2.1333   8.0936   0.3648   H         1 RES1   0.0000
    55 C20     -1.6752   6.1214   0.5758   C.ar      1 RES1   0.0000
    56 C21     -1.0181   5.1912   1.3599   C.ar      1 RES1   0.0000
    57 H19     -1.0437   4.2696   1.1312   H         1 RES1   0.0000
    58 C22     -0.3155   5.6162   2.4923   C.ar      1 RES1   0.0000
    59 H20      0.1372   4.9867   3.0411   H         1 RES1   0.0000
    60 C23      1.8208  11.9643   8.6512   C.3       1 RES1   0.0000
    61 H21      1.7839  12.9269   8.4228   H         1 RES1   0.0000
    62 H22      1.5172  11.8634   9.5880   H         1 RES1   0.0000
    63 C24      0.8648  11.1926   7.7279   C.3       1 RES1   0.0000
    64 H23      0.8391  10.2420   8.0035   H         1 RES1   0.0000
    65 H24     -0.0491  11.5620   7.8197   H         1 RES1   0.0000
    66 C25      0.5288  11.9181   5.4956   C.2       1 RES1   0.0000
    67 H25     -0.2707  12.3530   5.7683   H         1 RES1   0.0000
    68 C26      0.9899  11.9198   4.1214   C.2       1 RES1   0.0000
    69 C27      0.5063  12.2467   2.8827   C.2       1 RES1   0.0000
    70 H26     -0.3191  12.6682   2.6741   H         1 RES1   0.0000
    71 C28      1.4689  11.8501   0.5866   C.ar      1 RES1   0.0000
    72 C29      2.6672  11.6978  -0.1002   C.ar      1 RES1   0.0000
    73 H27      3.4849  11.6013   0.3738   H         1 RES1   0.0000
    74 C30      2.6537  11.6885  -1.4941   C.ar      1 RES1   0.0000
    75 H28      3.4620  11.5821  -1.9816   H         1 RES1   0.0000
    76 C31      1.4427  11.8370  -2.1628   C.ar      1 RES1   0.0000
    77 C32      0.2513  11.9913  -1.4750   C.ar      1 RES1   0.0000
    78 H29     -0.5655  12.0935  -1.9494   H         1 RES1   0.0000
    79 C33      0.2593  11.9955  -0.0836   C.ar      1 RES1   0.0000
    80 H30     -0.5509  12.0963   0.4022   H         1 RES1   0.0000
    81 S1      10.0916  11.2208   1.5588   S.o2      2 RES2   0.0000
    82 S2       8.6947  12.9961   3.2222   S.o2      2 RES2   0.0000
    83 F1      10.3050  10.5153  -0.9285   F         2 RES2   0.0000
    84 F2      10.7284  12.6006  -0.5982   F         2 RES2   0.0000
    85 F3       8.6869  11.8924  -0.5669   F         2 RES2   0.0000
    86 F4       6.2569  13.8870   2.9984   F         2 RES2   0.0000
    87 F5       6.7376  12.3142   1.6036   F         2 RES2   0.0000
    88 F6       7.5127  14.2948   1.2794   F         2 RES2   0.0000
    89 O1      11.4824  10.8938   1.6911   O.2       2 RES2   0.0000
    90 O2       9.1191  10.1989   1.8089   O.2       2 RES2   0.0000
    91 O3       8.2658  11.9300   4.0810   O.2       2 RES2   0.0000
    92 O4       9.0319  14.2545   3.8234   O.2       2 RES2   0.0000
    93 N14      9.8201  12.6393   2.1827   N.2       2 RES2  -1.0000
    94 C34      9.9339  11.5968  -0.2316   C.3       2 RES2   0.0000
    95 C35      7.2163  13.3956   2.2057   C.3       2 RES2   0.0000
    96 S3      10.6804   9.1903   6.9485   S.o2      3 RES3   0.0000
    97 S4       8.2586  10.3388   7.7301   S.o2      3 RES3   0.0000
    98 F7      11.2566   8.2400   4.6180   F         3 RES3   0.0000
    99 F8      10.9416  10.3745   4.6321   F         3 RES3   0.0000
   100 F9       9.2614   9.0246   4.7301   F         3 RES3   0.0000
   101 F10      6.9047   9.8593   9.9064   F         3 RES3   0.0000
   102 F11      8.7964  10.8119  10.2584   F         3 RES3   0.0000
   103 F12      8.7202   8.7252   9.7664   F         3 RES3   0.0000
   104 O5      12.0612   9.4899   7.1435   O.2       3 RES3   0.0000
   105 O6      10.1908   7.8930   7.3228   O.2       3 RES3   0.0000
   106 O7       7.7340  11.6765   7.7063   O.2       3 RES3   0.0000
   107 O8       7.5262   9.3086   7.0644   O.2       3 RES3   0.0000
   108 N15      9.8157  10.4225   7.4518   N.2       3 RES3  -1.0000
   109 C36     10.5136   9.2300   5.1219   C.3       3 RES3   0.0000
   110 C37      8.1742   9.8896   9.5108   C.3       3 RES3   0.0000
@<TRIPOS>BOND
     1     1     6    1
     2     2    34    1
     3     3    55    1
     4     4    76    1
     5     5    18    1
     6     6    21    1
     7     7     1    1
     8     8     7    2
     9     9     8    1
    10    10     1    1
    11    11     1    1
    12    12    11    2
    13    13    12    1
    14    14     1    1
    15    15     1    1
    16    16    15    2
    17    17    16    1
    18    18    19    1
    19    20    18    1
    20    21    18    1
    21    22    21    1
    22    23    21    1
    23    24     6    2
    24    25    24    1
    25    26     7    1
    26    27     9    1
    27    28    27    1
    28    29     9    1
    29    30    29   ar
    30    31    30    1
    31    32    30   ar
    32    33    32    1
    33    34    32   ar
    34    35    34   ar
    35    36    35    1
    36    37    29   ar
    37    38    37    1
    38    39     5    1
    39    40    39    1
    40    41    39    1
    41    42    10    1
    42    43    42    1
    43    44    42    1
    44    45    10    2
    45    46    45    1
    46    47    11    1
    47    48    13    1
    48    49    48    1
    49    50    13    1
    50    51    50   ar
    51    52    51    1
    52    53    51   ar
    53    54    53    1
    54    55    53   ar
    55    56    55   ar
    56    57    56    1
    57    58    50   ar
    58    59    58    1
    59    60     5    1
    60    61    60    1
    61    62    60    1
    62    63    14    1
    63    64    63    1
    64    65    63    1
    65    66    14    2
    66    67    66    1
    67    68    15    1
    68    69    17    1
    69    70    69    1
    70    71    17    1
    71    72    71   ar
    72    73    72    1
    73    74    72   ar
    74    75    74    1
    75    76    74   ar
    76    77    76   ar
    77    78    77    1
    78    79    71   ar
    79    80    79    1
    80    24    26    1
    81    26    27    2
    82    35    37   ar
    83    39    42    1
    84    45    47    1
    85    47    48    2
    86    56    58   ar
    87    60    63    1
    88    66    68    1
    89    68    69    2
    90    77    79   ar
    91    81    89    2
    92    82    91    2
    93    83    94    1
    94    84    94    1
    95    85    94    1
    96    86    95    1
    97    87    95    1
    98    88    95    1
    99    90    81    2
   100    92    82    2
   101    93    81    1
   102    94    81    1
   103    95    82    1
   104    82    93    1
   105    96   104    2
   106    97   106    2
   107    98   109    1
   108    99   109    1
   109   100   109    1
   110   101   110    1
   111   102   110    1
   112   103   110    1
   113   105    96    2
   114   107    97    2
   115   108    96    1
   116   109    96    1
   117   110    97    1
   118    97   108    1
@<TRIPOS>SUBSTRUCTURE
     1 RES1        1 GROUP             0 ****  ****    0  
     2 RES2       81 GROUP             0 ****  ****    0  
     3 RES3       96 GROUP             0 ****  ****    0  
@<TRIPOS>CRYSIN
   13.6407   13.6435   28.0695   90.0000   99.7052   90.0000    14     1
