@<TRIPOS>MOLECULE
TALCUH
   179   192     3     0     0
SMALL
NO_CHARGES
****
Generated from the CSD

@<TRIPOS>ATOM
     1 Fe1     23.4449   8.2679   6.1078   Fe        1 RES1   0.0000
     2 Si1     20.2914   8.6810   6.9468   Si        1 RES1   0.0000
     3 Si2     21.0027   8.2835   3.9014   Si        1 RES1   0.0000
     4 Al1     24.1698   8.2224   3.1384   Al        1 RES1   0.0000
     5 O1      22.5959   8.2043   4.1558   O.3       1 RES1   0.0000
     6 O2      21.8049   8.4510   7.4589   O.3       1 RES1   0.0000
     7 O3      20.2601   8.5757   5.3209   O.3       1 RES1   0.0000
     8 O4      24.1067  10.1222   2.8975   O.2       1 RES1   0.0000
     9 O5      23.1803   7.9949   1.5047   O.2       1 RES1   0.0000
    10 O6      25.7641   8.2211   2.0889   O.2       1 RES1   0.0000
    11 O7      24.2748   6.3063   3.2870   O.2       1 RES1   0.0000
    12 O8      23.4449   6.1745   6.1078   O.3       1 RES1   0.0000
    13 H1      23.6707   5.8944   5.3480   H         1 RES1   0.0000
    14 O9      23.4449  10.4263   6.1078   O.3       1 RES1   0.0000
    15 H2      23.7851  10.7065   5.3944   H         1 RES1   0.0000
    16 C1      19.6326  10.3708   7.3831   C.ar      1 RES1   0.0000
    17 C2      19.7117  10.8859   8.6743   C.ar      1 RES1   0.0000
    18 H3      20.1276  10.3696   9.3547   H         1 RES1   0.0000
    19 C3      19.1987  12.1361   8.9900   C.ar      1 RES1   0.0000
    20 H4      19.2818  12.4752   9.8727   H         1 RES1   0.0000
    21 C4      18.5697  12.8850   8.0235   C.ar      1 RES1   0.0000
    22 H5      18.2020  13.7324   8.2455   H         1 RES1   0.0000
    23 C5      18.4742  12.4162   6.7508   C.ar      1 RES1   0.0000
    24 H6      18.0484  12.9383   6.0809   H         1 RES1   0.0000
    25 C6      19.0034  11.1625   6.4293   C.ar      1 RES1   0.0000
    26 H7      18.9313  10.8442   5.5361   H         1 RES1   0.0000
    27 C7      19.1399   7.3599   7.5869   C.ar      1 RES1   0.0000
    28 C8      19.3404   6.0495   7.1745   C.ar      1 RES1   0.0000
    29 H8      20.0610   5.8516   6.5867   H         1 RES1   0.0000
    30 C9      18.5071   5.0216   7.6037   C.ar      1 RES1   0.0000
    31 H9      18.6580   4.1337   7.3001   H         1 RES1   0.0000
    32 C10     17.4727   5.2844   8.4603   C.ar      1 RES1   0.0000
    33 H10     16.9092   4.5794   8.7586   H         1 RES1   0.0000
    34 C11     17.2549   6.5554   8.8812   C.ar      1 RES1   0.0000
    35 H11     16.5385   6.7383   9.4793   H         1 RES1   0.0000
    36 C12     18.0756   7.5960   8.4415   C.ar      1 RES1   0.0000
    37 H12     17.9011   8.4827   8.7342   H         1 RES1   0.0000
    38 C13     20.5569   9.7410   2.8120   C.ar      1 RES1   0.0000
    39 C14     19.8996   9.6276   1.5878   C.ar      1 RES1   0.0000
    40 H13     19.6260   8.7687   1.2900   H         1 RES1   0.0000
    41 C15     19.6315  10.7366   0.7913   C.ar      1 RES1   0.0000
    42 H14     19.1924  10.6277  -0.0440   H         1 RES1   0.0000
    43 C16     20.0039  11.9972   1.2199   C.ar      1 RES1   0.0000
    44 H15     19.8308  12.7577   0.6767   H         1 RES1   0.0000
    45 C17     20.6344  12.1442   2.4483   C.ar      1 RES1   0.0000
    46 H16     20.8795  13.0089   2.7558   H         1 RES1   0.0000
    47 C18     20.9075  11.0306   3.2227   C.ar      1 RES1   0.0000
    48 H17     21.3466  11.1463   4.0580   H         1 RES1   0.0000
    49 C19     20.2868   6.6920   3.2308   C.ar      1 RES1   0.0000
    50 C20     19.0054   6.3030   3.6222   C.ar      1 RES1   0.0000
    51 H18     18.5130   6.8656   4.2095   H         1 RES1   0.0000
    52 C21     18.4285   5.1188   3.1802   C.ar      1 RES1   0.0000
    53 H19     17.5549   4.8792   3.4692   H         1 RES1   0.0000
    54 C22     19.1188   4.2946   2.3254   C.ar      1 RES1   0.0000
    55 H20     18.7270   3.4855   2.0205   H         1 RES1   0.0000
    56 C23     20.3816   4.6500   1.9149   C.ar      1 RES1   0.0000
    57 H21     20.8616   4.0839   1.3217   H         1 RES1   0.0000
    58 C24     20.9614   5.8330   2.3642   C.ar      1 RES1   0.0000
    59 H22     21.8361   6.0599   2.0742   H         1 RES1   0.0000
    60 C25     23.8720  10.7632   1.8213   C.2       1 RES1   0.0000
    61 C26     23.3629  10.1879   0.6643   C.2       1 RES1   0.0000
    62 H23     23.2734  10.7342  -0.1075   H         1 RES1   0.0000
    63 C27     22.9749   8.8520   0.5756   C.2       1 RES1   0.0000
    64 C28     22.2703   8.3473  -0.6452   C.3       1 RES1   0.0000
    65 H24     22.9297   8.1123  -1.3291   H         1 RES1   0.0000
    66 H25     21.6753   9.0453  -0.9919   H         1 RES1   0.0000
    67 H26     21.7444   7.5532  -0.4129   H         1 RES1   0.0000
    68 C29     24.1546  12.2414   1.8663   C.3       1 RES1   0.0000
    69 H27     23.3107  12.7369   1.8177   H         1 RES1   0.0000
    70 H28     24.7205  12.4891   1.1067   H         1 RES1   0.0000
    71 H29     24.6157  12.4602   2.7021   H         1 RES1   0.0000
    72 C30     26.3176   7.2372   1.4954   C.2       1 RES1   0.0000
    73 C31     25.9626   5.9071   1.7004   C.2       1 RES1   0.0000
    74 H30     26.3934   5.2404   1.1800   H         1 RES1   0.0000
    75 C32     25.0139   5.5055   2.6232   C.2       1 RES1   0.0000
    76 C33     24.8105   4.0515   2.9254   C.3       1 RES1   0.0000
    77 H31     25.0216   3.8802   3.8675   H         1 RES1   0.0000
    78 H32     25.3994   3.5133   2.3552   H         1 RES1   0.0000
    79 H33     23.8782   3.8096   2.7510   H         1 RES1   0.0000
    80 C34     27.4215   7.5891   0.5475   C.3       1 RES1   0.0000
    81 H34     27.0769   8.1852  -0.1490   H         1 RES1   0.0000
    82 H35     27.7698   6.7718   0.1344   H         1 RES1   0.0000
    83 H36     28.1414   8.0406   1.0359   H         1 RES1   0.0000
    84 H1A     23.2191   5.8944   6.8676   H         1 RES1   0.0000
    85 H2A     23.1046  10.7065   6.8212   H         1 RES1   0.0000
    86 Si1A    26.5983   8.6810   5.2688   Si        1 RES1   0.0000
    87 Si2A    25.8871   8.2835   8.3142   Si        1 RES1   0.0000
    88 Al1A    22.7200   8.2224   9.0772   Al        1 RES1   0.0000
    89 O1A     24.2938   8.2043   8.0599   O.3       1 RES1   0.0000
    90 O2A     25.0848   8.4510   4.7568   O.3       1 RES1   0.0000
    91 O3A     26.6296   8.5757   6.8947   O.3       1 RES1   0.0000
    92 O4A     22.7830  10.1222   9.3181   O.2       1 RES1   0.0000
    93 O5A     23.7094   7.9949  10.7109   O.2       1 RES1   0.0000
    94 O6A     21.1256   8.2211  10.1268   O.2       1 RES1   0.0000
    95 O7A     22.6149   6.3063   8.9286   O.2       1 RES1   0.0000
    96 C1A     27.2571  10.3708   4.8325   C.ar      1 RES1   0.0000
    97 C2A     27.1780  10.8859   3.5413   C.ar      1 RES1   0.0000
    98 H3A     26.7621  10.3696   2.8609   H         1 RES1   0.0000
    99 C3A     27.6910  12.1361   3.2257   C.ar      1 RES1   0.0000
   100 H4A     27.6079  12.4752   2.3430   H         1 RES1   0.0000
   101 C4A     28.3200  12.8850   4.1922   C.ar      1 RES1   0.0000
   102 H5A     28.6877  13.7324   3.9701   H         1 RES1   0.0000
   103 C5A     28.4155  12.4162   5.4648   C.ar      1 RES1   0.0000
   104 H6A     28.8413  12.9383   6.1347   H         1 RES1   0.0000
   105 C6A     27.8863  11.1625   5.7863   C.ar      1 RES1   0.0000
   106 H7A     27.9585  10.8442   6.6795   H         1 RES1   0.0000
   107 C7A     27.7498   7.3599   4.6287   C.ar      1 RES1   0.0000
   108 C8A     27.5493   6.0495   5.0411   C.ar      1 RES1   0.0000
   109 H8A     26.8287   5.8516   5.6290   H         1 RES1   0.0000
   110 C9A     28.3826   5.0216   4.6119   C.ar      1 RES1   0.0000
   111 H9A     28.2317   4.1337   4.9156   H         1 RES1   0.0000
   112 C10A    29.4170   5.2844   3.7553   C.ar      1 RES1   0.0000
   113 H10A    29.9805   4.5794   3.4570   H         1 RES1   0.0000
   114 C11A    29.6349   6.5554   3.3344   C.ar      1 RES1   0.0000
   115 H11A    30.3512   6.7383   2.7363   H         1 RES1   0.0000
   116 C12A    28.8141   7.5960   3.7741   C.ar      1 RES1   0.0000
   117 H12A    28.9886   8.4827   3.4815   H         1 RES1   0.0000
   118 C13A    26.3328   9.7410   9.4036   C.ar      1 RES1   0.0000
   119 C14A    26.9901   9.6276  10.6278   C.ar      1 RES1   0.0000
   120 H13A    27.2637   8.7687  10.9257   H         1 RES1   0.0000
   121 C15A    27.2582  10.7366  11.4243   C.ar      1 RES1   0.0000
   122 H14A    27.6973  10.6277  12.2596   H         1 RES1   0.0000
   123 C16A    26.8858  11.9972  10.9958   C.ar      1 RES1   0.0000
   124 H15A    27.0589  12.7577  11.5389   H         1 RES1   0.0000
   125 C17A    26.2554  12.1442   9.7674   C.ar      1 RES1   0.0000
   126 H16A    26.0102  13.0089   9.4598   H         1 RES1   0.0000
   127 C18A    25.9822  11.0306   8.9929   C.ar      1 RES1   0.0000
   128 H17A    25.5431  11.1463   8.1576   H         1 RES1   0.0000
   129 C19A    26.6029   6.6920   8.9848   C.ar      1 RES1   0.0000
   130 C20A    27.8843   6.3030   8.5934   C.ar      1 RES1   0.0000
   131 H18A    28.3767   6.8656   8.0061   H         1 RES1   0.0000
   132 C21A    28.4612   5.1188   9.0354   C.ar      1 RES1   0.0000
   133 H19A    29.3348   4.8792   8.7464   H         1 RES1   0.0000
   134 C22A    27.7709   4.2946   9.8903   C.ar      1 RES1   0.0000
   135 H20A    28.1627   3.4855  10.1952   H         1 RES1   0.0000
   136 C23A    26.5081   4.6500  10.3007   C.ar      1 RES1   0.0000
   137 H21A    26.0281   4.0839  10.8939   H         1 RES1   0.0000
   138 C24A    25.9283   5.8330   9.8514   C.ar      1 RES1   0.0000
   139 H22A    25.0536   6.0599  10.1414   H         1 RES1   0.0000
   140 C25A    23.0178  10.7632  10.3943   C.2       1 RES1   0.0000
   141 C26A    23.5268  10.1879  11.5513   C.2       1 RES1   0.0000
   142 H23A    23.6163  10.7342  12.3231   H         1 RES1   0.0000
   143 C27A    23.9148   8.8520  11.6400   C.2       1 RES1   0.0000
   144 C28A    24.6194   8.3473  12.8609   C.3       1 RES1   0.0000
   145 H24A    23.9600   8.1123  13.5447   H         1 RES1   0.0000
   146 H25A    25.2144   9.0453  13.2075   H         1 RES1   0.0000
   147 H26A    25.1453   7.5532  12.6285   H         1 RES1   0.0000
   148 C29A    22.7351  12.2414  10.3493   C.3       1 RES1   0.0000
   149 H27A    23.5790  12.7369  10.3979   H         1 RES1   0.0000
   150 H28A    22.1692  12.4891  11.1089   H         1 RES1   0.0000
   151 H29A    22.2740  12.4602   9.5135   H         1 RES1   0.0000
   152 C30A    20.5721   7.2372  10.7202   C.2       1 RES1   0.0000
   153 C31A    20.9271   5.9071  10.5152   C.2       1 RES1   0.0000
   154 H30A    20.4963   5.2404  11.0356   H         1 RES1   0.0000
   155 C32A    21.8758   5.5055   9.5924   C.2       1 RES1   0.0000
   156 C33A    22.0792   4.0515   9.2902   C.3       1 RES1   0.0000
   157 H31A    21.8681   3.8802   8.3482   H         1 RES1   0.0000
   158 H32A    21.4904   3.5133   9.8604   H         1 RES1   0.0000
   159 H33A    23.0115   3.8096   9.4647   H         1 RES1   0.0000
   160 C34A    19.4682   7.5891  11.6681   C.3       1 RES1   0.0000
   161 H34A    19.8128   8.1852  12.3647   H         1 RES1   0.0000
   162 H35A    19.1199   6.7718  12.0813   H         1 RES1   0.0000
   163 H36A    18.7483   8.0406  11.1797   H         1 RES1   0.0000
   164 O10     23.4449   3.1532   6.1078   O.3       2 RES2   0.0000
   165 C35     22.3349   2.3418   5.7242   C.3       2 RES2   0.0000
   166 H37     22.0551   1.7711   6.4841   H         2 RES2   0.0000
   167 H38     22.5934   1.7526   4.9718   H         2 RES2   0.0000
   168 C36     21.2138   3.2215   5.3148   C.3       2 RES2   0.0000
   169 H39     20.9434   3.7807   6.0736   H         2 RES2   0.0000
   170 H40     20.4543   2.6729   5.0279   H         2 RES2   0.0000
   171 H41     21.5006   3.7945   4.5735   H         2 RES2   0.0000
   172 C35A    24.5548   2.3418   6.4914   C.3       2 RES2   0.0000
   173 H37A    24.8346   1.7711   5.7316   H         2 RES2   0.0000
   174 H38A    24.2963   1.7526   7.2439   H         2 RES2   0.0000
   175 C36A    25.6760   3.2215   6.9008   C.3       2 RES2   0.0000
   176 H39A    25.9463   3.7807   6.1420   H         2 RES2   0.0000
   177 H40A    26.4354   2.6729   7.1877   H         2 RES2   0.0000
   178 H41A    25.3891   3.7945   7.6421   H         2 RES2   0.0000
   179 O11     24.6883  11.9833   4.6590   O.3       3 RES3   0.0000
@<TRIPOS>BOND
     1     1     5    1
     2     2     6    1
     3     3     5    1
     4     4     5    1
     5     6     1    1
     6     7     2    1
     7     8     4    1
     8     9     4    1
     9    10     4    1
    10    11     4    1
    11    12     1    1
    12    13    12    1
    13    14     1    1
    14    15    14    1
    15    16     2    1
    16    17    16   ar
    17    18    17    1
    18    19    17   ar
    19    20    19    1
    20    21    19   ar
    21    22    21    1
    22    23    21   ar
    23    24    23    1
    24    25    16   ar
    25    26    25    1
    26    27     2    1
    27    28    27   ar
    28    29    28    1
    29    30    28   ar
    30    31    30    1
    31    32    30   ar
    32    33    32    1
    33    34    32   ar
    34    35    34    1
    35    36    27   ar
    36    37    36    1
    37    38     3    1
    38    39    38   ar
    39    40    39    1
    40    41    39   ar
    41    42    41    1
    42    43    41   ar
    43    44    43    1
    44    45    43   ar
    45    46    45    1
    46    47    38   ar
    47    48    47    1
    48    49     3    1
    49    50    49   ar
    50    51    50    1
    51    52    50   ar
    52    53    52    1
    53    54    52   ar
    54    55    54    1
    55    56    54   ar
    56    57    56    1
    57    58    49   ar
    58    59    58    1
    59    60     8   un
    60    61    60   un
    61    62    61    1
    62    63     9   un
    63    64    63    1
    64    65    64    1
    65    66    64    1
    66    67    64    1
    67    68    60    1
    68    69    68    1
    69    70    68    1
    70    71    68    1
    71    72    10   un
    72    73    72   un
    73    74    73    1
    74    75    11   un
    75    76    75    1
    76    77    76    1
    77    78    76    1
    78    79    76    1
    79    80    72    1
    80    81    80    1
    81    82    80    1
    82    83    80    1
    83    84    12    1
    84    85    14    1
    85    86    90    1
    86    87    89    1
    87    88     6    1
    88    89     1    1
    89    90     1    1
    90    91    86    1
    91    92    88    1
    92    93    88    1
    93    94    88    1
    94    95    88    1
    95    96    86    1
    96    97    96   ar
    97    98    97    1
    98    99    97   ar
    99   100    99    1
   100   101    99   ar
   101   102   101    1
   102   103   101   ar
   103   104   103    1
   104   105    96   ar
   105   106   105    1
   106   107    86    1
   107   108   107   ar
   108   109   108    1
   109   110   108   ar
   110   111   110    1
   111   112   110   ar
   112   113   112    1
   113   114   112   ar
   114   115   114    1
   115   116   107   ar
   116   117   116    1
   117   118    87    1
   118   119   118   ar
   119   120   119    1
   120   121   119   ar
   121   122   121    1
   122   123   121   ar
   123   124   123    1
   124   125   123   ar
   125   126   125    1
   126   127   118   ar
   127   128   127    1
   128   129    87    1
   129   130   129   ar
   130   131   130    1
   131   132   130   ar
   132   133   132    1
   133   134   132   ar
   134   135   134    1
   135   136   134   ar
   136   137   136    1
   137   138   129   ar
   138   139   138    1
   139   140    92   un
   140   141   140   un
   141   142   141    1
   142   143    93   un
   143   144   143    1
   144   145   144    1
   145   146   144    1
   146   147   144    1
   147   148   140    1
   148   149   148    1
   149   150   148    1
   150   151   148    1
   151   152    94   un
   152   153   152   un
   153   154   153    1
   154   155    95   un
   155   156   155    1
   156   157   156    1
   157   158   156    1
   158   159   156    1
   159   160   152    1
   160   161   160    1
   161   162   160    1
   162   163   160    1
   163     3     7    1
   164     4    90    1
   165    23    25   ar
   166    34    36   ar
   167    45    47   ar
   168    56    58   ar
   169    61    63   un
   170    73    75   un
   171    87    91    1
   172    88    89    1
   173   103   105   ar
   174   114   116   ar
   175   125   127   ar
   176   136   138   ar
   177   141   143   un
   178   153   155   un
   179   164   165    1
   180   165   166    1
   181   167   165    1
   182   168   165    1
   183   169   168    1
   184   170   168    1
   185   171   168    1
   186   172   164    1
   187   173   172    1
   188   174   172    1
   189   175   172    1
   190   176   175    1
   191   177   175    1
   192   178   175    1
@<TRIPOS>SUBSTRUCTURE
     1 RES1        1 GROUP             0 ****  ****    0  
     2 RES2      164 GROUP             0 ****  ****    0  
     3 RES3      179 GROUP             0 ****  ****    0  
@<TRIPOS>CRYSIN
   25.4853   11.5758   25.7585   90.0000  108.4730   90.0000    15     1
