@<TRIPOS>MOLECULE
TAMSOQ
   102   112     2     0     0
SMALL
USER_CHARGES
****
Generated from the CSD

@<TRIPOS>ATOM
     1 Fe1     13.1365  12.4580   5.7036   Fe        1 RES1   1.0000
     2 O1      12.4994  14.1334   6.2584   O.3       1 RES1   0.0000
     3 O2      11.4066  11.7757   6.1586   O.3       1 RES1   0.0000
     4 O3       6.4781  12.6274   6.8772   O.2       1 RES1   0.0000
     5 O4       6.4950  14.5557   7.8948   O.2       1 RES1   0.0000
     6 O5       8.6614  17.1250   7.9362   O.2       1 RES1   0.0000
     7 O6       7.4478  16.5717   6.2288   O.2       1 RES1   0.0000
     8 N1      12.5889  12.6184   3.7930   N.ar      1 RES1   0.0000
     9 N2      14.8574  13.2202   5.1414   N.ar      1 RES1   0.0000
    10 N3      13.9903  11.8658   7.3825   N.ar      1 RES1   0.0000
    11 N4      13.8872  10.7017   5.0508   N.3       1 RES1   0.0000
    12 N5       7.0430  13.6590   7.2330   N.pl3     1 RES1   0.0000
    13 N6       8.3181  16.3345   7.0630   N.pl3     1 RES1   0.0000
    14 C1      12.2691  13.7557   3.1468   C.ar      1 RES1   0.0000
    15 H1      12.2357  14.5532   3.6246   H         1 RES1   0.0000
    16 C2      11.9918  13.7730   1.7964   C.ar      1 RES1   0.0000
    17 H2      11.7575  14.5672   1.3733   H         1 RES1   0.0000
    18 C3      12.0660  12.5974   1.0842   C.ar      1 RES1   0.0000
    19 H3      11.8938  12.5907   0.1692   H         1 RES1   0.0000
    20 C4      12.4006  11.4217   1.7453   C.ar      1 RES1   0.0000
    21 H4      12.4538  10.6206   1.2764   H         1 RES1   0.0000
    22 C5      12.6558  11.4499   3.1003   C.ar      1 RES1   0.0000
    23 C6      12.9850  10.2683   3.9490   C.3       1 RES1   0.0000
    24 H5      12.1706   9.8894   4.3174   H         1 RES1   0.0000
    25 H6      13.4214   9.5877   3.4130   H         1 RES1   0.0000
    26 C7      15.3006  10.9169   4.5501   C.3       1 RES1   0.0000
    27 H7      15.9190  10.4572   5.1390   H         1 RES1   0.0000
    28 H8      15.3874  10.5265   3.6669   H         1 RES1   0.0000
    29 C8      15.6765  12.3743   4.4830   C.ar      1 RES1   0.0000
    30 C9      16.8233  12.8068   3.8436   C.ar      1 RES1   0.0000
    31 H9      17.3644  12.2093   3.3796   H         1 RES1   0.0000
    32 C10     17.1472  14.1574   3.9102   C.ar      1 RES1   0.0000
    33 H10     17.9128  14.4760   3.4889   H         1 RES1   0.0000
    34 C11     16.3249  15.0219   4.6057   C.ar      1 RES1   0.0000
    35 H11     16.5381  15.9254   4.6683   H         1 RES1   0.0000
    36 C12     15.1870  14.5314   5.2061   C.ar      1 RES1   0.0000
    37 H12     14.6303  15.1165   5.6678   H         1 RES1   0.0000
    38 C13     13.8723   9.7839   6.2198   C.3       1 RES1   0.0000
    39 H13     14.4713   9.0380   6.0627   H         1 RES1   0.0000
    40 H14     12.9771   9.4335   6.3554   H         1 RES1   0.0000
    41 C14     14.3112  10.5500   7.4308   C.ar      1 RES1   0.0000
    42 C15     14.9738  10.0144   8.5220   C.ar      1 RES1   0.0000
    43 H15     15.1922   9.1111   8.5450   H         1 RES1   0.0000
    44 C16     15.3064  10.8469   9.5798   C.ar      1 RES1   0.0000
    45 H16     15.7500  10.5040  10.3202   H         1 RES1   0.0000
    46 C17     14.9755  12.1806   9.5287   C.ar      1 RES1   0.0000
    47 H17     15.1898  12.7459  10.2356   H         1 RES1   0.0000
    48 C18     14.3180  12.6731   8.4092   C.ar      1 RES1   0.0000
    49 H18     14.1004  13.5754   8.3687   H         1 RES1   0.0000
    50 C19     11.1899  14.0835   6.4848   C.ar      1 RES1   0.0000
    51 C20     10.4282  15.2200   6.7554   C.ar      1 RES1   0.0000
    52 H19     10.8270  16.0586   6.8067   H         1 RES1   0.0000
    53 C21      9.0691  15.0702   6.9458   C.ar      1 RES1   0.0000
    54 C22      8.4612  13.8203   6.9015   C.ar      1 RES1   0.0000
    55 C23      9.2197  12.6779   6.6410   C.ar      1 RES1   0.0000
    56 H20      8.8136  11.8410   6.6145   H         1 RES1   0.0000
    57 C24     10.5828  12.7993   6.4210   C.ar      1 RES1   0.0000
    58 C25      5.9351  12.0427  15.0507   C.ar      2 RES2   0.0000
    59 C26      6.0794  13.3712  15.4855   C.ar      2 RES2   0.0000
    60 H21      6.9116  13.7767  15.4028   H         2 RES2   0.0000
    61 C27      5.0398  14.1063  16.0325   C.ar      2 RES2   0.0000
    62 H22      5.1902  14.9787  16.3177   H         2 RES2   0.0000
    63 C28      3.7796  13.5507  16.1556   C.ar      2 RES2   0.0000
    64 H23      3.0800  14.0370  16.5293   H         2 RES2   0.0000
    65 C29      3.5831  12.2569  15.7131   C.ar      2 RES2   0.0000
    66 H24      2.7387  11.8714  15.7748   H         2 RES2   0.0000
    67 C30      4.6349  11.5255  15.1747   C.ar      2 RES2   0.0000
    68 H25      4.4713  10.6565  14.8845   H         2 RES2   0.0000
    69 C31      8.6266  11.8438  14.8973   C.ar      2 RES2   0.0000
    70 C32      8.8879  12.1590  16.2543   C.ar      2 RES2   0.0000
    71 H26      8.2432  11.9585  16.8925   H         2 RES2   0.0000
    72 C33     10.0693  12.7555  16.6650   C.ar      2 RES2   0.0000
    73 H27     10.2057  12.9335  17.5677   H         2 RES2   0.0000
    74 C34     11.0520  13.0894  15.7448   C.ar      2 RES2   0.0000
    75 H28     11.8412  13.4952  16.0216   H         2 RES2   0.0000
    76 C35     10.8374  12.8092  14.4120   C.ar      2 RES2   0.0000
    77 H29     11.4824  13.0311  13.7809   H         2 RES2   0.0000
    78 C36      9.6510  12.1903  14.0101   C.ar      2 RES2   0.0000
    79 H30      9.5354  11.9988  13.1057   H         2 RES2   0.0000
    80 C37      7.0238   9.6183  14.9696   C.ar      2 RES2   0.0000
    81 C38      7.5956   9.1466  16.1591   C.ar      2 RES2   0.0000
    82 H31      8.1654   9.7071  16.6333   H         2 RES2   0.0000
    83 C39      7.3418   7.8607  16.6633   C.ar      2 RES2   0.0000
    84 H32      7.7242   7.5940  17.4689   H         2 RES2   0.0000
    85 C40      6.5222   6.9881  15.9634   C.ar      2 RES2   0.0000
    86 H33      6.3553   6.1332  16.2895   H         2 RES2   0.0000
    87 C41      5.9604   7.4065  14.7787   C.ar      2 RES2   0.0000
    88 H34      5.4210   6.8281  14.2904   H         2 RES2   0.0000
    89 C42      6.1996   8.6922  14.3115   C.ar      2 RES2   0.0000
    90 H35      5.7902   8.9530  13.5182   H         2 RES2   0.0000
    91 C43      7.1581  11.2290  12.7924   C.ar      2 RES2   0.0000
    92 C44      7.6862  10.2273  11.9723   C.ar      2 RES2   0.0000
    93 H36      7.9026   9.4083  12.3582   H         2 RES2   0.0000
    94 C45      7.9023  10.3940  10.6111   C.ar      2 RES2   0.0000
    95 H37      8.2690   9.7020  10.1104   H         2 RES2   0.0000
    96 C46      7.5744  11.5862  10.0047   C.ar      2 RES2   0.0000
    97 H38      7.7347  11.7102   9.0968   H         2 RES2   0.0000
    98 C47      6.9982  12.6030  10.7627   C.ar      2 RES2   0.0000
    99 H39      6.7477  13.4032  10.3608   H         2 RES2   0.0000
   100 C48      6.8032  12.4125  12.1214   C.ar      2 RES2   0.0000
   101 H40      6.4193  13.1019  12.6138   H         2 RES2   0.0000
   102 B1       7.1886  11.1580  14.4314   B         2 RES2  -1.0000
@<TRIPOS>BOND
     1     1     2    1
     2     2    50    1
     3     3     1    1
     4     4    12    2
     5     5    12    2
     6     6    13    2
     7     7    13    2
     8     8     1    1
     9     9     1    1
    10    10     1    1
    11    11     1    1
    12    12    54    1
    13    13    53    1
    14    14     8   ar
    15    15    14    1
    16    16    14   ar
    17    17    16    1
    18    18    16   ar
    19    19    18    1
    20    20    18   ar
    21    21    20    1
    22    22     8   ar
    23    23    11    1
    24    24    23    1
    25    25    23    1
    26    26    11    1
    27    27    26    1
    28    28    26    1
    29    29     9   ar
    30    30    29   ar
    31    31    30    1
    32    32    30   ar
    33    33    32    1
    34    34    32   ar
    35    35    34    1
    36    36     9   ar
    37    37    36    1
    38    38    11    1
    39    39    38    1
    40    40    38    1
    41    41    10   ar
    42    42    41   ar
    43    43    42    1
    44    44    42   ar
    45    45    44    1
    46    46    44   ar
    47    47    46    1
    48    48    10   ar
    49    49    48    1
    50    50    51   ar
    51    51    52    1
    52    53    51   ar
    53    54    53   ar
    54    55    54   ar
    55    56    55    1
    56    57     3    1
    57    20    22   ar
    58    22    23    1
    59    26    29    1
    60    34    36   ar
    61    38    41    1
    62    46    48   ar
    63    50    57   ar
    64    55    57   ar
    65    58    59   ar
    66    59    60    1
    67    61    59   ar
    68    62    61    1
    69    63    61   ar
    70    64    63    1
    71    65    63   ar
    72    66    65    1
    73    67    58   ar
    74    68    67    1
    75    69    70   ar
    76    70    71    1
    77    72    70   ar
    78    73    72    1
    79    74    72   ar
    80    75    74    1
    81    76    74   ar
    82    77    76    1
    83    78    69   ar
    84    79    78    1
    85    80    81   ar
    86    81    82    1
    87    83    81   ar
    88    84    83    1
    89    85    83   ar
    90    86    85    1
    91    87    85   ar
    92    88    87    1
    93    89    80   ar
    94    90    89    1
    95    91    92   ar
    96    92    93    1
    97    94    92   ar
    98    95    94    1
    99    96    94   ar
   100    97    96    1
   101    98    96   ar
   102    99    98    1
   103   100    91   ar
   104   101   100    1
   105   102    58    1
   106    65    67   ar
   107    69   102    1
   108    76    78   ar
   109    80   102    1
   110    87    89   ar
   111    91   102    1
   112    98   100   ar
@<TRIPOS>SUBSTRUCTURE
     1 RES1        1 GROUP             0 ****  ****    0  
     2 RES2       58 GROUP             0 ****  ****    0  
@<TRIPOS>CRYSIN
   11.1480   11.5810   18.3020   86.3600   74.7900   63.9400     2     1
