@<TRIPOS>MOLECULE
TAMZEN
   181   188     3     0     0
SMALL
USER_CHARGES
****
Generated from the CSD

@<TRIPOS>ATOM
     1 Fe1     15.2351  16.9640  17.6881   Fe        1 RES1   2.0000
     2 P1      16.9111  18.4662  18.4596   P.3       1 RES1   0.0000
     3 P2      14.8816  16.3806  19.8871   P.3       1 RES1   0.0000
     4 P3      16.6211  15.1950  17.2145   P.3       1 RES1   0.0000
     5 P4      15.3592  17.6970  15.4896   P.3       1 RES1   0.0000
     6 N1      13.9143  18.4359  17.9147   N.1       1 RES1   0.0000
     7 N2      16.7754  17.9453  21.1423   N.3       1 RES1   0.0000
     8 N3      16.8906  15.6611  14.4822   N.3       1 RES1   0.0000
     9 O1      12.9270  15.2645  17.0554   O.2       1 RES1   0.0000
    10 C1      13.0501  19.1406  17.8425   C.1       1 RES1   0.0000
    11 C2      11.8788  20.0687  17.8821   C.3       1 RES1   0.0000
    12 H1      11.5507  20.1437  18.8043   H         1 RES1   0.0000
    13 H2      11.1636  19.7171  17.3116   H         1 RES1   0.0000
    14 H3      12.1499  20.9519  17.5608   H         1 RES1   0.0000
    15 C3      13.8513  15.8969  17.2767   C.1       1 RES1   0.0000
    16 C4      16.2421  20.1791  18.7507   C.3       1 RES1   0.0000
    17 H4      16.4592  20.7229  17.9543   H         1 RES1   0.0000
    18 H5      15.2550  20.1096  18.7950   H         1 RES1   0.0000
    19 C5      16.7035  20.9600  19.9826   C.3       1 RES1   0.0000
    20 H6      16.4573  20.4680  20.7930   H         1 RES1   0.0000
    21 H7      16.2715  21.8405  19.9919   H         1 RES1   0.0000
    22 H8      17.6747  21.0732  19.9523   H         1 RES1   0.0000
    23 C6      18.3878  18.6704  17.3675   C.3       1 RES1   0.0000
    24 H9      18.9200  17.8376  17.4141   H         1 RES1   0.0000
    25 H10     18.0682  18.7630  16.4337   H         1 RES1   0.0000
    26 C7      19.3144  19.8384  17.6609   C.3       1 RES1   0.0000
    27 H11     18.8766  20.6766  17.4071   H         1 RES1   0.0000
    28 H12     20.1444  19.7362  17.1486   H         1 RES1   0.0000
    29 H13     19.5241  19.8561  18.6203   H         1 RES1   0.0000
    30 C8      17.7330  18.1252  20.0758   C.3       1 RES1   0.0000
    31 H14     18.2851  17.3088  19.9943   H         1 RES1   0.0000
    32 H15     18.3340  18.8789  20.3016   H         1 RES1   0.0000
    33 C9      17.3606  18.2806  22.4557   C.3       1 RES1   0.0000
    34 H16     18.0821  17.6523  22.6630   H         1 RES1   0.0000
    35 H17     16.6673  18.2206  23.1473   H         1 RES1   0.0000
    36 H18     17.7176  19.1937  22.4301   H         1 RES1   0.0000
    37 C10     16.2224  16.6028  21.1353   C.3       1 RES1   0.0000
    38 H19     15.8633  16.3970  22.0342   H         1 RES1   0.0000
    39 H20     16.9488  15.9568  20.9467   H         1 RES1   0.0000
    40 C11     13.5340  17.3811  20.6323   C.3       1 RES1   0.0000
    41 H21     13.5638  17.2679  21.6174   H         1 RES1   0.0000
    42 H22     13.7051  18.3365  20.4367   H         1 RES1   0.0000
    43 C12     12.1324  17.0281  20.1456   C.3       1 RES1   0.0000
    44 H23     12.1066  17.0758  19.1676   H         1 RES1   0.0000
    45 H24     11.4867  17.6618  20.5229   H         1 RES1   0.0000
    46 H25     11.9058  16.1190  20.4344   H         1 RES1   0.0000
    47 C13     14.4022  14.6703  20.2201   C.3       1 RES1   0.0000
    48 H26     13.6360  14.4536  19.6333   H         1 RES1   0.0000
    49 H27     15.1547  14.0883  19.9407   H         1 RES1   0.0000
    50 C14     14.0227  14.2846  21.6430   C.3       1 RES1   0.0000
    51 H28     14.7885  14.4290  22.2368   H         1 RES1   0.0000
    52 H29     13.7641  13.3387  21.6686   H         1 RES1   0.0000
    53 H30     13.2700  14.8365  21.9411   H         1 RES1   0.0000
    54 C15     15.7833  13.5472  17.0321   C.3       1 RES1   0.0000
    55 H31     16.4563  12.8453  17.2161   H         1 RES1   0.0000
    56 H32     15.0915  13.4804  17.7377   H         1 RES1   0.0000
    57 C16     15.1177  13.2147  15.6931   C.3       1 RES1   0.0000
    58 H33     14.4097  13.8661  15.5092   H         1 RES1   0.0000
    59 H34     14.7307  12.3152  15.7351   H         1 RES1   0.0000
    60 H35     15.7844  13.2501  14.9782   H         1 RES1   0.0000
    61 C17     17.9444  14.7984  18.4457   C.3       1 RES1   0.0000
    62 H36     18.3918  15.6461  18.6972   H         1 RES1   0.0000
    63 H37     17.5062  14.4440  19.2607   H         1 RES1   0.0000
    64 C18     19.0159  13.8130  18.0218   C.3       1 RES1   0.0000
    65 H38     18.5932  13.0266  17.6167   H         1 RES1   0.0000
    66 H39     19.5335  13.5377  18.8066   H         1 RES1   0.0000
    67 H40     19.6096  14.2369  17.3698   H         1 RES1   0.0000
    68 C19     17.6359  15.2549  15.6792   C.3       1 RES1   0.0000
    69 H41     18.3847  15.8873  15.8166   H         1 RES1   0.0000
    70 H42     18.0277  14.3595  15.5208   H         1 RES1   0.0000
    71 C20     17.5786  15.1677  13.2899   C.3       1 RES1   0.0000
    72 H43     18.5237  15.4185  13.3318   H         1 RES1   0.0000
    73 H44     17.1709  15.5643  12.4912   H         1 RES1   0.0000
    74 H45     17.4996  14.1919  13.2480   H         1 RES1   0.0000
    75 C21     16.7260  17.1126  14.4170   C.3       1 RES1   0.0000
    76 H46     16.5429  17.3783  13.4809   H         1 RES1   0.0000
    77 H47     17.5702  17.5487  14.6965   H         1 RES1   0.0000
    78 C22     13.9124  17.2271  14.4496   C.3       1 RES1   0.0000
    79 H48     14.1260  17.4587  13.5111   H         1 RES1   0.0000
    80 H49     13.8163  16.2417  14.4915   H         1 RES1   0.0000
    81 C23     12.5858  17.8322  14.7803   C.3       1 RES1   0.0000
    82 H50     12.2827  17.4996  15.6512   H         1 RES1   0.0000
    83 H51     11.9331  17.5855  14.0910   H         1 RES1   0.0000
    84 H52     12.6716  18.8080  14.8152   H         1 RES1   0.0000
    85 C24     15.4345  19.5195  15.2693   C.3       1 RES1   0.0000
    86 H53     14.6685  19.9188  15.7560   H         1 RES1   0.0000
    87 H54     16.2626  19.8465  15.7025   H         1 RES1   0.0000
    88 C25     15.4102  20.0510  13.8139   C.3       1 RES1   0.0000
    89 H55     16.1871  19.7048  13.3272   H         1 RES1   0.0000
    90 H56     15.4418  21.0309  13.8232   H         1 RES1   0.0000
    91 H57     14.5876  19.7552  13.3714   H         1 RES1   0.0000
    92 B1      22.4976  16.7650  20.7534   B         2 RES2  -1.0000
    93 C26     21.7565  18.1593  21.2378   C.ar      2 RES2   0.0000
    94 C27     21.5684  19.2728  20.4064   C.ar      2 RES2   0.0000
    95 H58     21.8087  19.2114  19.4913   H         2 RES2   0.0000
    96 C28     21.0343  20.4803  20.8931   C.ar      2 RES2   0.0000
    97 H59     20.9079  21.2094  20.2970   H         2 RES2   0.0000
    98 C29     20.6873  20.6207  22.2135   C.ar      2 RES2   0.0000
    99 H60     20.3204  21.4343  22.5395   H         2 RES2   0.0000
   100 C30     20.8887  19.5413  23.0565   C.ar      2 RES2   0.0000
   101 H61     20.6722  19.6189  23.9787   H         2 RES2   0.0000
   102 C31     21.4136  18.3283  22.5651   C.ar      2 RES2   0.0000
   103 H62     21.5339  17.6032  23.1660   H         2 RES2   0.0000
   104 C32     21.5773  15.4117  21.0492   C.ar      2 RES2   0.0000
   105 C33     20.3083  15.3940  21.6570   C.ar      2 RES2   0.0000
   106 H63     19.9123  16.2117  21.9364   H         2 RES2   0.0000
   107 C34     19.6075  14.1837  21.8596   C.ar      2 RES2   0.0000
   108 H64     18.7642  14.2028  22.2997   H         2 RES2   0.0000
   109 C35     20.1234  12.9762  21.4357   C.ar      2 RES2   0.0000
   110 H65     19.6341  12.1721  21.5615   H         2 RES2   0.0000
   111 C36     21.3604  12.9598  20.8256   C.ar      2 RES2   0.0000
   112 H66     21.7455  12.1366  20.5462   H         2 RES2   0.0000
   113 C37     22.0289  14.1360  20.6277   C.ar      2 RES2   0.0000
   114 H67     22.8628  14.0937  20.1712   H         2 RES2   0.0000
   115 C38     22.7282  16.7555  19.1187   C.ar      2 RES2   0.0000
   116 C39     21.6211  16.7678  18.2640   C.ar      2 RES2   0.0000
   117 H68     20.7521  16.7705  18.6483   H         2 RES2   0.0000
   118 C40     21.7333  16.7759  16.8668   C.ar      2 RES2   0.0000
   119 H69     20.9534  16.7718  16.3242   H         2 RES2   0.0000
   120 C41     22.9752  16.7909  16.2916   C.ar      2 RES2   0.0000
   121 H70     23.0602  16.8059  15.3462   H         2 RES2   0.0000
   122 C42     24.0941  16.7828  17.0834   C.ar      2 RES2   0.0000
   123 H71     24.9586  16.7855  16.6875   H         2 RES2   0.0000
   124 C43     23.9617  16.7705  18.4759   C.ar      2 RES2   0.0000
   125 H72     24.7502  16.7718  19.0069   H         2 RES2   0.0000
   126 C44     23.9074  16.6696  21.5755   C.ar      2 RES2   0.0000
   127 C45     24.8944  17.6795  21.4404   C.ar      2 RES2   0.0000
   128 H73     24.7042  18.4155  20.8699   H         2 RES2   0.0000
   129 C46     26.1249  17.6591  22.0924   C.ar      2 RES2   0.0000
   130 H74     26.7770  18.3283  21.9154   H         2 RES2   0.0000
   131 C47     26.3831  16.6492  22.9960   C.ar      2 RES2   0.0000
   132 H75     27.2002  16.6410  23.4780   H         2 RES2   0.0000
   133 C48     25.4606  15.6611  23.2009   C.ar      2 RES2   0.0000
   134 H76     25.6485  14.9646  23.8203   H         2 RES2   0.0000
   135 C49     24.2581  15.6652  22.5139   C.ar      2 RES2   0.0000
   136 H77     23.6385  14.9633  22.6793   H         2 RES2   0.0000
   137 B2      12.6804  10.1945  19.9058   B         3 RES3  -1.0000
   138 C50     11.7187  11.5206  20.2132   C.ar      3 RES3   0.0000
   139 C51     11.1033  11.6651  21.4590   C.ar      3 RES3   0.0000
   140 H78     11.1875  10.9700  22.0994   H         3 RES3   0.0000
   141 C52     10.3690  12.8140  21.7850   C.ar      3 RES3   0.0000
   142 H79      9.9867  12.8917  22.6513   H         3 RES3   0.0000
   143 C53     10.1852  13.8443  20.8629   C.ar      3 RES3   0.0000
   144 H80      9.6640  14.6089  21.0771   H         3 RES3   0.0000
   145 C54     10.7821  13.7149  19.6380   C.ar      3 RES3   0.0000
   146 H81     10.6734  14.4045  18.9929   H         3 RES3   0.0000
   147 C55     11.5449  12.5946  19.3119   C.ar      3 RES3   0.0000
   148 H82     11.9615  12.5509  18.4596   H         3 RES3   0.0000
   149 C56     11.9167   8.8507  20.5438   C.ar      3 RES3   0.0000
   150 C57     12.5636   7.8326  21.2611   C.ar      3 RES3   0.0000
   151 H83     13.4994   7.8994  21.4078   H         3 RES3   0.0000
   152 C58     11.8632   6.6918  21.7780   C.ar      3 RES3   0.0000
   153 H84     12.3273   6.0199  22.2624   H         3 RES3   0.0000
   154 C59     10.5090   6.5910  21.5545   C.ar      3 RES3   0.0000
   155 H85     10.0286   5.8591  21.9224   H         3 RES3   0.0000
   156 C60      9.8382   7.5423  20.8000   C.ar      3 RES3   0.0000
   157 H86      8.9127   7.4373  20.6067   H         3 RES3   0.0000
   158 C61     10.5457   8.6708  20.3179   C.ar      3 RES3   0.0000
   159 H87     10.0719   9.3304  19.8243   H         3 RES3   0.0000
   160 C62     12.8252   9.8974  18.2966   C.ar      3 RES3   0.0000
   161 C63     11.7763  10.1168  17.3838   C.ar      3 RES3   0.0000
   162 H88     10.9544  10.4616  17.7098   H         3 RES3   0.0000
   163 C64     11.8905   9.8470  16.0052   C.ar      3 RES3   0.0000
   164 H89     11.1463   9.9805  15.4300   H         3 RES3   0.0000
   165 C65     13.0821   9.3877  15.4905   C.ar      3 RES3   0.0000
   166 H90     13.1847   9.2432  14.5567   H         3 RES3   0.0000
   167 C66     14.1366   9.1396  16.3638   C.ar      3 RES3   0.0000
   168 H91     14.9544   8.7907  16.0308   H         3 RES3   0.0000
   169 C67     13.9971   9.3986  17.7214   C.ar      3 RES3   0.0000
   170 H92     14.7372   9.2282  18.2896   H         3 RES3   0.0000
   171 C68     14.0956  10.5557  20.6579   C.ar      3 RES3   0.0000
   172 C69     15.1506  11.1908  20.0129   C.ar      3 RES3   0.0000
   173 H93     15.0612  11.3720  19.0837   H         3 RES3   0.0000
   174 C70     16.3309  11.5792  20.6463   C.ar      3 RES3   0.0000
   175 H94     17.0114  12.0126  20.1480   H         3 RES3   0.0000
   176 C71     16.5138  11.3366  22.0016   C.ar      3 RES3   0.0000
   177 H95     17.3228  11.5751  22.4394   H         3 RES3   0.0000
   178 C72     15.4669  10.7301  22.6909   C.ar      3 RES3   0.0000
   179 H96     15.5555  10.5707  23.6224   H         3 RES3   0.0000
   180 C73     14.3040  10.3567  22.0458   C.ar      3 RES3   0.0000
   181 H97     13.6127   9.9492  22.5558   H         3 RES3   0.0000
@<TRIPOS>BOND
     1     1     2    1
     2     2    16    1
     3     3     1    1
     4     4     1    1
     5     5     1    1
     6     6     1    1
     7     7    30    1
     8     8    68    1
     9     9    15    3
    10    10     6    3
    11    11    10    1
    12    12    11    1
    13    13    11    1
    14    14    11    1
    15    15     1    1
    16    16    17    1
    17    18    16    1
    18    19    16    1
    19    20    19    1
    20    21    19    1
    21    22    19    1
    22    23     2    1
    23    24    23    1
    24    25    23    1
    25    26    23    1
    26    27    26    1
    27    28    26    1
    28    29    26    1
    29    30     2    1
    30    31    30    1
    31    32    30    1
    32    33     7    1
    33    34    33    1
    34    35    33    1
    35    36    33    1
    36    37     3    1
    37    38    37    1
    38    39    37    1
    39    40     3    1
    40    41    40    1
    41    42    40    1
    42    43    40    1
    43    44    43    1
    44    45    43    1
    45    46    43    1
    46    47     3    1
    47    48    47    1
    48    49    47    1
    49    50    47    1
    50    51    50    1
    51    52    50    1
    52    53    50    1
    53    54     4    1
    54    55    54    1
    55    56    54    1
    56    57    54    1
    57    58    57    1
    58    59    57    1
    59    60    57    1
    60    61     4    1
    61    62    61    1
    62    63    61    1
    63    64    61    1
    64    65    64    1
    65    66    64    1
    66    67    64    1
    67    68     4    1
    68    69    68    1
    69    70    68    1
    70    71     8    1
    71    72    71    1
    72    73    71    1
    73    74    71    1
    74    75     5    1
    75    76    75    1
    76    77    75    1
    77    78     5    1
    78    79    78    1
    79    80    78    1
    80    81    78    1
    81    82    81    1
    82    83    81    1
    83    84    81    1
    84    85     5    1
    85    86    85    1
    86    87    85    1
    87    88    85    1
    88    89    88    1
    89    90    88    1
    90    91    88    1
    91     7    37    1
    92     8    75    1
    93    92    93    1
    94    93    94   ar
    95    94    95    1
    96    96    94   ar
    97    97    96    1
    98    98    96   ar
    99    99    98    1
   100   100    98   ar
   101   101   100    1
   102   102    93   ar
   103   103   102    1
   104   104    92    1
   105   105   104   ar
   106   106   105    1
   107   107   105   ar
   108   108   107    1
   109   109   107   ar
   110   110   109    1
   111   111   109   ar
   112   112   111    1
   113   113   104   ar
   114   114   113    1
   115   115    92    1
   116   116   115   ar
   117   117   116    1
   118   118   116   ar
   119   119   118    1
   120   120   118   ar
   121   121   120    1
   122   122   120   ar
   123   123   122    1
   124   124   115   ar
   125   125   124    1
   126   126    92    1
   127   127   126   ar
   128   128   127    1
   129   129   127   ar
   130   130   129    1
   131   131   129   ar
   132   132   131    1
   133   133   131   ar
   134   134   133    1
   135   135   126   ar
   136   136   135    1
   137   100   102   ar
   138   111   113   ar
   139   122   124   ar
   140   133   135   ar
   141   137   138    1
   142   138   139   ar
   143   139   140    1
   144   141   139   ar
   145   142   141    1
   146   143   141   ar
   147   144   143    1
   148   145   143   ar
   149   146   145    1
   150   147   138   ar
   151   148   147    1
   152   149   137    1
   153   150   149   ar
   154   151   150    1
   155   152   150   ar
   156   153   152    1
   157   154   152   ar
   158   155   154    1
   159   156   154   ar
   160   157   156    1
   161   158   149   ar
   162   159   158    1
   163   160   137    1
   164   161   160   ar
   165   162   161    1
   166   163   161   ar
   167   164   163    1
   168   165   163   ar
   169   166   165    1
   170   167   165   ar
   171   168   167    1
   172   169   160   ar
   173   170   169    1
   174   171   137    1
   175   172   171   ar
   176   173   172    1
   177   174   172   ar
   178   175   174    1
   179   176   174   ar
   180   177   176    1
   181   178   176   ar
   182   179   178    1
   183   180   171   ar
   184   181   180    1
   185   145   147   ar
   186   156   158   ar
   187   167   169   ar
   188   178   180   ar
@<TRIPOS>SUBSTRUCTURE
     1 RES1        1 GROUP             0 ****  ****    0  
     2 RES2       92 GROUP             0 ****  ****    0  
     3 RES3      137 GROUP             0 ****  ****    0  
@<TRIPOS>CRYSIN
   21.8730   13.6290   24.7540   90.0000  109.8240   90.0000   231     1
