@<TRIPOS>MOLECULE
TAMZAJ
   121   124     3     0     0
SMALL
USER_CHARGES
****
Generated from the CSD

@<TRIPOS>ATOM
     1 Fe1      1.9909   3.2145   4.6393   Fe        1 RES1   1.0000
     2 P1       3.8803   2.6790   3.6002   P.3       1 RES1   0.0000
     3 P2       3.3866   4.9033   4.9704   P.3       1 RES1   0.0000
     4 P3       0.3485   3.8758   5.9740   P.3       1 RES1   0.0000
     5 P4       0.9694   1.2800   4.3679   P.3       1 RES1   0.0000
     6 N1      -1.5388   1.9450   5.3496   N.3       1 RES1   0.0000
     7 N2       1.1137   4.0637   3.1593   N.1       1 RES1   0.0000
     8 H1       2.7313   2.5770   5.8128   H         1 RES1   0.0000
     9 C1       0.6177   4.6700   2.3157   C.1       1 RES1   0.0000
    10 C2      -0.0034   5.4621   1.2649   C.3       1 RES1   0.0000
    11 H2      -0.3154   6.3121   1.6387   H         1 RES1   0.0000
    12 H3      -0.7631   4.9712   0.8901   H         1 RES1   0.0000
    13 H4       0.6530   5.6375   0.5578   H         1 RES1   0.0000
    14 C3       4.9076   1.2072   3.9500   C.3       1 RES1   0.0000
    15 H5       4.4734   0.4106   3.5801   H         1 RES1   0.0000
    16 H6       5.0102   1.1034   4.9194   H         1 RES1   0.0000
    17 H7       5.7898   1.3195   3.5374   H         1 RES1   0.0000
    18 C4       4.0618   2.8373   1.8004   C.3       1 RES1   0.0000
    19 H8       5.0122   2.9196   1.5745   H         1 RES1   0.0000
    20 H9       3.5817   3.6352   1.4923   H         1 RES1   0.0000
    21 H10      3.6894   2.0433   1.3639   H         1 RES1   0.0000
    22 C5       4.8727   4.0629   4.2884   C.3       1 RES1   0.0000
    23 H11      5.3357   4.5933   3.5933   H         1 RES1   0.0000
    24 H12      5.5123   3.7738   4.9869   H         1 RES1   0.0000
    25 C6       3.8912   5.5681   6.5854   C.3       1 RES1   0.0000
    26 H13      4.6997   6.1109   6.4775   H         1 RES1   0.0000
    27 H14      4.0754   4.8283   7.1998   H         1 RES1   0.0000
    28 H15      3.1714   6.1240   6.9497   H         1 RES1   0.0000
    29 C7       3.2785   6.4106   3.9553   C.3       1 RES1   0.0000
    30 H16      2.5199   6.9550   4.2564   H         1 RES1   0.0000
    31 H17      3.1493   6.1641   3.0158   H         1 RES1   0.0000
    32 H18      4.1069   6.9264   4.0474   H         1 RES1   0.0000
    33 C8       0.2685   3.2852   7.7064   C.3       1 RES1   0.0000
    34 H19     -0.4941   3.7300   8.1540   H         1 RES1   0.0000
    35 H20      0.0812   2.3123   7.6983   H         1 RES1   0.0000
    36 C9       1.5172   3.5267   8.5303   C.3       1 RES1   0.0000
    37 H21      2.2880   3.1214   8.0816   H         1 RES1   0.0000
    38 H22      1.4062   3.1250   9.4176   H         1 RES1   0.0000
    39 H23      1.6642   4.4910   8.6246   H         1 RES1   0.0000
    40 C10      0.1308   5.7023   6.1014   C.3       1 RES1   0.0000
    41 H24      0.9662   6.0786   6.4742   H         1 RES1   0.0000
    42 H25      0.0376   6.0578   5.1826   H         1 RES1   0.0000
    43 C11     -1.0330   6.2492   6.9290   C.3       1 RES1   0.0000
    44 H26     -1.8811   5.9496   6.5384   H         1 RES1   0.0000
    45 H27     -1.0017   7.2284   6.9283   H         1 RES1   0.0000
    46 H28     -0.9631   5.9204   7.8497   H         1 RES1   0.0000
    47 C12     -1.3533   3.3942   5.4342   C.3       1 RES1   0.0000
    48 H29     -2.0108   3.7657   6.0744   H         1 RES1   0.0000
    49 H30     -1.5354   3.7933   4.5476   H         1 RES1   0.0000
    50 C13     -2.9750   1.6212   5.2843   C.3       1 RES1   0.0000
    51 H31     -3.3661   2.0327   4.4850   H         1 RES1   0.0000
    52 H32     -3.4247   1.9663   6.0843   H         1 RES1   0.0000
    53 H33     -3.0885   0.6486   5.2402   H         1 RES1   0.0000
    54 C14     -0.8686   1.3876   4.1790   C.3       1 RES1   0.0000
    55 H34     -1.0783   1.9508   3.3926   H         1 RES1   0.0000
    56 H35     -1.2272   0.4823   4.0046   H         1 RES1   0.0000
    57 C15      1.0878   0.0106   5.6854   C.3       1 RES1   0.0000
    58 H36      0.6637   0.3674   6.5055   H         1 RES1   0.0000
    59 H37      0.5702  -0.7860   5.4048   H         1 RES1   0.0000
    60 C16      2.5129  -0.4309   6.0247   C.3       1 RES1   0.0000
    61 H38      2.9407  -0.8006   5.2238   H         1 RES1   0.0000
    62 H39      2.4856  -1.1153   6.7259   H         1 RES1   0.0000
    63 H40      3.0273   0.3413   6.3426   H         1 RES1   0.0000
    64 C17      1.3221   0.2701   2.8664   C.3       1 RES1   0.0000
    65 H41      2.2930   0.0739   2.8381   H         1 RES1   0.0000
    66 H42      0.8453  -0.5939   2.9467   H         1 RES1   0.0000
    67 C18      0.9207   0.9284   1.5513   C.3       1 RES1   0.0000
    68 H43     -0.0557   0.9849   1.4989   H         1 RES1   0.0000
    69 H44      1.2589   0.3941   0.8029   H         1 RES1   0.0000
    70 H45      1.3025   1.8307   1.5071   H         1 RES1   0.0000
    71 N3       5.5154   0.7362  -7.8760   N.1       2 RES2   0.0000
    72 C43      5.5653   1.3925  -6.9711   C.1       2 RES2   0.0000
    73 C44      5.6276   2.2294  -5.8457   C.3       2 RES2   0.0000
    74 H66      4.8574   2.8353  -5.8457   H         2 RES2   0.0000
    75 H67      6.4561   2.7541  -5.8753   H         2 RES2   0.0000
    76 H68      5.6138   1.6849  -5.0313   H         2 RES2   0.0000
    77 B1       1.9720   3.6429  -2.9094   B         3 RES3  -1.0000
    78 C19      2.2440   5.1161  -2.2197   C.ar      3 RES3   0.0000
    79 C20      1.5403   6.2480  -2.6639   C.ar      3 RES3   0.0000
    80 H46      0.9570   6.1529  -3.4074   H         3 RES3   0.0000
    81 C21      1.6565   7.5003  -2.0676   C.ar      3 RES3   0.0000
    82 H47      1.1641   8.2370  -2.4087   H         3 RES3   0.0000
    83 C22      2.4923   7.6689  -0.9752   C.ar      3 RES3   0.0000
    84 H48      2.5770   8.5191  -0.5594   H         3 RES3   0.0000
    85 C23      3.2033   6.5841  -0.4987   C.ar      3 RES3   0.0000
    86 H49      3.7787   6.6871   0.2501   H         3 RES3   0.0000
    87 C24      3.0759   5.3385  -1.1129   C.ar      3 RES3   0.0000
    88 H50      3.5746   4.6081  -0.7651   H         3 RES3   0.0000
    89 C25      2.9320   2.4639  -2.2873   C.ar      3 RES3   0.0000
    90 C26      4.3315   2.6094  -2.2667   C.ar      3 RES3   0.0000
    91 H51      4.7082   3.4287  -2.5634   H         3 RES3   0.0000
    92 C27      5.1884   1.6020  -1.8294   C.ar      3 RES3   0.0000
    93 H52      6.1259   1.7521  -1.8230   H         3 RES3   0.0000
    94 C28      4.6851   0.3854  -1.4036   C.ar      3 RES3   0.0000
    95 H53      5.2678  -0.3043  -1.1073   H         3 RES3   0.0000
    96 C29      3.3165   0.1983  -1.4209   C.ar      3 RES3   0.0000
    97 H54      2.9517  -0.6314  -1.1369   H         3 RES3   0.0000
    98 C30      2.4688   1.2171  -1.8529   C.ar      3 RES3   0.0000
    99 H55      1.5317   1.0578  -1.8526   H         3 RES3   0.0000
   100 C31      2.2305   3.6256  -4.5339   C.ar      3 RES3   0.0000
   101 C32      1.9906   2.4150  -5.2114   C.ar      3 RES3   0.0000
   102 H56      1.7581   1.6513  -4.6973   H         3 RES3   0.0000
   103 C33      2.0769   2.2773  -6.5828   C.ar      3 RES3   0.0000
   104 H57      1.8913   1.4384  -6.9892   H         3 RES3   0.0000
   105 C34      2.4337   3.3650  -7.3631   C.ar      3 RES3   0.0000
   106 H58      2.4862   3.2867  -8.3087   H         3 RES3   0.0000
   107 C35      2.7138   4.5689  -6.7369   C.ar      3 RES3   0.0000
   108 H59      2.9751   5.3202  -7.2574   H         3 RES3   0.0000
   109 C36      2.6170   4.6921  -5.3493   C.ar      3 RES3   0.0000
   110 H60      2.8209   5.5270  -4.9457   H         3 RES3   0.0000
   111 C37      0.3705   3.3472  -2.6333   C.ar      3 RES3   0.0000
   112 C38     -0.0943   3.0443  -1.3412   C.ar      3 RES3   0.0000
   113 H61      0.5360   2.9654  -0.6351   H         3 RES3   0.0000
   114 C39     -1.4453   2.8549  -1.0569   C.ar      3 RES3   0.0000
   115 H62     -1.7188   2.6515  -0.1695   H         3 RES3   0.0000
   116 C40     -2.3944   2.9632  -2.0683   C.ar      3 RES3   0.0000
   117 H63     -3.3152   2.8288  -1.8822   H         3 RES3   0.0000
   118 C41     -1.9769   3.2691  -3.3445   C.ar      3 RES3   0.0000
   119 H64     -2.6171   3.3556  -4.0408   H         3 RES3   0.0000
   120 C42     -0.6201   3.4544  -3.6232   C.ar      3 RES3   0.0000
   121 H65     -0.3585   3.6597  -4.5130   H         3 RES3   0.0000
@<TRIPOS>BOND
     1     1     2    1
     2     2    14    1
     3     3     1    1
     4     4     1    1
     5     5     1    1
     6     6    47    1
     7     7     1    1
     8     8     1    1
     9     9     7    3
    10    10     9    1
    11    11    10    1
    12    12    10    1
    13    13    10    1
    14    14    15    1
    15    16    14    1
    16    17    14    1
    17    18     2    1
    18    19    18    1
    19    20    18    1
    20    21    18    1
    21    22     2    1
    22    23    22    1
    23    24    22    1
    24    25     3    1
    25    26    25    1
    26    27    25    1
    27    28    25    1
    28    29     3    1
    29    30    29    1
    30    31    29    1
    31    32    29    1
    32    33     4    1
    33    34    33    1
    34    35    33    1
    35    36    33    1
    36    37    36    1
    37    38    36    1
    38    39    36    1
    39    40     4    1
    40    41    40    1
    41    42    40    1
    42    43    40    1
    43    44    43    1
    44    45    43    1
    45    46    43    1
    46    47     4    1
    47    48    47    1
    48    49    47    1
    49    50     6    1
    50    51    50    1
    51    52    50    1
    52    53    50    1
    53    54     5    1
    54    55    54    1
    55    56    54    1
    56    57     5    1
    57    58    57    1
    58    59    57    1
    59    60    57    1
    60    61    60    1
    61    62    60    1
    62    63    60    1
    63    64     5    1
    64    65    64    1
    65    66    64    1
    66    67    64    1
    67    68    67    1
    68    69    67    1
    69    70    67    1
    70     3    22    1
    71     6    54    1
    72    71    72    3
    73    72    73    1
    74    73    74    1
    75    75    73    1
    76    76    73    1
    77    77    78    1
    78    78    79   ar
    79    79    80    1
    80    81    79   ar
    81    82    81    1
    82    83    81   ar
    83    84    83    1
    84    85    83   ar
    85    86    85    1
    86    87    78   ar
    87    88    87    1
    88    89    77    1
    89    90    89   ar
    90    91    90    1
    91    92    90   ar
    92    93    92    1
    93    94    92   ar
    94    95    94    1
    95    96    94   ar
    96    97    96    1
    97    98    89   ar
    98    99    98    1
    99   100    77    1
   100   101   100   ar
   101   102   101    1
   102   103   101   ar
   103   104   103    1
   104   105   103   ar
   105   106   105    1
   106   107   105   ar
   107   108   107    1
   108   109   100   ar
   109   110   109    1
   110   111    77    1
   111   112   111   ar
   112   113   112    1
   113   114   112   ar
   114   115   114    1
   115   116   114   ar
   116   117   116    1
   117   118   116   ar
   118   119   118    1
   119   120   111   ar
   120   121   120    1
   121    85    87   ar
   122    96    98   ar
   123   107   109   ar
   124   118   120   ar
@<TRIPOS>SUBSTRUCTURE
     1 RES1        1 GROUP             0 ****  ****    0  
     2 RES2       71 GROUP             0 ****  ****    0  
     3 RES3       77 GROUP             0 ****  ****    0  
@<TRIPOS>CRYSIN
   11.7581   12.0235   17.3035  105.7990   95.9700   98.8340     2     1
