@<TRIPOS>MOLECULE
TAPGAS
   116   122     1     0     0
SMALL
NO_CHARGES
****
Generated from the CSD

@<TRIPOS>ATOM
     1 Fe1     -1.9248   1.9848   3.4040   Fe        1 RES1   0.0000
     2 C1      -1.7760   0.0711   4.1706   C.3       1 RES1   0.0000
     3 C2      -2.2083  -0.9361   3.1534   C.3       1 RES1   0.0000
     4 C3      -2.2411  -0.3160   1.7970   C.2       1 RES1   0.0000
     5 C4      -0.2068  -1.7162   4.0379   C.2       1 RES1   0.0000
     6 C5      -0.2942  -0.2133   4.3475   C.3       1 RES1   0.0000
     7 C6       0.4715   0.6695   3.3614   C.2       1 RES1   0.0000
     8 C7      -2.4727  -0.0454   5.4467   C.2       1 RES1   0.0000
     9 C8      -4.5456  -0.5036   6.5885   C.3       1 RES1   0.0000
    10 C9      -1.5984  -3.4462   3.0977   C.3       1 RES1   0.0000
    11 C10     -2.3383  -3.7010   1.7937   C.3       1 RES1   0.0000
    12 C11     -2.4420  -3.9222   4.2640   C.3       1 RES1   0.0000
    13 C12     -2.2528   1.5009   0.2998   C.3       1 RES1   0.0000
    14 C13     -3.4382   2.4193   0.1736   C.3       1 RES1   0.0000
    15 C14     -0.9008   2.1250  -0.0672   C.3       1 RES1   0.0000
    16 C15      1.7178  -2.1882   5.3697   C.ar      1 RES1   0.0000
    17 C16      3.0187  -2.0973   4.9078   C.ar      1 RES1   0.0000
    18 C17      4.0326  -1.7794   5.7481   C.ar      1 RES1   0.0000
    19 C18      3.7786  -1.5384   7.0782   C.ar      1 RES1   0.0000
    20 C19      2.4892  -1.6253   7.5828   C.ar      1 RES1   0.0000
    21 C20      1.4175  -2.0065   6.6998   C.ar      1 RES1   0.0000
    22 C21      3.2998  -2.3620   3.4630   C.3       1 RES1   0.0000
    23 C22      0.0417  -2.2139   7.3190   C.3       1 RES1   0.0000
    24 C23     -1.5299   2.6839   5.0404   C.1       1 RES1   0.0000
    25 C24     -0.7969   3.4344   7.4173   C.ar      1 RES1   0.0000
    26 C25      0.4782   3.0275   7.7744   C.ar      1 RES1   0.0000
    27 C26      0.8939   3.4205   9.0554   C.ar      1 RES1   0.0000
    28 C27      0.0793   4.1947   9.8368   C.ar      1 RES1   0.0000
    29 C28     -1.1910   4.5660   9.4437   C.ar      1 RES1   0.0000
    30 C29     -1.6480   4.1572   8.1840   C.ar      1 RES1   0.0000
    31 C30      1.3436   2.2178   6.8964   C.3       1 RES1   0.0000
    32 C31     -3.0506   4.5284   7.7695   C.3       1 RES1   0.0000
    33 C32     -1.8509   3.6950   2.6799   C.1       1 RES1   0.0000
    34 C33     -1.8951   6.1321   1.7659   C.ar      1 RES1   0.0000
    35 C34     -0.8374   6.6199   1.0730   C.ar      1 RES1   0.0000
    36 C35     -0.9482   7.8937   0.5209   C.ar      1 RES1   0.0000
    37 C36     -2.1243   8.5849   0.7240   C.ar      1 RES1   0.0000
    38 C37     -3.1449   8.0872   1.4759   C.ar      1 RES1   0.0000
    39 C38     -3.0567   6.8016   1.9919   C.ar      1 RES1   0.0000
    40 C39      0.4055   5.8418   0.8846   C.3       1 RES1   0.0000
    41 C40     -4.1790   6.2565   2.8028   C.3       1 RES1   0.0000
    42 C41     -3.7004   2.0598   3.6661   C.1       1 RES1   0.0000
    43 C42     -6.2195   1.9650   4.1739   C.ar      1 RES1   0.0000
    44 C43     -6.9092   0.8591   3.7529   C.ar      1 RES1   0.0000
    45 C44     -8.2562   0.7287   4.0641   C.ar      1 RES1   0.0000
    46 C45     -8.8685   1.7280   4.8078   C.ar      1 RES1   0.0000
    47 C46     -8.1472   2.8182   5.2370   C.ar      1 RES1   0.0000
    48 C47     -6.8295   2.9545   4.8881   C.ar      1 RES1   0.0000
    49 C48     -6.2596  -0.2133   2.9486   C.3       1 RES1   0.0000
    50 C49     -6.0841   4.1848   5.3304   C.3       1 RES1   0.0000
    51 N1      -1.2494  -2.0361   3.2238   N.pl3     1 RES1   0.0000
    52 N2      -2.1769   0.9381   1.6840   N.2       1 RES1   0.0000
    53 N3       0.6728  -2.5654   4.4851   N.2       1 RES1   0.0000
    54 N4      -1.2649   3.0769   6.1101   N.1       1 RES1   0.0000
    55 N5      -1.8255   4.8168   2.3081   N.1       1 RES1   0.0000
    56 N6      -4.8503   2.0539   3.8495   N.1       1 RES1   0.0000
    57 O1      -0.0143   1.7853   3.0600   O.co2     1 RES1   0.0000
    58 O2       1.5610   0.2409   2.8880   O.co2     1 RES1   0.0000
    59 O3      -3.7600  -0.4641   5.3451   O.3       1 RES1   0.0000
    60 O4      -1.9951   0.2390   6.5360   O.2       1 RES1   0.0000
    61 H1      -3.2569  -1.2837   3.3909   H         1 RES1   0.0000
    62 H2      -2.3004  -0.9677   0.8846   H         1 RES1   0.0000
    63 H3       0.1654  -0.0592   5.3730   H         1 RES1   0.0000
    64 H4      -0.7007  -4.0880   3.0960   H         1 RES1   0.0000
    65 H5      -2.3660   0.6715  -0.4423   H         1 RES1   0.0000
    66 H6       5.1141  -1.6984   5.3730   H         1 RES1   0.0000
    67 H7       4.6080  -1.2442   7.7974   H         1 RES1   0.0000
    68 H8       2.2848  -1.4022   8.6656   H         1 RES1   0.0000
    69 H9       1.9231   3.1006   9.4355   H         1 RES1   0.0000
    70 H10      0.4530   4.5620  10.8442   H         1 RES1   0.0000
    71 H11     -1.8434   5.1545  10.1399   H         1 RES1   0.0000
    72 H12     -0.1450   8.3341  -0.1147   H         1 RES1   0.0000
    73 H13     -2.2194   9.5980   0.2457   H         1 RES1   0.0000
    74 H14     -4.0824   8.7291   1.6217   H         1 RES1   0.0000
    75 H15     -8.8910  -0.1382   3.7513   H         1 RES1   0.0000
    76 H16     -9.9457   1.6392   5.0945   H         1 RES1   0.0000
    77 H17     -8.6724   3.5943   5.8644   H         1 RES1   0.0000
    78 H18     -4.0546  -1.1849   7.3223   H         1 RES1   0.0000
    79 H19     -4.5866   0.4937   7.0438   H         1 RES1   0.0000
    80 H20     -5.5967  -0.8492   6.5360   H         1 RES1   0.0000
    81 H21     -3.2862  -3.1006   1.7364   H         1 RES1   0.0000
    82 H22     -1.7629  -3.3968   0.9173   H         1 RES1   0.0000
    83 H23     -2.6477  -4.7595   1.6545   H         1 RES1   0.0000
    84 H24     -1.9207  -3.7721   5.2256   H         1 RES1   0.0000
    85 H25     -3.3908  -3.3376   4.3246   H         1 RES1   0.0000
    86 H26     -2.7400  -4.9767   4.2099   H         1 RES1   0.0000
    87 H27     -4.3813   1.8762   0.3768   H         1 RES1   0.0000
    88 H28     -3.3712   3.2586   0.8846   H         1 RES1   0.0000
    89 H29     -3.5350   2.8439  -0.8354   H         1 RES1   0.0000
    90 H30     -0.6102   2.9229   0.6225   H         1 RES1   0.0000
    91 H31     -0.1034   1.3824  -0.0328   H         1 RES1   0.0000
    92 H32     -0.9332   2.5279  -1.0975   H         1 RES1   0.0000
    93 H33      2.9461  -3.3771   3.2107   H         1 RES1   0.0000
    94 H34      2.7053  -1.6589   2.8503   H         1 RES1   0.0000
    95 H35      4.3223  -2.3106   3.0141   H         1 RES1   0.0000
    96 H36     -0.6557  -1.5602   6.7490   H         1 RES1   0.0000
    97 H37     -0.2579  -3.2586   7.0766   H         1 RES1   0.0000
    98 H38     -0.2607  -2.0934   8.3543   H         1 RES1   0.0000
    99 H39      0.8076   1.2639   6.6671   H         1 RES1   0.0000
   100 H40      1.4692   2.7451   5.9463   H         1 RES1   0.0000
   101 H41      2.3861   1.8564   7.1258   H         1 RES1   0.0000
   102 H42     -2.9521   5.1150   6.8145   H         1 RES1   0.0000
   103 H43     -3.5931   3.6141   7.5189   H         1 RES1   0.0000
   104 H44     -3.7769   5.1347   8.3543   H         1 RES1   0.0000
   105 H45      0.8196   5.6087   1.9002   H         1 RES1   0.0000
   106 H46      0.1644   4.8780   0.4095   H         1 RES1   0.0000
   107 H47      1.3239   6.1814   0.3276   H         1 RES1   0.0000
   108 H48     -4.4918   5.2927   2.3261   H         1 RES1   0.0000
   109 H49     -3.7788   5.9839   3.8168   H         1 RES1   0.0000
   110 H50     -5.1328   6.7542   3.0305   H         1 RES1   0.0000
   111 H51     -5.8508   0.2370   2.0149   H         1 RES1   0.0000
   112 H52     -5.3692  -0.5925   3.5055   H         1 RES1   0.0000
   113 H53     -6.7402  -1.1454   2.5718   H         1 RES1   0.0000
   114 H54     -5.2137   3.8313   5.9791   H         1 RES1   0.0000
   115 H55     -5.6251   4.6805   4.4556   H         1 RES1   0.0000
   116 H56     -6.4831   5.0360   5.9299   H         1 RES1   0.0000
@<TRIPOS>BOND
     1     1     2    1
     2     2     3    1
     3     3     4    1
     4     4    52    2
     5     5     6    1
     6     6     2    1
     7     7     6    1
     8     8     2    1
     9     9    59    1
    10    10    11    1
    11    11    81    1
    12    12    10    1
    13    13    14    1
    14    14    87    1
    15    15    13    1
    16    16    17   ar
    17    17    18   ar
    18    18    19   ar
    19    19    20   ar
    20    20    21   ar
    21    21    16   ar
    22    22    17    1
    23    23    21    1
    24    24     1    1
    25    25    26   ar
    26    26    27   ar
    27    27    28   ar
    28    28    29   ar
    29    29    30   ar
    30    30    25   ar
    31    31    26    1
    32    32    30    1
    33    33     1    1
    34    34    35   ar
    35    35    36   ar
    36    36    37   ar
    37    37    38   ar
    38    38    39   ar
    39    39    34   ar
    40    40    35    1
    41    41    39    1
    42    42     1    1
    43    43    44   ar
    44    44    45   ar
    45    45    46   ar
    46    46    47   ar
    47    47    48   ar
    48    48    43   ar
    49    49    44    1
    50    50    48    1
    51    51     3    1
    52    52     1    1
    53    53     5    2
    54    54    24    3
    55    55    33    3
    56    56    42    3
    57    57     1    1
    58    58     7    2
    59    59     8    1
    60    60     8    2
    61    61     3    1
    62    62     4    1
    63    63     6    1
    64    64    10    1
    65    65    13    1
    66    66    18    1
    67    67    19    1
    68    68    20    1
    69    69    27    1
    70    70    28    1
    71    71    29    1
    72    72    36    1
    73    73    37    1
    74    74    38    1
    75    75    45    1
    76    76    46    1
    77    77    47    1
    78    78     9    1
    79    79     9    1
    80    80     9    1
    81    82    11    1
    82    83    11    1
    83    84    12    1
    84    85    12    1
    85    86    12    1
    86    88    14    1
    87    89    14    1
    88    90    15    1
    89    91    15    1
    90    92    15    1
    91    93    22    1
    92    94    22    1
    93    95    22    1
    94    96    23    1
    95    97    23    1
    96    98    23    1
    97    99    31    1
    98   100    31    1
    99   101    31    1
   100   102    32    1
   101   103    32    1
   102   104    32    1
   103   105    40    1
   104   106    40    1
   105   107    40    1
   106   108    41    1
   107   109    41    1
   108   110    41    1
   109   111    49    1
   110   112    49    1
   111   113    49    1
   112   114    50    1
   113   115    50    1
   114   116    50    1
   115     5    51    1
   116     7    57    1
   117    10    51    1
   118    13    52    1
   119    16    53    1
   120    25    54    1
   121    34    55    1
   122    43    56    1
@<TRIPOS>SUBSTRUCTURE
     1 RES1        1 GROUP             0 ****  ****    0  
@<TRIPOS>CRYSIN
   14.4700   19.7490   17.5000   90.0000  110.6000   90.0000    14     2
