@<TRIPOS>MOLECULE
TEJDOD
   114   120     6     0     0
SMALL
USER_CHARGES
****
Generated from the CSD

@<TRIPOS>ATOM
     1 Fe1     10.6647   4.9977  11.2843   Fe        1 RES1   2.0000
     2 S1       9.5074   8.9621   6.4310   S.3       1 RES1   0.0000
     3 S2      11.8859   1.3264  16.3622   S.3       1 RES1   0.0000
     4 N1       9.8627   6.4884  12.2750   N.ar      1 RES1   0.0000
     5 N2      10.3232   6.1522   9.8480   N.ar      1 RES1   0.0000
     6 N3      11.3938   3.8849   9.8377   N.ar      1 RES1   0.0000
     7 N4       8.9584   4.0005  11.3164   N.ar      1 RES1   0.0000
     8 N5      11.0218   3.8583  12.7370   N.ar      1 RES1   0.0000
     9 N6      12.4803   5.6297  11.7267   N.ar      1 RES1   0.0000
    10 C1       9.6778   6.5673  13.5987   C.ar      1 RES1   0.0000
    11 C2       9.1388   7.6902  14.2056   C.ar      1 RES1   0.0000
    12 C3       8.7594   8.7610  13.4285   C.ar      1 RES1   0.0000
    13 C4       8.9285   8.6886  12.0530   C.ar      1 RES1   0.0000
    14 C5       9.4913   7.5467  11.4998   C.ar      1 RES1   0.0000
    15 C6       9.7729   7.3564  10.0730   C.ar      1 RES1   0.0000
    16 C7       9.5653   8.2543   9.0379   C.ar      1 RES1   0.0000
    17 C8       9.9241   7.8668   7.7466   C.ar      1 RES1   0.0000
    18 C9      10.5094   6.6291   7.5203   C.ar      1 RES1   0.0000
    19 C10     10.7055   5.7857   8.6064   C.ar      1 RES1   0.0000
    20 C11     11.3193   4.4575   8.5987   C.ar      1 RES1   0.0000
    21 C12     11.8163   3.8280   7.4782   C.ar      1 RES1   0.0000
    22 C13     12.4089   2.5886   7.6129   C.ar      1 RES1   0.0000
    23 C14     12.4986   2.0105   8.8593   C.ar      1 RES1   0.0000
    24 C15     11.9682   2.6864   9.9481   C.ar      1 RES1   0.0000
    25 C16      7.8817   4.1923  10.5524   C.ar      1 RES1   0.0000
    26 C17      6.7094   3.4633  10.6879   C.ar      1 RES1   0.0000
    27 C18      6.6480   2.4798  11.6688   C.ar      1 RES1   0.0000
    28 C19      7.7501   2.2659  12.4718   C.ar      1 RES1   0.0000
    29 C20      8.8913   3.0340  12.2901   C.ar      1 RES1   0.0000
    30 C21     10.1039   2.9462  13.1148   C.ar      1 RES1   0.0000
    31 C22     10.3253   2.1086  14.1886   C.ar      1 RES1   0.0000
    32 C23     11.5070   2.2489  14.9089   C.ar      1 RES1   0.0000
    33 C24     12.4576   3.1943  14.5141   C.ar      1 RES1   0.0000
    34 C25     12.1784   3.9829  13.4057   C.ar      1 RES1   0.0000
    35 C26     13.0440   5.0109  12.8124   C.ar      1 RES1   0.0000
    36 C27     14.3095   5.3246  13.2610   C.ar      1 RES1   0.0000
    37 C28     15.0478   6.2783  12.5812   C.ar      1 RES1   0.0000
    38 C29     14.4945   6.8901  11.4774   C.ar      1 RES1   0.0000
    39 C30     13.2156   6.5481  11.0865   C.ar      1 RES1   0.0000
    40 C31     10.9051   8.9119   5.3542   C.ar      1 RES1   0.0000
    41 C32     12.2019   8.8736   5.8200   C.ar      1 RES1   0.0000
    42 C33     13.2465   8.9605   4.9248   C.ar      1 RES1   0.0000
    43 C34     12.9995   9.1283   3.5709   C.ar      1 RES1   0.0000
    44 C35     11.7041   9.1744   3.1080   C.ar      1 RES1   0.0000
    45 C36     10.6473   9.0455   3.9887   C.ar      1 RES1   0.0000
    46 C37     10.8250  -0.0830  16.1977   C.ar      1 RES1   0.0000
    47 C38      9.4909  -0.0186  16.5646   C.ar      1 RES1   0.0000
    48 C39      8.6783  -1.1190  16.3655   C.ar      1 RES1   0.0000
    49 C40      9.1913  -2.2752  15.8152   C.ar      1 RES1   0.0000
    50 C41     10.5240  -2.3452  15.4844   C.ar      1 RES1   0.0000
    51 C42     11.3563  -1.2543  15.6726   C.ar      1 RES1   0.0000
    52 H1       9.9414   5.7896  14.1697   H         1 RES1   0.0000
    53 H2       9.0271   7.7235  15.1989   H         1 RES1   0.0000
    54 H3       8.3608   9.5772  13.8469   H         1 RES1   0.0000
    55 H4       8.6498   9.4495  11.4672   H         1 RES1   0.0000
    56 H5       9.1667   9.1560   9.2105   H         1 RES1   0.0000
    57 H6      10.7792   6.3516   6.5981   H         1 RES1   0.0000
    58 H7      11.7422   4.2572   6.5784   H         1 RES1   0.0000
    59 H8      12.7786   2.1173   6.8128   H         1 RES1   0.0000
    60 H9      12.9317   1.1167   8.9745   H         1 RES1   0.0000
    61 H10     12.0267   2.2665  10.8543   H         1 RES1   0.0000
    62 H11      7.9224   4.8960   9.8431   H         1 RES1   0.0000
    63 H12      5.9249   3.6393  10.0922   H         1 RES1   0.0000
    64 H13      5.8163   1.9399  11.7934   H         1 RES1   0.0000
    65 H14      7.7293   1.5605  13.1798   H         1 RES1   0.0000
    66 H15      9.6522   1.4128  14.4418   H         1 RES1   0.0000
    67 H16     13.3167   3.2988  15.0154   H         1 RES1   0.0000
    68 H17     14.6878   4.8633  14.0632   H         1 RES1   0.0000
    69 H18     15.9653   6.5249  12.8930   H         1 RES1   0.0000
    70 H19     15.0164   7.5699  10.9608   H         1 RES1   0.0000
    71 H20     12.8182   7.0076  10.2921   H         1 RES1   0.0000
    72 H21     12.3791   8.7945   6.8013   H         1 RES1   0.0000
    73 H22     14.1882   8.8971   5.2542   H         1 RES1   0.0000
    74 H23     13.7615   9.2142   2.9287   H         1 RES1   0.0000
    75 H24     11.5279   9.3026   2.1322   H         1 RES1   0.0000
    76 H25      9.7052   9.0441   3.6531   H         1 RES1   0.0000
    77 H26      9.1231   0.8156  16.9755   H         1 RES1   0.0000
    78 H27      7.7127  -1.0765  16.6198   H         1 RES1   0.0000
    79 H28      8.5946  -3.0607  15.6529   H         1 RES1   0.0000
    80 H29     10.8974  -3.1930  15.1072   H         1 RES1   0.0000
    81 H30     12.3252  -1.3047  15.4333   H         1 RES1   0.0000
    82 N7       2.5191   4.9170   4.2136   N.1       2 RES2   0.0000
    83 C43      3.5578   5.1670   3.8573   C.1       2 RES2   0.0000
    84 C44      4.8896   5.4711   3.4154   C.3       2 RES2   0.0000
    85 H31      4.8493   5.9743   2.5517   H         2 RES2   0.0000
    86 H32      5.3510   6.0323   4.1054   H         2 RES2   0.0000
    87 H33      5.3985   4.6208   3.2843   H         2 RES2   0.0000
    88 N8       8.1698   3.3366   4.1349   N.1       3 RES3   0.0000
    89 C45      8.3521   4.4572   4.1021   C.1       3 RES3   0.0000
    90 C46      8.5654   5.8984   4.0742   C.3       3 RES3   0.0000
    91 H34      9.4695   6.0923   3.6957   H         3 RES3   0.0000
    92 H35      8.5057   6.2652   5.0019   H         3 RES3   0.0000
    93 H36      7.8654   6.3245   3.5006   H         3 RES3   0.0000
    94 P1       5.9029   6.3513   7.5434   P.3       4 RES4  -1.0000
    95 F1       5.2847   5.2886   8.5525   F         4 RES4   0.0000
    96 F2       6.5115   7.4452   6.5647   F         4 RES4   0.0000
    97 F3       6.9648   5.3230   7.0570   F         4 RES4   0.0000
    98 F4       6.9104   6.7808   8.7024   F         4 RES4   0.0000
    99 F5       4.8849   7.4678   8.1124   F         4 RES4   0.0000
   100 F6       4.8240   6.0018   6.4685   F         4 RES4   0.0000
   101 P2       6.6103   7.7171   0.0000   P.3       5 RES5  -1.0000
   102 F7       7.7827   7.8166   1.0895   F         5 RES5   0.0000
   103 F8       5.5369   8.0930   1.1039   F         5 RES5   0.0000
   104 F9       6.4179   6.1707   0.3183   F         5 RES5   0.0000
   105 F7A      5.4379   7.6176  -1.0895   F         5 RES5   0.0000
   106 F8A      7.6838   7.3412  -1.1039   F         5 RES5   0.0000
   107 F9A      6.8027   9.2635  -0.3183   F         5 RES5   0.0000
   108 P3       7.3187   3.8347  16.3888   P.3       6 RES6  -1.0000
   109 F10      7.5598   4.5876  15.0083   F         6 RES6   0.0000
   110 F11      8.8799   3.5187  16.4684   F         6 RES6   0.0000
   111 F12      7.0869   2.4853  15.5995   F         6 RES6   0.0000
   112 F10A     7.0776   3.0817  17.7692   F         6 RES6   0.0000
   113 F11A     5.7575   4.1506  16.3091   F         6 RES6   0.0000
   114 F12A     7.5505   5.1840  17.1780   F         6 RES6   0.0000
@<TRIPOS>BOND
     1     1     4    1
     2     2    17    1
     3     3    32    1
     4     4    10   ar
     5     5     1    1
     6     6     1    1
     7     7     1    1
     8     8     1    1
     9     9     1    1
    10    10    11   ar
    11    11    12   ar
    12    12    13   ar
    13    13    14   ar
    14    14     4   ar
    15    15     5   ar
    16    16    15   ar
    17    17    16   ar
    18    18    17   ar
    19    19     5   ar
    20    20     6   ar
    21    21    20   ar
    22    22    21   ar
    23    23    22   ar
    24    24     6   ar
    25    25     7   ar
    26    26    25   ar
    27    27    26   ar
    28    28    27   ar
    29    29     7   ar
    30    30     8   ar
    31    31    30   ar
    32    32    31   ar
    33    33    32   ar
    34    34     8   ar
    35    35     9   ar
    36    36    35   ar
    37    37    36   ar
    38    38    37   ar
    39    39     9   ar
    40    40     2    1
    41    41    40   ar
    42    42    41   ar
    43    43    42   ar
    44    44    43   ar
    45    45    40   ar
    46    46     3    1
    47    47    46   ar
    48    48    47   ar
    49    49    48   ar
    50    50    49   ar
    51    51    46   ar
    52    52    10    1
    53    53    11    1
    54    54    12    1
    55    55    13    1
    56    56    16    1
    57    57    18    1
    58    58    21    1
    59    59    22    1
    60    60    23    1
    61    61    24    1
    62    62    25    1
    63    63    26    1
    64    64    27    1
    65    65    28    1
    66    66    31    1
    67    67    33    1
    68    68    36    1
    69    69    37    1
    70    70    38    1
    71    71    39    1
    72    72    41    1
    73    73    42    1
    74    74    43    1
    75    75    44    1
    76    76    45    1
    77    77    47    1
    78    78    48    1
    79    79    49    1
    80    80    50    1
    81    81    51    1
    82    14    15    1
    83    18    19   ar
    84    19    20    1
    85    23    24   ar
    86    28    29   ar
    87    29    30    1
    88    33    34   ar
    89    34    35    1
    90    38    39   ar
    91    44    45   ar
    92    50    51   ar
    93    82    83    3
    94    83    84    1
    95    84    85    1
    96    86    84    1
    97    87    84    1
    98    88    89    3
    99    89    90    1
   100    90    91    1
   101    92    90    1
   102    93    90    1
   103    94    95    1
   104    96    94    1
   105    97    94    1
   106    98    94    1
   107    99    94    1
   108   100    94    1
   109   101   102    1
   110   103   101    1
   111   104   101    1
   112   105   101    1
   113   106   101    1
   114   107   101    1
   115   108   109    1
   116   110   108    1
   117   111   108    1
   118   112   108    1
   119   113   108    1
   120   114   108    1
@<TRIPOS>SUBSTRUCTURE
     1 RES1        1 GROUP             0 ****  ****    0  
     2 RES2       82 GROUP             0 ****  ****    0  
     3 RES3       88 GROUP             0 ****  ****    0  
     4 RES4       94 GROUP             0 ****  ****    0  
     5 RES5      101 GROUP             0 ****  ****    0  
     6 RES6      108 GROUP             0 ****  ****    0  
@<TRIPOS>CRYSIN
    9.2931   15.9261   17.0422   75.1240   80.9790   75.7230     2     1
