@<TRIPOS>MOLECULE
TELWEO
   173   194     1     0     0
SMALL
NO_CHARGES
****
Generated from the CSD

@<TRIPOS>ATOM
     1 Fe1      9.3889   7.9486   6.4918   Fe        1 RES1   0.0000
     2 N1       8.4960   7.5189   4.5501   N.2       1 RES1   0.0000
     3 N2       9.1872   8.1029   3.5172   N.pl3     1 RES1   0.0000
     4 N3      11.2400   7.2170   5.6595   N.2       1 RES1   0.0000
     5 N4      11.5316   7.7844   4.4453   N.pl3     1 RES1   0.0000
     6 N5       9.8589  10.0788   5.8636   N.2       1 RES1   0.0000
     7 N6      10.4032  10.0828   4.5994   N.pl3     1 RES1   0.0000
     8 B1      10.5618   8.7947   3.7661   B         1 RES1   0.0000
     9 H1      10.9476   9.0462   2.8784   H         1 RES1   0.0000
    10 C1       7.5346   6.7524   3.9856   C.2       1 RES1   0.0000
    11 C2       7.6033   6.8565   2.5971   C.2       1 RES1   0.0000
    12 H2       7.0429   6.4222   1.9644   H         1 RES1   0.0000
    13 C3       8.6501   7.7179   2.3244   C.2       1 RES1   0.0000
    14 C4      12.2170   6.3155   5.9150   C.2       1 RES1   0.0000
    15 C5      13.1512   6.3330   4.8791   C.2       1 RES1   0.0000
    16 H3      13.9405   5.8081   4.8143   H         1 RES1   0.0000
    17 C6      12.6980   7.2657   3.9683   C.2       1 RES1   0.0000
    18 C7       9.7974  11.3848   6.2436   C.2       1 RES1   0.0000
    19 C8      10.2944  12.1903   5.2104   C.2       1 RES1   0.0000
    20 H4      10.3585  13.1374   5.2129   H         1 RES1   0.0000
    21 C9      10.6686  11.3538   4.1985   C.2       1 RES1   0.0000
    22 C10      6.6165   5.8646   4.7357   C.ar      1 RES1   0.0000
    23 C11      5.9773   6.2390   5.9141   C.ar      1 RES1   0.0000
    24 H5       6.1076   7.1144   6.2607   H         1 RES1   0.0000
    25 C12      5.1489   5.3470   6.5920   C.ar      1 RES1   0.0000
    26 H6       4.7325   5.6069   7.4058   H         1 RES1   0.0000
    27 C13      4.9346   4.0819   6.0769   C.ar      1 RES1   0.0000
    28 H7       4.3717   3.4702   6.5372   H         1 RES1   0.0000
    29 C14      5.5416   3.7080   4.8904   C.ar      1 RES1   0.0000
    30 H8       5.3817   2.8438   4.5287   H         1 RES1   0.0000
    31 C15      6.3800   4.5888   4.2287   C.ar      1 RES1   0.0000
    32 H9       6.7996   4.3202   3.4199   H         1 RES1   0.0000
    33 C16      9.1384   8.1524   1.0004   C.ar      1 RES1   0.0000
    34 C17      9.4483   9.4801   0.7076   C.ar      1 RES1   0.0000
    35 H10      9.3310  10.1505   1.3711   H         1 RES1   0.0000
    36 C18      9.9269   9.8269  -0.5453   C.ar      1 RES1   0.0000
    37 H11     10.1400  10.7328  -0.7349   H         1 RES1   0.0000
    38 C19     10.0965   8.8607  -1.5224   C.ar      1 RES1   0.0000
    39 H12     10.4377   9.1027  -2.3760   H         1 RES1   0.0000
    40 C20      9.7695   7.5423  -1.2558   C.ar      1 RES1   0.0000
    41 H13      9.8729   6.8801  -1.9294   H         1 RES1   0.0000
    42 C21      9.2885   7.1891   0.0003   C.ar      1 RES1   0.0000
    43 H14      9.0601   6.2851   0.1792   H         1 RES1   0.0000
    44 C22     12.2408   5.3822   7.0734   C.ar      1 RES1   0.0000
    45 C23     12.1284   5.7859   8.3989   C.ar      1 RES1   0.0000
    46 H15     12.0132   6.7072   8.6003   H         1 RES1   0.0000
    47 C24     12.1820   4.8598   9.4327   C.ar      1 RES1   0.0000
    48 H16     12.0831   5.1475  10.3323   H         1 RES1   0.0000
    49 C25     12.3790   3.5157   9.1547   C.ar      1 RES1   0.0000
    50 H17     12.4270   2.8859   9.8636   H         1 RES1   0.0000
    51 C26     12.5044   3.0940   7.8462   C.ar      1 RES1   0.0000
    52 H18     12.6377   2.1737   7.6525   H         1 RES1   0.0000
    53 C27     12.4352   4.0254   6.8073   C.ar      1 RES1   0.0000
    54 H19     12.5215   3.7321   5.9075   H         1 RES1   0.0000
    55 C28     13.3631   7.6729   2.7117   C.ar      1 RES1   0.0000
    56 C29     12.7399   7.5789   1.4677   C.ar      1 RES1   0.0000
    57 H20     11.8475   7.2588   1.4087   H         1 RES1   0.0000
    58 C30     13.4174   7.9500   0.3177   C.ar      1 RES1   0.0000
    59 H21     12.9844   7.8901  -0.5258   H         1 RES1   0.0000
    60 C31     14.7259   8.4100   0.3912   C.ar      1 RES1   0.0000
    61 H22     15.1821   8.6751  -0.3986   H         1 RES1   0.0000
    62 C32     15.3639   8.4815   1.6161   C.ar      1 RES1   0.0000
    63 H23     16.2649   8.7797   1.6658   H         1 RES1   0.0000
    64 C33     14.6842   8.1159   2.7790   C.ar      1 RES1   0.0000
    65 H24     15.1226   8.1686   3.6198   H         1 RES1   0.0000
    66 C34      9.2614  11.9268   7.5160   C.ar      1 RES1   0.0000
    67 C35      8.8091  11.1615   8.5899   C.ar      1 RES1   0.0000
    68 H25      8.8819  10.2151   8.5471   H         1 RES1   0.0000
    69 C36      8.2554  11.7474   9.7191   C.ar      1 RES1   0.0000
    70 H26      7.9477  11.2003  10.4323   H         1 RES1   0.0000
    71 C37      8.1486  13.1265   9.8123   C.ar      1 RES1   0.0000
    72 H27      7.7577  13.5286  10.5790   H         1 RES1   0.0000
    73 C38      8.6196  13.9067   8.7749   C.ar      1 RES1   0.0000
    74 H28      8.5669  14.8529   8.8340   H         1 RES1   0.0000
    75 C39      9.1673  13.3183   7.6520   C.ar      1 RES1   0.0000
    76 H29      9.4903  13.8734   6.9514   H         1 RES1   0.0000
    77 C40     11.2067  11.7636   2.8787   C.ar      1 RES1   0.0000
    78 C41     12.3573  11.2109   2.3156   C.ar      1 RES1   0.0000
    79 H30     12.8270  10.5255   2.7759   H         1 RES1   0.0000
    80 C42     12.8181  11.6603   1.0853   C.ar      1 RES1   0.0000
    81 H31     13.5891  11.2631   0.6972   H         1 RES1   0.0000
    82 C43     12.1610  12.6838   0.4178   C.ar      1 RES1   0.0000
    83 H32     12.4789  12.9859  -0.4246   H         1 RES1   0.0000
    84 C44     11.0431  13.2595   0.9857   C.ar      1 RES1   0.0000
    85 H33     10.6010  13.9735   0.5414   H         1 RES1   0.0000
    86 C45     10.5635  12.7998   2.2012   C.ar      1 RES1   0.0000
    87 H34      9.7857  13.1947   2.5785   H         1 RES1   0.0000
    88 N1A     10.2818   8.3783   8.4334   N.2       1 RES1   0.0000
    89 N2A      9.5907   7.7943   9.4663   N.pl3     1 RES1   0.0000
    90 N3A      7.5378   8.6802   7.3240   N.2       1 RES1   0.0000
    91 N4A      7.2463   8.1128   8.5382   N.pl3     1 RES1   0.0000
    92 N5A      8.9189   5.8184   7.1199   N.2       1 RES1   0.0000
    93 N6A      8.3746   5.8144   8.3841   N.pl3     1 RES1   0.0000
    94 B1A      8.2161   7.1025   9.2174   B         1 RES1   0.0000
    95 H1A      7.8302   6.8510  10.1051   H         1 RES1   0.0000
    96 C1A     11.2432   9.1449   8.9980   C.2       1 RES1   0.0000
    97 C2A     11.1745   9.0407  10.3864   C.2       1 RES1   0.0000
    98 H2A     11.7349   9.4750  11.0191   H         1 RES1   0.0000
    99 C3A     10.1277   8.1793  10.6591   C.2       1 RES1   0.0000
   100 C4A      6.5608   9.5817   7.0685   C.2       1 RES1   0.0000
   101 C5A      5.6267   9.5642   8.1044   C.2       1 RES1   0.0000
   102 H3A      4.8373  10.0891   8.1692   H         1 RES1   0.0000
   103 C6A      6.0798   8.6315   9.0152   C.2       1 RES1   0.0000
   104 C7A      8.9804   4.5124   6.7399   C.2       1 RES1   0.0000
   105 C8A      8.4834   3.7069   7.7731   C.2       1 RES1   0.0000
   106 H4A      8.4193   2.7598   7.7706   H         1 RES1   0.0000
   107 C9A      8.1092   4.5434   8.7850   C.2       1 RES1   0.0000
   108 C10A    12.1613  10.0326   8.2478   C.ar      1 RES1   0.0000
   109 C11A    12.8006   9.6582   7.0694   C.ar      1 RES1   0.0000
   110 H5A     12.6702   8.7828   6.7229   H         1 RES1   0.0000
   111 C12A    13.6289  10.5502   6.3915   C.ar      1 RES1   0.0000
   112 H6A     14.0454  10.2903   5.5777   H         1 RES1   0.0000
   113 C13A    13.8432  11.8153   6.9066   C.ar      1 RES1   0.0000
   114 H7A     14.4061  12.4270   6.4463   H         1 RES1   0.0000
   115 C14A    13.2363  12.1892   8.0931   C.ar      1 RES1   0.0000
   116 H8A     13.3961  13.0534   8.4549   H         1 RES1   0.0000
   117 C15A    12.3978  11.3084   8.7548   C.ar      1 RES1   0.0000
   118 H9A     11.9782  11.5770   9.5637   H         1 RES1   0.0000
   119 C16A     9.6394   7.7448  11.9831   C.ar      1 RES1   0.0000
   120 C17A     9.3295   6.4171  12.2759   C.ar      1 RES1   0.0000
   121 H10A     9.4469   5.7467  11.6125   H         1 RES1   0.0000
   122 C18A     8.8509   6.0703  13.5288   C.ar      1 RES1   0.0000
   123 H11A     8.6378   5.1644  13.7184   H         1 RES1   0.0000
   124 C19A     8.6814   7.0365  14.5060   C.ar      1 RES1   0.0000
   125 H12A     8.3401   6.7945  15.3595   H         1 RES1   0.0000
   126 C20A     9.0084   8.3549  14.2393   C.ar      1 RES1   0.0000
   127 H13A     8.9049   9.0171  14.9129   H         1 RES1   0.0000
   128 C21A     9.4893   8.7081  12.9833   C.ar      1 RES1   0.0000
   129 H14A     9.7178   9.6121  12.8043   H         1 RES1   0.0000
   130 C22A     6.5370  10.5150   5.9101   C.ar      1 RES1   0.0000
   131 C23A     6.6495  10.1113   4.5846   C.ar      1 RES1   0.0000
   132 H15A     6.7647   9.1900   4.3832   H         1 RES1   0.0000
   133 C24A     6.5958  11.0374   3.5509   C.ar      1 RES1   0.0000
   134 H16A     6.6948  10.7497   2.6512   H         1 RES1   0.0000
   135 C25A     6.3988  12.3815   3.8288   C.ar      1 RES1   0.0000
   136 H17A     6.3508  13.0113   3.1199   H         1 RES1   0.0000
   137 C26A     6.2734  12.8032   5.1373   C.ar      1 RES1   0.0000
   138 H18A     6.1401  13.7235   5.3310   H         1 RES1   0.0000
   139 C27A     6.3426  11.8718   6.1763   C.ar      1 RES1   0.0000
   140 H19A     6.2563  12.1651   7.0760   H         1 RES1   0.0000
   141 C28A     5.4147   8.2244  10.2718   C.ar      1 RES1   0.0000
   142 C29A     6.0379   8.3183  11.5159   C.ar      1 RES1   0.0000
   143 H20A     6.9303   8.6384  11.5748   H         1 RES1   0.0000
   144 C30A     5.3604   7.9472  12.6658   C.ar      1 RES1   0.0000
   145 H21A     5.7935   8.0071  13.5094   H         1 RES1   0.0000
   146 C31A     4.0519   7.4872  12.5923   C.ar      1 RES1   0.0000
   147 H22A     3.5958   7.2221  13.3821   H         1 RES1   0.0000
   148 C32A     3.4140   7.4157  11.3675   C.ar      1 RES1   0.0000
   149 H23A     2.5129   7.1175  11.3177   H         1 RES1   0.0000
   150 C33A     4.0936   7.7813  10.2045   C.ar      1 RES1   0.0000
   151 H24A     3.6552   7.7286   9.3637   H         1 RES1   0.0000
   152 C34A     9.5164   3.9704   5.4675   C.ar      1 RES1   0.0000
   153 C35A     9.9687   4.7357   4.3936   C.ar      1 RES1   0.0000
   154 H25A     9.8959   5.6821   4.4365   H         1 RES1   0.0000
   155 C36A    10.5225   4.1498   3.2644   C.ar      1 RES1   0.0000
   156 H26A    10.8301   4.6969   2.5513   H         1 RES1   0.0000
   157 C37A    10.6292   2.7707   3.1712   C.ar      1 RES1   0.0000
   158 H27A    11.0201   2.3686   2.4045   H         1 RES1   0.0000
   159 C38A    10.1582   1.9905   4.2086   C.ar      1 RES1   0.0000
   160 H28A    10.2109   1.0443   4.1495   H         1 RES1   0.0000
   161 C39A     9.6105   2.5789   5.3316   C.ar      1 RES1   0.0000
   162 H29A     9.2875   2.0238   6.0321   H         1 RES1   0.0000
   163 C40A     7.5711   4.1336  10.1048   C.ar      1 RES1   0.0000
   164 C41A     6.4205   4.6863  10.6679   C.ar      1 RES1   0.0000
   165 H30A     5.9508   5.3718  10.2076   H         1 RES1   0.0000
   166 C42A     5.9597   4.2369  11.8982   C.ar      1 RES1   0.0000
   167 H31A     5.1887   4.6341  12.2863   H         1 RES1   0.0000
   168 C43A     6.6168   3.2134  12.5657   C.ar      1 RES1   0.0000
   169 H32A     6.2989   2.9113  13.4081   H         1 RES1   0.0000
   170 C44A     7.7347   2.6377  11.9978   C.ar      1 RES1   0.0000
   171 H33A     8.1769   1.9237  12.4421   H         1 RES1   0.0000
   172 C45A     8.2143   3.0974  10.7823   C.ar      1 RES1   0.0000
   173 H34A     8.9921   2.7025  10.4050   H         1 RES1   0.0000
@<TRIPOS>BOND
     1     1     2    1
     2     2     3    1
     3     3     8    1
     4     4     1    1
     5     5     4    1
     6     6     1    1
     7     7     6    1
     8     8     5    1
     9     9     8    1
    10    10     2    2
    11    11    10    1
    12    12    11    1
    13    13     3    1
    14    14     4    2
    15    15    14    1
    16    16    15    1
    17    17     5    1
    18    18     6    2
    19    19    18    1
    20    20    19    1
    21    21     7    1
    22    22    10    1
    23    23    22   ar
    24    24    23    1
    25    25    23   ar
    26    26    25    1
    27    27    25   ar
    28    28    27    1
    29    29    27   ar
    30    30    29    1
    31    31    22   ar
    32    32    31    1
    33    33    13    1
    34    34    33   ar
    35    35    34    1
    36    36    34   ar
    37    37    36    1
    38    38    36   ar
    39    39    38    1
    40    40    38   ar
    41    41    40    1
    42    42    33   ar
    43    43    42    1
    44    44    14    1
    45    45    44   ar
    46    46    45    1
    47    47    45   ar
    48    48    47    1
    49    49    47   ar
    50    50    49    1
    51    51    49   ar
    52    52    51    1
    53    53    44   ar
    54    54    53    1
    55    55    17    1
    56    56    55   ar
    57    57    56    1
    58    58    56   ar
    59    59    58    1
    60    60    58   ar
    61    61    60    1
    62    62    60   ar
    63    63    62    1
    64    64    55   ar
    65    65    64    1
    66    66    18    1
    67    67    66   ar
    68    68    67    1
    69    69    67   ar
    70    70    69    1
    71    71    69   ar
    72    72    71    1
    73    73    71   ar
    74    74    73    1
    75    75    66   ar
    76    76    75    1
    77    77    21    1
    78    78    77   ar
    79    79    78    1
    80    80    78   ar
    81    81    80    1
    82    82    80   ar
    83    83    82    1
    84    84    82   ar
    85    85    84    1
    86    86    77   ar
    87    87    86    1
    88    88     1    1
    89    89    88    1
    90    90     1    1
    91    91    90    1
    92    92     1    1
    93    93    92    1
    94    94    89    1
    95    95    94    1
    96    96    88    1
    97    97    96    2
    98    98    97    1
    99    99    89    2
   100   100    90    1
   101   101   100    2
   102   102   101    1
   103   103    91    2
   104   104    92    1
   105   105   104    2
   106   106   105    1
   107   107    93    2
   108   108    96    1
   109   109   108   ar
   110   110   109    1
   111   111   109   ar
   112   112   111    1
   113   113   111   ar
   114   114   113    1
   115   115   113   ar
   116   116   115    1
   117   117   108   ar
   118   118   117    1
   119   119    99    1
   120   120   119   ar
   121   121   120    1
   122   122   120   ar
   123   123   122    1
   124   124   122   ar
   125   125   124    1
   126   126   124   ar
   127   127   126    1
   128   128   119   ar
   129   129   128    1
   130   130   100    1
   131   131   130   ar
   132   132   131    1
   133   133   131   ar
   134   134   133    1
   135   135   133   ar
   136   136   135    1
   137   137   135   ar
   138   138   137    1
   139   139   130   ar
   140   140   139    1
   141   141   103    1
   142   142   141   ar
   143   143   142    1
   144   144   142   ar
   145   145   144    1
   146   146   144   ar
   147   147   146    1
   148   148   146   ar
   149   149   148    1
   150   150   141   ar
   151   151   150    1
   152   152   104    1
   153   153   152   ar
   154   154   153    1
   155   155   153   ar
   156   156   155    1
   157   157   155   ar
   158   158   157    1
   159   159   157   ar
   160   160   159    1
   161   161   152   ar
   162   162   161    1
   163   163   107    1
   164   164   163   ar
   165   165   164    1
   166   166   164   ar
   167   167   166    1
   168   168   166   ar
   169   169   168    1
   170   170   168   ar
   171   171   170    1
   172   172   163   ar
   173   173   172    1
   174     7     8    1
   175    11    13    2
   176    15    17    2
   177    19    21    2
   178    29    31   ar
   179    40    42   ar
   180    51    53   ar
   181    62    64   ar
   182    73    75   ar
   183    84    86   ar
   184    91    94    1
   185    93    94    1
   186    97    99    1
   187   101   103    1
   188   105   107    1
   189   115   117   ar
   190   126   128   ar
   191   137   139   ar
   192   148   150   ar
   193   159   161   ar
   194   170   172   ar
@<TRIPOS>SUBSTRUCTURE
     1 RES1        1 GROUP             0 ****  ****    0  
@<TRIPOS>CRYSIN
   10.8870   12.6456   14.2454   70.4240   71.3970   74.6550     2     1
