@<TRIPOS>MOLECULE
TENREN
   104   109     1     0     0
SMALL
NO_CHARGES
****
Generated from the CSD

@<TRIPOS>ATOM
     1 Fe1      0.7789   1.2504   4.5420   Fe        1 RES1   0.0000
     2 Cl1      1.6468   3.9822   7.0472   Cl        1 RES1   0.0000
     3 S1       0.4914   2.2270   2.4470   S.3       1 RES1   0.0000
     4 P1      -1.1539   0.2452   4.1014   P.3       1 RES1   0.0000
     5 P2       1.1287   0.4025   6.5406   P.3       1 RES1   0.0000
     6 P3       2.3905   0.0615   3.5176   P.3       1 RES1   0.0000
     7 Si1      1.5079   3.2376   5.0245   Si        1 RES1   0.0000
     8 N1       0.8544   4.8406   4.2957   N.pl3     1 RES1   0.0000
     9 N2       2.9122   4.2348   4.3066   N.pl3     1 RES1   0.0000
    10 C1      -1.2162   2.0937   2.0885   C.ar      1 RES1   0.0000
    11 C2      -2.0333   1.2762   2.8682   C.ar      1 RES1   0.0000
    12 C3      -3.3988   1.1738   2.5920   C.ar      1 RES1   0.0000
    13 H1      -3.9505   0.6187   3.1306   H         1 RES1   0.0000
    14 C4      -3.9531   1.8796   1.5347   C.ar      1 RES1   0.0000
    15 H2      -4.8834   1.8161   1.3529   H         1 RES1   0.0000
    16 C5      -3.1388   2.6796   0.7433   C.ar      1 RES1   0.0000
    17 H3      -3.5150   3.1552   0.0128   H         1 RES1   0.0000
    18 C6      -1.7873   2.7913   1.0070   C.ar      1 RES1   0.0000
    19 H4      -1.2413   3.3412   0.4568   H         1 RES1   0.0000
    20 C7      -2.4905   0.1048   5.3828   C.ar      1 RES1   0.0000
    21 C8      -3.2883  -1.0173   5.5898   C.ar      1 RES1   0.0000
    22 H5      -3.1310  -1.8076   5.0863   H         1 RES1   0.0000
    23 C9      -4.3168  -0.9914   6.5309   C.ar      1 RES1   0.0000
    24 H6      -4.8537  -1.7644   6.6636   H         1 RES1   0.0000
    25 C10     -4.5578   0.1438   7.2684   C.ar      1 RES1   0.0000
    26 H7      -5.2497   0.1512   7.9187   H         1 RES1   0.0000
    27 C11     -3.7902   1.2752   7.0589   C.ar      1 RES1   0.0000
    28 H8      -3.9646   2.0666   7.5532   H         1 RES1   0.0000
    29 C12     -2.7656   1.2517   6.1256   C.ar      1 RES1   0.0000
    30 H9      -2.2415   2.0317   5.9903   H         1 RES1   0.0000
    31 C13     -1.2535  -1.3947   3.2459   C.ar      1 RES1   0.0000
    32 C14     -1.0236  -2.5962   3.9276   C.ar      1 RES1   0.0000
    33 H10     -0.9153  -2.5828   4.8715   H         1 RES1   0.0000
    34 C15     -0.9509  -3.8033   3.2531   C.ar      1 RES1   0.0000
    35 H11     -0.8121  -4.6079   3.7382   H         1 RES1   0.0000
    36 C16     -1.0799  -3.8438   1.8731   C.ar      1 RES1   0.0000
    37 H12     -1.0188  -4.6704   1.4090   H         1 RES1   0.0000
    38 C17     -1.2976  -2.6696   1.1780   C.ar      1 RES1   0.0000
    39 H13     -1.3840  -2.6892   0.2324   H         1 RES1   0.0000
    40 C18     -1.3913  -1.4599   1.8551   C.ar      1 RES1   0.0000
    41 H14     -1.5519  -0.6626   1.3641   H         1 RES1   0.0000
    42 C19      0.0387   0.9342   7.9163   C.3       1 RES1   0.0000
    43 H15      0.0353   1.9122   7.9716   H         1 RES1   0.0000
    44 H16      0.3710   0.5614   8.7587   H         1 RES1   0.0000
    45 H17     -0.8723   0.6129   7.7536   H         1 RES1   0.0000
    46 C20      2.7493   0.6289   7.3796   C.3       1 RES1   0.0000
    47 H18      3.4546   0.2062   6.8463   H         1 RES1   0.0000
    48 H19      2.7178   0.2149   8.2682   H         1 RES1   0.0000
    49 H20      2.9384   1.5862   7.4715   H         1 RES1   0.0000
    50 C21      0.9380  -1.4167   6.7322   C.3       1 RES1   0.0000
    51 H21     -0.0080  -1.6573   6.6508   H         1 RES1   0.0000
    52 H22      1.2689  -1.6893   7.6142   H         1 RES1   0.0000
    53 H23      1.4532  -1.8742   6.0352   H         1 RES1   0.0000
    54 C22      1.9407  -1.4113   2.5285   C.3       1 RES1   0.0000
    55 H24      1.5339  -2.0851   3.1130   H         1 RES1   0.0000
    56 H25      2.7457  -1.7838   2.1127   H         1 RES1   0.0000
    57 H26      1.3024  -1.1545   1.8322   H         1 RES1   0.0000
    58 C23      3.3691   0.9337   2.2188   C.3       1 RES1   0.0000
    59 H27      2.8200   1.0437   1.4154   H         1 RES1   0.0000
    60 H28      4.1657   0.4068   2.0005   H         1 RES1   0.0000
    61 H29      3.6411   1.8146   2.5519   H         1 RES1   0.0000
    62 C24      3.7999  -0.6911   4.4367   C.3       1 RES1   0.0000
    63 H30      4.3191   0.0153   4.8747   H         1 RES1   0.0000
    64 H31      4.3745  -1.1782   3.8103   H         1 RES1   0.0000
    65 H32      3.4550  -1.3094   5.1135   H         1 RES1   0.0000
    66 C25     -0.4296   5.5763   4.1349   C.3       1 RES1   0.0000
    67 C26     -1.5294   4.6787   4.6921   C.3       1 RES1   0.0000
    68 H33     -1.5899   3.8626   4.1517   H         1 RES1   0.0000
    69 H34     -2.3861   5.1544   4.6631   H         1 RES1   0.0000
    70 H35     -1.3198   4.4420   5.6201   H         1 RES1   0.0000
    71 C27     -0.7263   5.8996   2.6661   C.3       1 RES1   0.0000
    72 H36     -0.1025   6.5871   2.3500   H         1 RES1   0.0000
    73 H37     -1.6442   6.2298   2.5824   H         1 RES1   0.0000
    74 H38     -0.6200   5.0886   2.1256   H         1 RES1   0.0000
    75 C28     -0.3761   6.8614   4.9612   C.3       1 RES1   0.0000
    76 H39     -0.1491   6.6433   5.8894   H         1 RES1   0.0000
    77 H40     -1.2490   7.3049   4.9340   H         1 RES1   0.0000
    78 H41      0.3056   7.4598   4.5909   H         1 RES1   0.0000
    79 C29      2.0680   5.1854   3.8789   C.2       1 RES1   0.0000
    80 C30      2.4265   6.3099   2.9706   C.ar      1 RES1   0.0000
    81 C31      2.4670   6.0254   1.6070   C.ar      1 RES1   0.0000
    82 H42      2.2437   5.1565   1.2952   H         1 RES1   0.0000
    83 C32      2.8340   7.0118   0.7090   C.ar      1 RES1   0.0000
    84 H43      2.8551   6.8199  -0.2212   H         1 RES1   0.0000
    85 C33      3.1694   8.2717   1.1574   C.ar      1 RES1   0.0000
    86 H44      3.4242   8.9432   0.5354   H         1 RES1   0.0000
    87 C34      3.1363   8.5618   2.5091   C.ar      1 RES1   0.0000
    88 H45      3.3726   9.4288   2.8164   H         1 RES1   0.0000
    89 C35      2.7568   7.5810   3.4180   C.ar      1 RES1   0.0000
    90 H46      2.7232   7.7810   4.3457   H         1 RES1   0.0000
    91 C36      4.3858   4.3078   4.4569   C.3       1 RES1   0.0000
    92 C37      4.7590   5.4507   5.4051   C.3       1 RES1   0.0000
    93 H47      4.5497   6.3091   4.9805   H         1 RES1   0.0000
    94 H48      5.7172   5.4104   5.6040   H         1 RES1   0.0000
    95 H49      4.2478   5.3655   6.2372   H         1 RES1   0.0000
    96 C38      4.8249   2.9906   5.0978   C.3       1 RES1   0.0000
    97 H50      4.4072   2.9013   5.9807   H         1 RES1   0.0000
    98 H51      5.7997   2.9844   5.1953   H         1 RES1   0.0000
    99 H52      4.5487   2.2427   4.5284   H         1 RES1   0.0000
   100 C39      5.0849   4.4756   3.1096   C.3       1 RES1   0.0000
   101 H53      4.7465   3.8049   2.4798   H         1 RES1   0.0000
   102 H54      6.0512   4.3562   3.2252   H         1 RES1   0.0000
   103 H55      4.9062   5.3726   2.7587   H         1 RES1   0.0000
   104 H56     -0.1750   2.2889   5.1953   H         1 RES1   0.0000
@<TRIPOS>BOND
     1     1     3    1
     2     2     7    1
     3     3    10    1
     4     4     1    1
     5     5     1    1
     6     6     1    1
     7     7     1    1
     8     8     7    1
     9     9     7    1
    10    10    11   ar
    11    11     4    1
    12    12    11   ar
    13    13    12    1
    14    14    12   ar
    15    15    14    1
    16    16    14   ar
    17    17    16    1
    18    18    10   ar
    19    19    18    1
    20    20     4    1
    21    21    20   ar
    22    22    21    1
    23    23    21   ar
    24    24    23    1
    25    25    23   ar
    26    26    25    1
    27    27    25   ar
    28    28    27    1
    29    29    20   ar
    30    30    29    1
    31    31     4    1
    32    32    31   ar
    33    33    32    1
    34    34    32   ar
    35    35    34    1
    36    36    34   ar
    37    37    36    1
    38    38    36   ar
    39    39    38    1
    40    40    31   ar
    41    41    40    1
    42    42     5    1
    43    43    42    1
    44    44    42    1
    45    45    42    1
    46    46     5    1
    47    47    46    1
    48    48    46    1
    49    49    46    1
    50    50     5    1
    51    51    50    1
    52    52    50    1
    53    53    50    1
    54    54     6    1
    55    55    54    1
    56    56    54    1
    57    57    54    1
    58    58     6    1
    59    59    58    1
    60    60    58    1
    61    61    58    1
    62    62     6    1
    63    63    62    1
    64    64    62    1
    65    65    62    1
    66    66     8    1
    67    67    66    1
    68    68    67    1
    69    69    67    1
    70    70    67    1
    71    71    66    1
    72    72    71    1
    73    73    71    1
    74    74    71    1
    75    75    66    1
    76    76    75    1
    77    77    75    1
    78    78    75    1
    79    79     8    2
    80    80    79    1
    81    81    80   ar
    82    82    81    1
    83    83    81   ar
    84    84    83    1
    85    85    83   ar
    86    86    85    1
    87    87    85   ar
    88    88    87    1
    89    89    80   ar
    90    90    89    1
    91    91     9    1
    92    92    91    1
    93    93    92    1
    94    94    92    1
    95    95    92    1
    96    96    91    1
    97    97    96    1
    98    98    96    1
    99    99    96    1
   100   100    91    1
   101   101   100    1
   102   102   100    1
   103   103   100    1
   104   104     1    1
   105     9    79    1
   106    16    18   ar
   107    27    29   ar
   108    38    40   ar
   109    87    89   ar
@<TRIPOS>SUBSTRUCTURE
     1 RES1        1 GROUP             0 ****  ****    0  
@<TRIPOS>CRYSIN
   11.1085   11.9056   16.4367  101.2010   92.8070  105.7480     2     1
