@<TRIPOS>MOLECULE
TEPVIW
   173   192     3     0     0
SMALL
USER_CHARGES
****
Generated from the CSD

@<TRIPOS>ATOM
     1 C1      15.4197   0.8810  11.5441   C.ar      1 RES1   0.0000
     2 H1      15.6853   0.5678  12.3788   H         1 RES1   0.0000
     3 C2      16.2390   1.7690  10.8793   C.ar      1 RES1   0.0000
     4 H2      17.0323   2.0557  11.2691   H         1 RES1   0.0000
     5 C3      15.8790   2.2151   9.6715   C.ar      1 RES1   0.0000
     6 H3      16.4278   2.8081   9.2076   H         1 RES1   0.0000
     7 C4      14.6798   1.7858   9.1093   C.ar      1 RES1   0.0000
     8 H4      14.4175   2.0879   8.2701   H         1 RES1   0.0000
     9 C5      13.8821   0.9048   9.8148   C.ar      1 RES1   0.0000
    10 C6      12.6129   0.3454   9.3195   C.ar      1 RES1   0.0000
    11 C7      12.0177   0.5496   8.0675   C.ar      1 RES1   0.0000
    12 H5      12.3869   1.1621   7.4737   H         1 RES1   0.0000
    13 C8      10.8982  -0.1510   7.7200   C.ar      1 RES1   0.0000
    14 H6      10.5096  -0.0168   6.8853   H         1 RES1   0.0000
    15 C9      10.3327  -1.0712   8.6159   C.ar      1 RES1   0.0000
    16 C10      9.2146  -1.9299   8.3552   C.ar      1 RES1   0.0000
    17 H7       8.7683  -1.8753   7.5406   H         1 RES1   0.0000
    18 C11      8.8054  -2.8235   9.2927   C.ar      1 RES1   0.0000
    19 H8       8.0837  -3.3759   9.0999   H         1 RES1   0.0000
    20 C12      9.4437  -2.9465  10.5593   C.ar      1 RES1   0.0000
    21 C13      9.1310  -3.9213  11.5393   C.ar      1 RES1   0.0000
    22 H9       8.4773  -4.5617  11.3719   H         1 RES1   0.0000
    23 C14      9.7837  -3.9129  12.7160   C.ar      1 RES1   0.0000
    24 H10      9.5740  -4.5534  13.3569   H         1 RES1   0.0000
    25 C15     10.7732  -2.9535  12.9989   C.ar      1 RES1   0.0000
    26 C16     10.4883  -2.0767  10.8785   C.ar      1 RES1   0.0000
    27 C17     10.9496  -1.1747   9.8683   C.ar      1 RES1   0.0000
    28 C18     11.3903  -2.9186  14.3334   C.ar      1 RES1   0.0000
    29 C19     12.1341  -4.0163  14.7871   C.ar      1 RES1   0.0000
    30 H11     12.2559  -4.7603  14.2418   H         1 RES1   0.0000
    31 C20     12.6852  -3.9786  16.0570   C.ar      1 RES1   0.0000
    32 H12     13.1949  -4.6974  16.3584   H         1 RES1   0.0000
    33 C21     12.4921  -2.8948  16.8845   C.ar      1 RES1   0.0000
    34 H13     12.8666  -2.8822  17.7359   H         1 RES1   0.0000
    35 C22     11.7397  -1.8320  16.4464   C.ar      1 RES1   0.0000
    36 H14     11.5965  -1.1048  17.0089   H         1 RES1   0.0000
    37 C23     11.1949  -1.8376  15.1743   C.ar      1 RES1   0.0000
    38 H15     10.6946  -1.1090  14.8828   H         1 RES1   0.0000
    39 C24     11.1551   1.7746  12.2425   C.ar      1 RES1   0.0000
    40 H16     10.7881   1.5509  11.4174   H         1 RES1   0.0000
    41 C25     10.7608   2.9535  12.8401   C.ar      1 RES1   0.0000
    42 H17     10.1506   3.5129  12.4170   H         1 RES1   0.0000
    43 C26     11.2847   3.2933  14.0737   C.ar      1 RES1   0.0000
    44 H18     11.0218   4.0779  14.4977   H         1 RES1   0.0000
    45 C27     12.1984   2.4557  14.6637   C.ar      1 RES1   0.0000
    46 H19     12.5628   2.6640  15.4926   H         1 RES1   0.0000
    47 C28     12.5703   1.2936  14.0029   C.ar      1 RES1   0.0000
    48 C29     13.5588   0.3454  14.5104   C.ar      1 RES1   0.0000
    49 C30     14.2508   0.4279  15.7346   C.ar      1 RES1   0.0000
    50 H20     14.1307   1.1621  16.2914   H         1 RES1   0.0000
    51 C31     15.0983  -0.5762  16.0996   C.ar      1 RES1   0.0000
    52 H21     15.5437  -0.5328  16.9156   H         1 RES1   0.0000
    53 C32     15.3036  -1.6781  15.2508   C.ar      1 RES1   0.0000
    54 C33     16.1245  -2.8081  15.5397   C.ar      1 RES1   0.0000
    55 H22     16.6323  -2.8193  16.3201   H         1 RES1   0.0000
    56 C34     16.1746  -3.8625  14.6964   C.ar      1 RES1   0.0000
    57 H23     16.6959  -4.5981  14.9234   H         1 RES1   0.0000
    58 C35     15.4445  -3.8793  13.4574   C.ar      1 RES1   0.0000
    59 C36     15.3790  -4.9771  12.5878   C.ar      1 RES1   0.0000
    60 H24     15.8100  -5.7742  12.7997   H         1 RES1   0.0000
    61 C37     14.6708  -4.8596  11.4221   C.ar      1 RES1   0.0000
    62 H25     14.6023  -5.5896  10.8506   H         1 RES1   0.0000
    63 C38     14.0447  -3.6458  11.0778   C.ar      1 RES1   0.0000
    64 C39     14.7094  -2.7396  13.0982   C.ar      1 RES1   0.0000
    65 C40     14.6102  -1.6753  14.0323   C.ar      1 RES1   0.0000
    66 C41     13.4648  -3.5073   9.7227   C.ar      1 RES1   0.0000
    67 C42     12.4605  -4.3758   9.2903   C.ar      1 RES1   0.0000
    68 H26     12.1124  -5.0134   9.8724   H         1 RES1   0.0000
    69 C43     11.9816  -4.2849   7.9869   C.ar      1 RES1   0.0000
    70 H27     11.2939  -4.8456   7.7056   H         1 RES1   0.0000
    71 C44     12.5161  -3.3801   7.1190   C.ar      1 RES1   0.0000
    72 H28     12.2024  -3.3353   6.2444   H         1 RES1   0.0000
    73 C45     13.5234  -2.5270   7.5339   C.ar      1 RES1   0.0000
    74 H29     13.8844  -1.9089   6.9403   H         1 RES1   0.0000
    75 C46     13.9965  -2.5955   8.8311   C.ar      1 RES1   0.0000
    76 H30     14.6767  -2.0236   9.1047   H         1 RES1   0.0000
    77 N1      14.2500   0.4475  11.0321   N.ar      1 RES1   0.0000
    78 N2      12.0651  -0.4999  10.1941   N.ar      1 RES1   0.0000
    79 N3      11.1495  -2.0545  12.0695   N.ar      1 RES1   0.0000
    80 N4      12.0432   0.9389  12.7968   N.ar      1 RES1   0.0000
    81 N5      13.7546  -0.6910  13.6906   N.ar      1 RES1   0.0000
    82 N6      14.0319  -2.5952  11.9170   N.ar      1 RES1   0.0000
    83 Fe1     12.8626  -0.7795  11.9473   Fe        1 RES1   2.0000
    84 C47      8.7445   3.5730   8.8873   C.ar      2 RES2   0.0000
    85 C48      8.4005   2.8389   7.7367   C.ar      2 RES2   0.0000
    86 H31      8.5845   3.2094   6.9045   H         2 RES2   0.0000
    87 C49      7.8061   1.6040   7.7846   C.ar      2 RES2   0.0000
    88 H32      7.5877   1.1649   6.9953   H         2 RES2   0.0000
    89 C50      7.5287   1.0083   8.9947   C.ar      2 RES2   0.0000
    90 H33      7.1225   0.1720   9.0282   H         2 RES2   0.0000
    91 C51      7.8583   1.6642  10.1474   C.ar      2 RES2   0.0000
    92 H34      7.6986   1.2670  10.9725   H         2 RES2   0.0000
    93 C52      8.4360   2.9325  10.0829   C.ar      2 RES2   0.0000
    94 H35      8.6260   3.3717  10.8793   H         2 RES2   0.0000
    95 C53      9.8412   5.6917  10.1981   C.ar      2 RES2   0.0000
    96 C54      8.9291   5.9196  11.2349   C.ar      2 RES2   0.0000
    97 H36      8.0247   5.7826  11.0634   H         2 RES2   0.0000
    98 C55      9.3009   6.3420  12.5051   C.ar      2 RES2   0.0000
    99 H37      8.6583   6.4552  13.1680   H         2 RES2   0.0000
   100 C56     10.6279   6.5909  12.7794   C.ar      2 RES2   0.0000
   101 H38     10.8900   6.8678  13.6272   H         2 RES2   0.0000
   102 C57     11.5626   6.4259  11.7811   C.ar      2 RES2   0.0000
   103 H39     12.4568   6.6133  11.9483   H         2 RES2   0.0000
   104 C58     11.1671   5.9742  10.5172   C.ar      2 RES2   0.0000
   105 H40     11.8168   5.8581   9.8628   H         2 RES2   0.0000
   106 C59      8.0660   6.0707   8.2559   C.ar      2 RES2   0.0000
   107 C60      8.2283   7.4342   8.0785   C.ar      2 RES2   0.0000
   108 H41      9.0672   7.8006   8.2390   H         2 RES2   0.0000
   109 C61      7.2061   8.2816   7.6722   C.ar      2 RES2   0.0000
   110 H42      7.3811   9.1822   7.5167   H         2 RES2   0.0000
   111 C62      5.9304   7.7894   7.5014   C.ar      2 RES2   0.0000
   112 H43      5.2313   8.3543   7.2632   H         2 RES2   0.0000
   113 C63      5.7127   6.4497   7.6908   C.ar      2 RES2   0.0000
   114 H44      4.8585   6.1014   7.5789   H         2 RES2   0.0000
   115 C64      6.7565   5.6106   8.0474   C.ar      2 RES2   0.0000
   116 H45      6.5809   4.7030   8.1529   H         2 RES2   0.0000
   117 C65     10.5423   5.1001   7.6528   C.ar      2 RES2   0.0000
   118 C66     10.6773   5.8959   6.6486   C.ar      2 RES2   0.0000
   119 H46     10.0215   6.5419   6.5170   H         2 RES2   0.0000
   120 C67     11.7525   5.8553   5.7374   C.ar      2 RES2   0.0000
   121 H47     11.7709   6.4734   5.0438   H         2 RES2   0.0000
   122 C68     12.6921   5.0106   5.8230   C.ar      2 RES2   0.0000
   123 H48     13.3825   4.9799   5.1993   H         2 RES2   0.0000
   124 C69     12.6354   4.1003   6.9403   C.ar      2 RES2   0.0000
   125 H49     13.3147   3.4821   7.0767   H         2 RES2   0.0000
   126 C70     11.5624   4.1562   7.8061   C.ar      2 RES2   0.0000
   127 H50     11.5172   3.5507   8.5092   H         2 RES2   0.0000
   128 B1       9.3108   5.0987   8.7491   B         2 RES2  -1.0000
   129 C71     16.0446   4.8233  13.5674   C.ar      3 RES3   0.0000
   130 C72     14.8237   4.3366  13.0802   C.ar      3 RES3   0.0000
   131 H51     14.2634   3.8863  13.6702   H         3 RES3   0.0000
   132 C73     14.4098   4.4862  11.7732   C.ar      3 RES3   0.0000
   133 H52     13.5893   4.1450  11.5011   H         3 RES3   0.0000
   134 C74     15.2188   5.1449  10.8699   C.ar      3 RES3   0.0000
   135 H53     14.9376   5.2750   9.9944   H         3 RES3   0.0000
   136 C75     16.4480   5.6050  11.2837   C.ar      3 RES3   0.0000
   137 H54     17.0132   6.0273  10.6760   H         3 RES3   0.0000
   138 C76     16.8504   5.4414  12.6122   C.ar      3 RES3   0.0000
   139 H55     17.6859   5.7574  12.8690   H         3 RES3   0.0000
   140 C77     17.0499   3.1465  15.4252   C.ar      3 RES3   0.0000
   141 C78     17.1838   2.1942  14.4219   C.ar      3 RES3   0.0000
   142 H56     16.8750   2.4011  13.5698   H         3 RES3   0.0000
   143 C79     17.7564   0.9495  14.6350   C.ar      3 RES3   0.0000
   144 H57     17.8377   0.3510  13.9285   H         3 RES3   0.0000
   145 C80     18.2051   0.5929  15.8901   C.ar      3 RES3   0.0000
   146 H58     18.5724  -0.2475  16.0403   H         3 RES3   0.0000
   147 C81     18.0980   1.5019  16.9106   C.ar      3 RES3   0.0000
   148 H59     18.3925   1.2754  17.7622   H         3 RES3   0.0000
   149 C82     17.5523   2.7577  16.6781   C.ar      3 RES3   0.0000
   150 H60     17.5175   3.3661  17.3796   H         3 RES3   0.0000
   151 C83     15.0451   4.8876  16.0195   C.ar      3 RES3   0.0000
   152 C84     14.1743   5.9392  15.6968   C.ar      3 RES3   0.0000
   153 H61     14.4048   6.5098  14.9975   H         3 RES3   0.0000
   154 C85     12.9889   6.1658  16.3734   C.ar      3 RES3   0.0000
   155 H62     12.4402   6.8734  16.1216   H         3 RES3   0.0000
   156 C86     12.6160   5.3435  17.4226   C.ar      3 RES3   0.0000
   157 H63     11.8252   5.4987  17.8866   H         3 RES3   0.0000
   158 C87     13.4331   4.2932  17.7663   C.ar      3 RES3   0.0000
   159 H64     13.1917   3.7269  18.4629   H         3 RES3   0.0000
   160 C88     14.6212   4.0737  17.0744   C.ar      3 RES3   0.0000
   161 H65     15.1555   3.3549  17.3245   H         3 RES3   0.0000
   162 C89     17.5801   5.7336  15.6253   C.ar      3 RES3   0.0000
   163 C90     17.2951   6.9755  16.1933   C.ar      3 RES3   0.0000
   164 H66     16.4054   7.2174  16.3153   H         3 RES3   0.0000
   165 C91     18.2883   7.8677  16.5839   C.ar      3 RES3   0.0000
   166 H67     18.0498   8.6886  16.9515   H         3 RES3   0.0000
   167 C92     19.6200   7.5516  16.4346   C.ar      3 RES3   0.0000
   168 H68     20.2821   8.1460  16.7051   H         3 RES3   0.0000
   169 C93     19.9507   6.3308  15.8726   C.ar      3 RES3   0.0000
   170 H69     20.8433   6.0972  15.7605   H         3 RES3   0.0000
   171 C94     18.9504   5.4540  15.4780   C.ar      3 RES3   0.0000
   172 H70     19.1988   4.6429  15.0980   H         3 RES3   0.0000
   173 B2      16.4342   4.6470  15.1609   B         3 RES3  -1.0000
@<TRIPOS>BOND
     1     1     2    1
     2     3     1   ar
     3     4     3    1
     4     5     3   ar
     5     6     5    1
     6     7     5   ar
     7     8     7    1
     8     9     7   ar
     9    10     9    1
    10    11    10   ar
    11    12    11    1
    12    13    11   ar
    13    14    13    1
    14    15    13   ar
    15    16    15   ar
    16    17    16    1
    17    18    16   ar
    18    19    18    1
    19    20    18   ar
    20    21    20   ar
    21    22    21    1
    22    23    21   ar
    23    24    23    1
    24    25    23   ar
    25    26    20   ar
    26    27    15   ar
    27    28    25    1
    28    29    28   ar
    29    30    29    1
    30    31    29   ar
    31    32    31    1
    32    33    31   ar
    33    34    33    1
    34    35    33   ar
    35    36    35    1
    36    37    28   ar
    37    38    37    1
    38    39    40    1
    39    41    39   ar
    40    42    41    1
    41    43    41   ar
    42    44    43    1
    43    45    43   ar
    44    46    45    1
    45    47    45   ar
    46    48    47    1
    47    49    48   ar
    48    50    49    1
    49    51    49   ar
    50    52    51    1
    51    53    51   ar
    52    54    53   ar
    53    55    54    1
    54    56    54   ar
    55    57    56    1
    56    58    56   ar
    57    59    58   ar
    58    60    59    1
    59    61    59   ar
    60    62    61    1
    61    63    61   ar
    62    64    58   ar
    63    65    53   ar
    64    66    63    1
    65    67    66   ar
    66    68    67    1
    67    69    67   ar
    68    70    69    1
    69    71    69   ar
    70    72    71    1
    71    73    71   ar
    72    74    73    1
    73    75    66   ar
    74    76    75    1
    75    77     1   ar
    76    78    10   ar
    77    79    25   ar
    78    80    39   ar
    79    81    48   ar
    80    82    63   ar
    81    83    77    1
    82     9    77   ar
    83    26    27   ar
    84    26    79   ar
    85    27    78   ar
    86    35    37   ar
    87    47    80   ar
    88    64    65   ar
    89    64    82   ar
    90    65    81   ar
    91    73    75   ar
    92    78    83    1
    93    79    83    1
    94    80    83    1
    95    81    83    1
    96    82    83    1
    97    84    85   ar
    98    85    86    1
    99    87    85   ar
   100    88    87    1
   101    89    87   ar
   102    90    89    1
   103    91    89   ar
   104    92    91    1
   105    93    84   ar
   106    94    93    1
   107    95    96   ar
   108    96    97    1
   109    98    96   ar
   110    99    98    1
   111   100    98   ar
   112   101   100    1
   113   102   100   ar
   114   103   102    1
   115   104    95   ar
   116   105   104    1
   117   106   107   ar
   118   107   108    1
   119   109   107   ar
   120   110   109    1
   121   111   109   ar
   122   112   111    1
   123   113   111   ar
   124   114   113    1
   125   115   106   ar
   126   116   115    1
   127   117   118   ar
   128   118   119    1
   129   120   118   ar
   130   121   120    1
   131   122   120   ar
   132   123   122    1
   133   124   122   ar
   134   125   124    1
   135   126   117   ar
   136   127   126    1
   137   128    84    1
   138    91    93   ar
   139    95   128    1
   140   102   104   ar
   141   106   128    1
   142   113   115   ar
   143   117   128    1
   144   124   126   ar
   145   129   130   ar
   146   130   131    1
   147   132   130   ar
   148   133   132    1
   149   134   132   ar
   150   135   134    1
   151   136   134   ar
   152   137   136    1
   153   138   129   ar
   154   139   138    1
   155   140   141   ar
   156   141   142    1
   157   143   141   ar
   158   144   143    1
   159   145   143   ar
   160   146   145    1
   161   147   145   ar
   162   148   147    1
   163   149   140   ar
   164   150   149    1
   165   151   152   ar
   166   152   153    1
   167   154   152   ar
   168   155   154    1
   169   156   154   ar
   170   157   156    1
   171   158   156   ar
   172   159   158    1
   173   160   151   ar
   174   161   160    1
   175   162   163   ar
   176   163   164    1
   177   165   163   ar
   178   166   165    1
   179   167   165   ar
   180   168   167    1
   181   169   167   ar
   182   170   169    1
   183   171   162   ar
   184   172   171    1
   185   173   129    1
   186   136   138   ar
   187   140   173    1
   188   147   149   ar
   189   151   173    1
   190   158   160   ar
   191   162   173    1
   192   169   171   ar
@<TRIPOS>SUBSTRUCTURE
     1 RES1        1 GROUP             0 ****  ****    0  
     2 RES2       84 GROUP             0 ****  ****    0  
     3 RES3      129 GROUP             0 ****  ****    0  
@<TRIPOS>CRYSIN
   20.5424   13.9845   24.5450   90.0000  103.0020   90.0000    14     1
