@<TRIPOS>MOLECULE
TEQJEI
   100   107     1     0     0
SMALL
NO_CHARGES
****
Generated from the CSD

@<TRIPOS>ATOM
     1 Fe1      9.1129   6.8817   6.5573   Fe        1 RES1   0.0000
     2 P1      10.6249   8.0601   5.3003   P.3       1 RES1   0.0000
     3 P2       8.1014   5.1129   7.6308   P.3       1 RES1   0.0000
     4 O1       8.2861   5.9204   5.0224   O.3       1 RES1   0.0000
     5 O2       7.0981   8.9581   6.9027   O.2       1 RES1   0.0000
     6 N1      10.5630   5.5541   6.4102   N.2       1 RES1   0.0000
     7 O3      10.3147   8.0131   8.9625   O.2       1 RES1   0.0000
     8 C1      10.4623   4.2213   6.6929   C.2       1 RES1   0.0000
     9 C2       8.1807   5.0023   9.4720   C.3       1 RES1   0.0000
    10 H1       7.7234   4.1526   9.7340   H         1 RES1   0.0000
    11 C3      11.8736   5.8263   6.1134   C.2       1 RES1   0.0000
    12 C4      10.5142   7.8668   3.4621   C.3       1 RES1   0.0000
    13 H2       9.6058   8.1811   3.1865   H         1 RES1   0.0000
    14 C5       9.7873  10.7496   5.0402   C.3       1 RES1   0.0000
    15 H3       9.5771  10.5073   4.1036   H         1 RES1   0.0000
    16 H4       8.9778  10.5904   5.5873   H         1 RES1   0.0000
    17 C6       7.3959   6.1521  10.1171   C.3       1 RES1   0.0000
    18 H5       7.7808   7.0152   9.8223   H         1 RES1   0.0000
    19 H6       6.4554   6.1174   9.8098   H         1 RES1   0.0000
    20 C7      10.9338   9.8646   5.5527   C.3       1 RES1   0.0000
    21 H7      11.7316  10.0914   4.9943   H         1 RES1   0.0000
    22 C8       5.3588   5.7537   7.0711   C.3       1 RES1   0.0000
    23 H8       5.7008   6.4757   6.4863   H         1 RES1   0.0000
    24 H9       5.2118   6.1311   7.9744   H         1 RES1   0.0000
    25 C9       4.0337   5.2178   6.5114   C.3       1 RES1   0.0000
    26 H10      3.3667   5.9493   6.4969   H         1 RES1   0.0000
    27 H11      4.1726   4.9139   5.5796   H         1 RES1   0.0000
    28 C10     12.2094   7.2400   5.7653   C.3       1 RES1   0.0000
    29 H12     12.8469   7.2669   5.0084   H         1 RES1   0.0000
    30 H13     12.6203   7.6980   6.5408   H         1 RES1   0.0000
    31 C11      7.8430   8.1113   6.7180   C.1       1 RES1   0.0000
    32 C12      9.6165   4.9316  10.0277   C.3       1 RES1   0.0000
    33 H14     10.0757   4.1370   9.6563   H         1 RES1   0.0000
    34 H15     10.1197   5.7364   9.7460   H         1 RES1   0.0000
    35 C13      4.5129   2.9317   7.4203   C.3       1 RES1   0.0000
    36 H16      4.6592   2.5537   6.5171   H         1 RES1   0.0000
    37 H17      4.1642   2.2106   8.0022   H         1 RES1   0.0000
    38 C14     11.2841  10.2853   6.9916   C.3       1 RES1   0.0000
    39 H18     10.4935  10.1654   7.5753   H         1 RES1   0.0000
    40 H19     12.0130   9.7119   7.3378   H         1 RES1   0.0000
    41 C15     11.5402   8.7117   2.6898   C.3       1 RES1   0.0000
    42 H20     12.4549   8.4383   2.9518   H         1 RES1   0.0000
    43 H21     11.4260   9.6658   2.9281   H         1 RES1   0.0000
    44 C16     11.7006   3.6293   6.5729   C.2       1 RES1   0.0000
    45 H22     11.9092   2.7130   6.7125   H         1 RES1   0.0000
    46 C17      9.0999   3.6844   7.0164   C.3       1 RES1   0.0000
    47 H23      9.1617   2.9821   7.7114   H         1 RES1   0.0000
    48 H24      8.6823   3.2935   6.2083   H         1 RES1   0.0000
    49 C18     10.6332   6.4010   3.0361   C.3       1 RES1   0.0000
    50 H25     11.5339   6.0601   3.2653   H         1 RES1   0.0000
    51 H26      9.9645   5.8576   3.5237   H         1 RES1   0.0000
    52 C19      6.3834   4.6210   7.1453   C.3       1 RES1   0.0000
    53 H27      6.4604   4.2700   6.2122   H         1 RES1   0.0000
    54 C20     11.3720   8.5415   1.1711   C.3       1 RES1   0.0000
    55 H28     10.5040   8.9294   0.8951   H         1 RES1   0.0000
    56 H29     12.0895   9.0416   0.7070   H         1 RES1   0.0000
    57 C21     12.6049   4.6616   6.1983   C.2       1 RES1   0.0000
    58 H30     13.5363   4.5661   6.0372   H         1 RES1   0.0000
    59 C22      9.6037   4.8460  11.5620   C.3       1 RES1   0.0000
    60 H31      9.1669   4.0022  11.8404   H         1 RES1   0.0000
    61 H32     10.5346   4.8342  11.8984   H         1 RES1   0.0000
    62 C23      7.4292   6.0814  11.6468   C.3       1 RES1   0.0000
    63 H33      6.9705   6.8748  12.0213   H         1 RES1   0.0000
    64 H34      6.9396   5.2753  11.9480   H         1 RES1   0.0000
    65 C24      3.4904   4.0608   7.3404   C.3       1 RES1   0.0000
    66 H35      2.6555   3.7227   6.9296   H         1 RES1   0.0000
    67 H36      3.2769   4.3791   8.2532   H         1 RES1   0.0000
    68 C25     10.1674  12.2311   5.1107   C.3       1 RES1   0.0000
    69 H37     10.9020  12.4081   4.4711   H         1 RES1   0.0000
    70 H38      9.3890  12.7788   4.8381   H         1 RES1   0.0000
    71 C26      6.6974   5.1740   3.4688   C.ar      1 RES1   0.0000
    72 H39      6.9679   4.2803   3.6435   H         1 RES1   0.0000
    73 C27      5.8460   3.4448   7.9831   C.3       1 RES1   0.0000
    74 H40      6.5089   2.7095   7.9819   H         1 RES1   0.0000
    75 H41      5.7166   3.7392   8.9195   H         1 RES1   0.0000
    76 C28      7.3268   6.2322   4.1546   C.ar      1 RES1   0.0000
    77 C29      8.8577   6.0296  12.1749   C.3       1 RES1   0.0000
    78 H42      8.8445   5.9398  13.1608   H         1 RES1   0.0000
    79 H43      9.3265   6.8715  11.9483   H         1 RES1   0.0000
    80 C30     10.6082  12.6507   6.5042   C.3       1 RES1   0.0000
    81 H44      9.8362  12.6043   7.1222   H         1 RES1   0.0000
    82 H45     10.9265  13.5879   6.4809   H         1 RES1   0.0000
    83 C31     11.7246  11.7479   7.0176   C.3       1 RES1   0.0000
    84 H46     11.9604  12.0065   7.9437   H         1 RES1   0.0000
    85 H47     12.5292  11.8617   6.4521   H         1 RES1   0.0000
    86 C32      6.9041   7.5344   3.8409   C.ar      1 RES1   0.0000
    87 H48      7.3173   8.2770   4.2656   H         1 RES1   0.0000
    88 C33      5.2724   6.7065   2.2571   C.ar      1 RES1   0.0000
    89 H49      4.5821   6.8679   1.6248   H         1 RES1   0.0000
    90 C34      5.8894   7.7498   2.9174   C.ar      1 RES1   0.0000
    91 H50      5.6121   8.6400   2.7352   H         1 RES1   0.0000
    92 C35      9.8560   7.5466   8.0135   C.1       1 RES1   0.0000
    93 C36     10.4024   6.2707   1.5324   C.3       1 RES1   0.0000
    94 H51      9.4899   6.5843   1.3112   H         1 RES1   0.0000
    95 H52     10.4709   5.3184   1.2704   H         1 RES1   0.0000
    96 C37      5.6922   5.4110   2.5451   C.ar      1 RES1   0.0000
    97 H53      5.2825   4.6769   2.1014   H         1 RES1   0.0000
    98 C38     11.4241   7.0881   0.7457   C.3       1 RES1   0.0000
    99 H54     12.3325   6.7275   0.9058   H         1 RES1   0.0000
   100 H55     11.2315   7.0181  -0.2228   H         1 RES1   0.0000
@<TRIPOS>BOND
     1     1     2    1
     2     2    12    1
     3     3     1    1
     4     4     1    1
     5     5    31    3
     6     6     1    1
     7     7    92    3
     8     8     6    1
     9     9     3    1
    10    10     9    1
    11    11     6    1
    12    12    13    1
    13    14    15    1
    14    16    14    1
    15    17     9    1
    16    18    17    1
    17    19    17    1
    18    20     2    1
    19    21    20    1
    20    22    23    1
    21    24    22    1
    22    25    22    1
    23    26    25    1
    24    27    25    1
    25    28     2    1
    26    29    28    1
    27    30    28    1
    28    31     1    1
    29    32     9    1
    30    33    32    1
    31    34    32    1
    32    35    36    1
    33    37    35    1
    34    38    20    1
    35    39    38    1
    36    40    38    1
    37    41    12    1
    38    42    41    1
    39    43    41    1
    40    44     8    2
    41    45    44    1
    42    46     3    1
    43    47    46    1
    44    48    46    1
    45    49    12    1
    46    50    49    1
    47    51    49    1
    48    52     3    1
    49    53    52    1
    50    54    41    1
    51    55    54    1
    52    56    54    1
    53    57    11    2
    54    58    57    1
    55    59    32    1
    56    60    59    1
    57    61    59    1
    58    62    17    1
    59    63    62    1
    60    64    62    1
    61    65    25    1
    62    66    65    1
    63    67    65    1
    64    68    14    1
    65    69    68    1
    66    70    68    1
    67    71    72    1
    68    73    35    1
    69    74    73    1
    70    75    73    1
    71    76     4    1
    72    77    59    1
    73    78    77    1
    74    79    77    1
    75    80    68    1
    76    81    80    1
    77    82    80    1
    78    83    38    1
    79    84    83    1
    80    85    83    1
    81    86    76   ar
    82    87    86    1
    83    88    89    1
    84    90    86   ar
    85    91    90    1
    86    92     1    1
    87    93    49    1
    88    94    93    1
    89    95    93    1
    90    96    71   ar
    91    97    96    1
    92    98    54    1
    93    99    98    1
    94   100    98    1
    95     8    46    1
    96    11    28    1
    97    14    20    1
    98    22    52    1
    99    35    65    1
   100    44    57    1
   101    52    73    1
   102    62    77    1
   103    71    76   ar
   104    80    83    1
   105    88    90   ar
   106    88    96   ar
   107    93    98    1
@<TRIPOS>SUBSTRUCTURE
     1 RES1        1 GROUP             0 ****  ****    0  
@<TRIPOS>CRYSIN
   13.6115   14.9766   17.4450   90.0000   98.5190   90.0000    14     1
