@<TRIPOS>MOLECULE
TEQJAE
   116   126     1     0     0
SMALL
NO_CHARGES
****
Generated from the CSD

@<TRIPOS>ATOM
     1 Fe1     -1.0285   8.6164   3.7575   Fe        1 RES1   0.0000
     2 P1      -1.2905   6.4326   4.4367   P.3       1 RES1   0.0000
     3 P2      -0.2085  10.4847   2.7158   P.3       1 RES1   0.0000
     4 O1       0.2189   8.7209   5.3112   O.3       1 RES1   0.0000
     5 N1      -2.3450   9.5133   4.8608   N.ar      1 RES1   0.0000
     6 N2      -2.5052   8.5696   2.5111   N.ar      1 RES1   0.0000
     7 N3       0.2274   7.7450   2.5476   N.2       1 RES1   0.0000
     8 C1      -3.6774   9.1170   2.9590   C.ar      1 RES1   0.0000
     9 C2      -3.5754   9.6787   4.2997   C.ar      1 RES1   0.0000
    10 C3      -2.5138   8.0215   1.2665   C.ar      1 RES1   0.0000
    11 H1      -1.7050   7.6535   0.9290   H         1 RES1   0.0000
    12 C4       2.5092   8.1492   4.7304   C.ar      1 RES1   0.0000
    13 H2       2.3494   8.2109   3.7961   H         1 RES1   0.0000
    14 C5       1.4513   8.3854   5.6419   C.ar      1 RES1   0.0000
    15 C6      -2.1486  10.0104   6.1079   C.ar      1 RES1   0.0000
    16 H3      -1.3000   9.8891   6.5182   H         1 RES1   0.0000
    17 C7       1.3225  11.2540   3.4019   C.3       1 RES1   0.0000
    18 H4       1.9718  10.4967   3.4772   H         1 RES1   0.0000
    19 C8      -3.1273  10.6832   6.8022   C.ar      1 RES1   0.0000
    20 H5      -2.9455  11.0352   7.6656   H         1 RES1   0.0000
    21 C9      -1.3629   6.1175   6.2519   C.3       1 RES1   0.0000
    22 H6      -0.6357   6.6898   6.6317   H         1 RES1   0.0000
    23 C10      0.7635   6.4937   2.7086   C.2       1 RES1   0.0000
    24 C11      1.7593   8.2534   7.0143   C.ar      1 RES1   0.0000
    25 H7       1.0696   8.3758   7.6560   H         1 RES1   0.0000
    26 C12     -4.3845  10.8429   6.2292   C.ar      1 RES1   0.0000
    27 H8      -5.0781  11.2930   6.6982   H         1 RES1   0.0000
    28 C13      0.8493   8.3426   1.4843   C.2       1 RES1   0.0000
    29 C14     -3.6368   7.9726   0.4727   C.ar      1 RES1   0.0000
    30 H9      -3.5961   7.5777  -0.3901   H         1 RES1   0.0000
    31 C15     -4.8434   9.0888   2.1922   C.ar      1 RES1   0.0000
    32 H10     -5.6439   9.4695   2.5322   H         1 RES1   0.0000
    33 C16      3.7803   7.8292   5.1933   C.ar      1 RES1   0.0000
    34 H11      4.4711   7.6642   4.5628   H         1 RES1   0.0000
    35 C17     -2.5246   5.4303   3.4854   C.3       1 RES1   0.0000
    36 H12     -2.4675   5.7804   2.5506   H         1 RES1   0.0000
    37 C18     -4.8331   8.5090   0.9430   C.ar      1 RES1   0.0000
    38 H13     -5.6224   8.4744   0.4157   H         1 RES1   0.0000
    39 C19      0.3943   9.7278   1.1379   C.3       1 RES1   0.0000
    40 H14     -0.3339   9.6955   0.4684   H         1 RES1   0.0000
    41 H15      1.1447  10.2553   0.7650   H         1 RES1   0.0000
    42 C20     -1.4237  11.7874   2.2042   C.3       1 RES1   0.0000
    43 H16     -2.2481  11.2842   1.9443   H         1 RES1   0.0000
    44 C21      3.3890  12.9949   4.5438   C.3       1 RES1   0.0000
    45 H17      4.3096  13.0596   4.9015   H         1 RES1   0.0000
    46 H18      2.9861  13.8991   4.5773   H         1 RES1   0.0000
    47 C22     -4.6033  10.3370   4.9682   C.ar      1 RES1   0.0000
    48 H19     -5.4531  10.4354   4.5555   H         1 RES1   0.0000
    49 C23     -1.0357   4.7122   6.7464   C.3       1 RES1   0.0000
    50 H20     -0.2265   4.3743   6.2873   H         1 RES1   0.0000
    51 H21     -1.7871   4.1010   6.5432   H         1 RES1   0.0000
    52 C24      2.0395  12.2897   2.5353   C.3       1 RES1   0.0000
    53 H22      1.5318  13.1389   2.5390   H         1 RES1   0.0000
    54 H23      2.0944  11.9648   1.6016   H         1 RES1   0.0000
    55 C25      2.5777  12.0557   5.4218   C.3       1 RES1   0.0000
    56 H24      2.4811  12.4528   6.3235   H         1 RES1   0.0000
    57 H25      3.0625  11.1976   5.5172   H         1 RES1   0.0000
    58 C26      1.1827  11.7863   4.8354   C.3       1 RES1   0.0000
    59 H26      0.7074  11.1221   5.3944   H         1 RES1   0.0000
    60 H27      0.6545  12.6233   4.8315   H         1 RES1   0.0000
    61 C27     -3.9697   5.7285   3.9244   C.3       1 RES1   0.0000
    62 H28     -4.1328   5.3212   4.8119   H         1 RES1   0.0000
    63 H29     -4.0903   6.7069   4.0100   H         1 RES1   0.0000
    64 C28     -0.7961   4.7588   8.2578   C.3       1 RES1   0.0000
    65 H30     -0.5899   3.8471   8.5856   H         1 RES1   0.0000
    66 H31     -0.0151   5.3362   8.4495   H         1 RES1   0.0000
    67 C29      1.7329   6.2960   1.7380   C.2       1 RES1   0.0000
    68 H32      2.2645   5.5176   1.6217   H         1 RES1   0.0000
    69 C30     -2.6438   6.6174   6.9474   C.3       1 RES1   0.0000
    70 H33     -2.8687   7.5239   6.6194   H         1 RES1   0.0000
    71 H34     -3.3979   6.0143   6.7285   H         1 RES1   0.0000
    72 C31      3.4477  12.5244   3.0850   C.3       1 RES1   0.0000
    73 H35      3.9068  13.2084   2.5356   H         1 RES1   0.0000
    74 H36      3.9690  11.6851   3.0294   H         1 RES1   0.0000
    75 C32     -3.3345   3.4054   2.3067   C.3       1 RES1   0.0000
    76 H37     -3.1442   3.8213   1.4286   H         1 RES1   0.0000
    77 H38     -3.2174   2.4268   2.2118   H         1 RES1   0.0000
    78 C33      1.7837   7.4703   0.9545   C.2       1 RES1   0.0000
    79 H39      2.3487   7.6297   0.2079   H         1 RES1   0.0000
    80 C34      0.3403   5.7306   3.9207   C.3       1 RES1   0.0000
    81 H40      1.0060   5.8352   4.6456   H         1 RES1   0.0000
    82 H41      0.2503   4.7679   3.7094   H         1 RES1   0.0000
    83 C35      4.0696   7.7449   6.5385   C.ar      1 RES1   0.0000
    84 H42      4.9510   7.5522   6.8351   H         1 RES1   0.0000
    85 C36      3.0402   7.9483   7.4508   C.ar      1 RES1   0.0000
    86 H43      3.2152   7.8788   8.3819   H         1 RES1   0.0000
    87 C37     -2.3345   3.9357   3.3452   C.3       1 RES1   0.0000
    88 H44     -2.4869   3.4925   4.2165   H         1 RES1   0.0000
    89 H45     -1.4093   3.7392   3.0528   H         1 RES1   0.0000
    90 C38     -1.8594  12.6935   3.3612   C.3       1 RES1   0.0000
    91 H46     -2.0918  12.1377   4.1468   H         1 RES1   0.0000
    92 H47     -1.1092  13.2870   3.6163   H         1 RES1   0.0000
    93 C39     -4.7778   3.7033   2.7031   C.3       1 RES1   0.0000
    94 H48     -5.3878   3.3912   1.9885   H         1 RES1   0.0000
    95 H49     -5.0008   3.2120   3.5330   H         1 RES1   0.0000
    96 C40     -2.0135   5.2957   8.9915   C.3       1 RES1   0.0000
    97 H50     -2.7634   4.6574   8.8886   H         1 RES1   0.0000
    98 H51     -1.8061   5.3684   9.9568   H         1 RES1   0.0000
    99 C41     -1.0787  12.6420   0.9810   C.3       1 RES1   0.0000
   100 H52     -0.8198  12.0542   0.2277   H         1 RES1   0.0000
   101 H53     -0.3089  13.2280   1.1925   H         1 RES1   0.0000
   102 C42     -2.4394   6.6556   8.4677   C.3       1 RES1   0.0000
   103 H54     -1.7457   7.3261   8.6902   H         1 RES1   0.0000
   104 H55     -3.2827   6.9288   8.9074   H         1 RES1   0.0000
   105 C43     -2.2816  13.5011   0.5731   C.3       1 RES1   0.0000
   106 H56     -2.0277  14.0784  -0.1907   H         1 RES1   0.0000
   107 H57     -3.0197  12.9115   0.2769   H         1 RES1   0.0000
   108 C44     -4.9799   5.1802   2.9253   C.3       1 RES1   0.0000
   109 H58     -5.8968   5.3404   3.2634   H         1 RES1   0.0000
   110 H59     -4.8837   5.6592   2.0639   H         1 RES1   0.0000
   111 C45     -2.7669  14.3761   1.7270   C.3       1 RES1   0.0000
   112 H60     -2.0730  15.0481   1.9444   H         1 RES1   0.0000
   113 H61     -3.5854  14.8604   1.4511   H         1 RES1   0.0000
   114 C46     -3.0660  13.5416   2.9621   C.3       1 RES1   0.0000
   115 H62     -3.8383  12.9491   2.7799   H         1 RES1   0.0000
   116 H63     -3.3102  14.1397   3.7126   H         1 RES1   0.0000
@<TRIPOS>BOND
     1     1     2    1
     2     2    21    1
     3     3     1    1
     4     4     1    1
     5     5     1    1
     6     6     1    1
     7     7     1    1
     8     8     6   ar
     9     9     5   ar
    10    10     6   ar
    11    11    10    1
    12    12    13    1
    13    14     4    1
    14    15     5   ar
    15    16    15    1
    16    17     3    1
    17    18    17    1
    18    19    15   ar
    19    20    19    1
    20    21    22    1
    21    23     7    1
    22    24    14   ar
    23    25    24    1
    24    26    19   ar
    25    27    26    1
    26    28     7    1
    27    29    10   ar
    28    30    29    1
    29    31     8   ar
    30    32    31    1
    31    33    12   ar
    32    34    33    1
    33    35     2    1
    34    36    35    1
    35    37    29   ar
    36    38    37    1
    37    39     3    1
    38    40    39    1
    39    41    39    1
    40    42     3    1
    41    43    42    1
    42    44    45    1
    43    46    44    1
    44    47     9   ar
    45    48    47    1
    46    49    21    1
    47    50    49    1
    48    51    49    1
    49    52    17    1
    50    53    52    1
    51    54    52    1
    52    55    44    1
    53    56    55    1
    54    57    55    1
    55    58    17    1
    56    59    58    1
    57    60    58    1
    58    61    35    1
    59    62    61    1
    60    63    61    1
    61    64    49    1
    62    65    64    1
    63    66    64    1
    64    67    23    2
    65    68    67    1
    66    69    21    1
    67    70    69    1
    68    71    69    1
    69    72    44    1
    70    73    72    1
    71    74    72    1
    72    75    76    1
    73    77    75    1
    74    78    28    2
    75    79    78    1
    76    80     2    1
    77    81    80    1
    78    82    80    1
    79    83    33   ar
    80    84    83    1
    81    85    24   ar
    82    86    85    1
    83    87    35    1
    84    88    87    1
    85    89    87    1
    86    90    42    1
    87    91    90    1
    88    92    90    1
    89    93    75    1
    90    94    93    1
    91    95    93    1
    92    96    64    1
    93    97    96    1
    94    98    96    1
    95    99    42    1
    96   100    99    1
    97   101    99    1
    98   102    69    1
    99   103   102    1
   100   104   102    1
   101   105    99    1
   102   106   105    1
   103   107   105    1
   104   108    61    1
   105   109   108    1
   106   110   108    1
   107   111   105    1
   108   112   111    1
   109   113   111    1
   110   114    90    1
   111   115   114    1
   112   116   114    1
   113     8     9    1
   114    12    14   ar
   115    23    80    1
   116    26    47   ar
   117    28    39    1
   118    31    37   ar
   119    52    72    1
   120    55    58    1
   121    67    78    1
   122    75    87    1
   123    83    85   ar
   124    93   108    1
   125    96   102    1
   126   111   114    1
@<TRIPOS>SUBSTRUCTURE
     1 RES1        1 GROUP             0 ****  ****    0  
@<TRIPOS>CRYSIN
   10.5389   13.3995   16.3112   96.9410  105.4270  108.4270     2     1
