@<TRIPOS>MOLECULE
TEQTEO
   122   128     5     0     0
SMALL
USER_CHARGES
****
Generated from the CSD

@<TRIPOS>ATOM
     1 Fe1     -0.2999   3.4414   3.3455   Fe        1 RES1   0.0000
     2 Cl1     -0.1761   4.7809   5.3164   Cl        1 RES1   0.0000
     3 Cl2      1.3677   4.5611   2.2274   Cl        1 RES1   0.0000
     4 O1      -1.7436   4.5130   2.7070   O.3       1 RES1   0.0000
     5 C1      -2.9881   4.1123   2.4855   C.ar      1 RES1   0.0000
     6 C2      -3.6483   4.5222   1.2580   C.ar      1 RES1   0.0000
     7 C3      -4.9766   4.1810   1.0408   C.ar      1 RES1   0.0000
     8 C4      -5.6814   3.4139   1.9548   C.ar      1 RES1   0.0000
     9 C5      -5.0488   3.0224   3.1327   C.ar      1 RES1   0.0000
    10 C6      -3.7057   3.3178   3.3601   C.ar      1 RES1   0.0000
    11 C7      -7.1349   3.0728   1.7027   C.3       1 RES1   0.0000
    12 C8      -3.0682   2.8461   4.6488   C.3       1 RES1   0.0000
    13 N1      -1.7919   2.0493   4.4112   N.3       1 RES1   0.0000
    14 C9      -2.8278   5.3052   0.2916   C.3       1 RES1   0.0000
    15 N2      -2.4475   6.7134   0.7507   N.3       1 RES1   1.0000
    16 N3      -0.7851   2.0722   1.8339   N.2       1 RES1   0.0000
    17 N4      -2.1846   0.4511   1.1137   N.pl3     1 RES1   0.0000
    18 C10     -0.6813   1.9783   0.4242   C.ar      1 RES1   0.0000
    19 C11      0.0133   2.7133  -0.4767   C.ar      1 RES1   0.0000
    20 C12     -0.1107   2.4225  -1.8295   C.ar      1 RES1   0.0000
    21 C13     -0.8832   1.3784  -2.2479   C.ar      1 RES1   0.0000
    22 C14     -1.6362   0.6434  -1.3892   C.ar      1 RES1   0.0000
    23 C15     -1.4875   0.9617  -0.0102   C.ar      1 RES1   0.0000
    24 C16     -1.7217   1.1036   2.1429   C.2       1 RES1   0.0000
    25 C17     -2.0641   0.8632   3.5627   C.3       1 RES1   0.0000
    26 N5       0.8708   1.9646   4.3354   N.2       1 RES1   0.0000
    27 N6       1.0781   0.5678   6.0832   N.pl3     1 RES1   0.0000
    28 C18      2.2001   1.5364   4.4607   C.ar      1 RES1   0.0000
    29 C19      3.3277   1.8547   3.6254   C.ar      1 RES1   0.0000
    30 C20      4.5355   1.3028   4.0132   C.ar      1 RES1   0.0000
    31 C21      4.6246   0.4785   5.1196   C.ar      1 RES1   0.0000
    32 C22      3.5668   0.1236   5.9010   C.ar      1 RES1   0.0000
    33 C23      2.3361   0.6846   5.5424   C.ar      1 RES1   0.0000
    34 C24      0.2448   1.3715   5.3776   C.2       1 RES1   0.0000
    35 C25     -1.1703   1.6600   5.6794   C.3       1 RES1   0.0000
    36 N7      -3.2206   6.8141   3.7493   N.pl3     1 RES1   1.0000
    37 N8      -5.2154   7.3019   3.2085   N.pl3     1 RES1   0.0000
    38 C26     -3.9194   6.7363   4.9301   C.ar      1 RES1   0.0000
    39 C27     -3.5488   6.3150   6.1867   C.ar      1 RES1   0.0000
    40 C28     -4.4925   6.3699   7.1590   C.ar      1 RES1   0.0000
    41 C29     -5.7337   6.8187   6.8616   C.ar      1 RES1   0.0000
    42 C30     -6.2140   7.1736   5.5730   C.ar      1 RES1   0.0000
    43 C31     -5.1826   7.1233   4.6123   C.ar      1 RES1   0.0000
    44 C32     -3.9786   7.1645   2.7479   C.2       1 RES1   0.0000
    45 C33     -3.6463   7.4324   1.3222   C.3       1 RES1   0.0000
    46 C34     -1.3841   6.3058  -2.4942   C.ar      1 RES1   0.0000
    47 O2       0.7997   7.8216   0.0058   O.3       1 RES1   0.0000
    48 C35     -0.9204   6.9698  -1.3178   C.ar      1 RES1   0.0000
    49 C36      0.4403   7.1507  -1.1502   C.ar      1 RES1   0.0000
    50 C37      1.3477   6.6081  -2.0511   C.ar      1 RES1   0.0000
    51 C38      0.8288   5.9670  -3.1444   C.ar      1 RES1   0.0000
    52 C39     -0.5263   5.7700  -3.4417   C.ar      1 RES1   0.0000
    53 C40     -1.9848   7.5926  -0.4271   C.3       1 RES1   0.0000
    54 C41      2.2344   7.9590   0.3120   C.3       1 RES1   0.0000
    55 H1      -5.3808   4.4329   0.2070   H         1 RES1   0.0000
    56 H2      -5.5559   2.5461   3.7945   H         1 RES1   0.0000
    57 H3      -7.3954   2.4019   2.3382   H         1 RES1   0.0000
    58 H4      -7.2496   2.7316   0.8120   H         1 RES1   0.0000
    59 H5      -7.6816   3.8536   1.8193   H         1 RES1   0.0000
    60 H6      -2.8874   3.6063   5.2071   H         1 RES1   0.0000
    61 H7      -3.6952   2.2828   5.1094   H         1 RES1   0.0000
    62 H8      -3.2895   5.3464  -0.5496   H         1 RES1   0.0000
    63 H9      -2.0161   4.8084   0.1618   H         1 RES1   0.0000
    64 H10     -2.7801  -0.2244   1.1064   H         1 RES1   0.0000
    65 H11      0.5849   3.4323  -0.1983   H         1 RES1   0.0000
    66 H12      0.3370   2.9812  -2.4694   H         1 RES1   0.0000
    67 H13     -0.8711   1.1655  -3.1837   H         1 RES1   0.0000
    68 H14     -2.2394  -0.0458  -1.6764   H         1 RES1   0.0000
    69 H15     -3.0020   0.6686   3.6327   H         1 RES1   0.0000
    70 H16     -1.5750   0.1030   3.8834   H         1 RES1   0.0000
    71 H17      0.8433   0.0435   6.7742   H         1 RES1   0.0000
    72 H18      3.2575   2.4202   2.8528   H         1 RES1   0.0000
    73 H19      5.3321   1.5158   3.5234   H         1 RES1   0.0000
    74 H20      5.4825   0.0939   5.3135   H         1 RES1   0.0000
    75 H21      3.6586  -0.4534   6.6619   H         1 RES1   0.0000
    76 H22     -1.6147   0.8907   6.0424   H         1 RES1   0.0000
    77 H23     -1.2221   2.3790   6.3135   H         1 RES1   0.0000
    78 H24     -2.3358   6.6653   3.6721   H         1 RES1   0.0000
    79 H25     -5.9407   7.4942   2.7129   H         1 RES1   0.0000
    80 H26     -2.6621   5.9876   6.3514   H         1 RES1   0.0000
    81 H27     -4.2941   6.1043   8.0599   H         1 RES1   0.0000
    82 H28     -6.3909   6.8645   7.5614   H         1 RES1   0.0000
    83 H29     -7.1029   7.4919   5.3966   H         1 RES1   0.0000
    84 H30     -4.4060   7.1965   0.7843   H         1 RES1   0.0000
    85 H31     -3.5063   8.3757   1.2172   H         1 RES1   0.0000
    86 H32     -2.3350   6.3013  -2.6269   H         1 RES1   0.0000
    87 H33      2.2942   6.7226  -1.9330   H         1 RES1   0.0000
    88 H34      1.4712   5.6143  -3.7654   H         1 RES1   0.0000
    89 H35     -0.8511   5.2663  -4.1910   H         1 RES1   0.0000
    90 H36     -1.6102   8.3918  -0.0481   H         1 RES1   0.0000
    91 H37     -2.7505   7.8514  -0.9461   H         1 RES1   0.0000
    92 H38      2.3659   8.0552   1.2580   H         1 RES1   0.0000
    93 H39      2.5774   8.7329  -0.1414   H         1 RES1   0.0000
    94 H40      2.6975   7.1759   0.0029   H         1 RES1   0.0000
    95 Cl3      1.7169   0.3435   9.6882   Cl        2 RES2   0.0000
    96 O3       0.8211   1.1906  10.2538   O.3       2 RES2  -1.0000
    97 O4       0.9965  -0.5610   8.8500   O.2       2 RES2   0.0000
    98 O5       2.6476   1.0945   8.8923   O.2       2 RES2   0.0000
    99 O6       2.3562  -0.3503  10.7188   O.2       2 RES2   0.0000
   100 Cl4      1.5963   2.7614  -5.6575   Cl        3 RES3   0.0000
   101 O7       0.3147   3.3567  -5.5948   O.3       3 RES3  -1.0000
   102 O8       2.4991   3.6910  -6.2261   O.2       3 RES3   0.0000
   103 O9       1.4370   1.6028  -6.4185   O.2       3 RES3   0.0000
   104 O10      2.0156   2.4660  -4.3470   O.2       3 RES3   0.0000
   105 O11      4.6011   4.3069  10.1328   O.3       4 RES4   0.0000
   106 C42      5.6996   2.9171  11.7320   C.3       4 RES4   0.0000
   107 C43      5.1679   3.0384  10.4681   C.3       4 RES4   0.0000
   108 H41      4.0435   4.2062   9.5395   H         4 RES4   0.0000
   109 H42      6.0519   3.7574  12.0308   H         4 RES4   0.0000
   110 H43      6.3793   2.2416  11.7990   H         4 RES4   0.0000
   111 H44      4.9506   2.6721  12.2786   H         4 RES4   0.0000
   112 H45      5.9196   2.9033   9.8850   H         4 RES4   0.0000
   113 H46      4.5319   2.3401  10.2976   H         4 RES4   0.0000
   114 O12     -4.3830  -1.0578   1.6108   O.3       5 RES5   0.0000
   115 C44     -5.3508  -0.2381  -0.3965   C.3       5 RES5   0.0000
   116 C45     -5.5621  -0.9319   0.8338   C.3       5 RES5   0.0000
   117 H47     -4.5181  -0.6640   2.3178   H         5 RES5   0.0000
   118 H48     -6.2040   0.0870  -0.6939   H         5 RES5   0.0000
   119 H49     -4.9693  -0.8014  -1.0729   H         5 RES5   0.0000
   120 H50     -4.7657   0.5060  -0.2303   H         5 RES5   0.0000
   121 H51     -6.2795  -0.5358   1.3382   H         5 RES5   0.0000
   122 H52     -5.8377  -1.8180   0.5904   H         5 RES5   0.0000
@<TRIPOS>BOND
     1     1     2    1
     2     3     1    1
     3     4     1    1
     4     5     4    1
     5     6     5   ar
     6     7     6   ar
     7     8     7   ar
     8     9     8   ar
     9    10     5   ar
    10    11     8    1
    11    12    10    1
    12    13     1    1
    13    14     6    1
    14    15    14    1
    15    16     1    1
    16    17    23    1
    17    18    16    1
    18    19    18   ar
    19    20    19   ar
    20    21    20   ar
    21    22    21   ar
    22    23    18   ar
    23    24    16    2
    24    25    13    1
    25    26     1    1
    26    27    33    1
    27    28    26    1
    28    29    28   ar
    29    30    29   ar
    30    31    30   ar
    31    32    31   ar
    32    33    28   ar
    33    34    26    2
    34    35    13    1
    35    36    38    1
    36    37    43    1
    37    38    39   ar
    38    39    40   ar
    39    40    41   ar
    40    41    42   ar
    41    42    43   ar
    42    43    38   ar
    43    44    36    2
    44    45    15    1
    45    46    48   ar
    46    47    49    1
    47    48    49   ar
    48    49    50   ar
    49    50    51   ar
    50    51    52   ar
    51    52    46   ar
    52    53    15    1
    53    54    47    1
    54    55     7    1
    55    56     9    1
    56    57    11    1
    57    58    11    1
    58    59    11    1
    59    60    12    1
    60    61    12    1
    61    62    14    1
    62    63    14    1
    63    64    17    1
    64    65    19    1
    65    66    20    1
    66    67    21    1
    67    68    22    1
    68    69    25    1
    69    70    25    1
    70    71    27    1
    71    72    29    1
    72    73    30    1
    73    74    31    1
    74    75    32    1
    75    76    35    1
    76    77    35    1
    77    78    36    1
    78    79    37    1
    79    80    39    1
    80    81    40    1
    81    82    41    1
    82    83    42    1
    83    84    45    1
    84    85    45    1
    85    86    46    1
    86    87    50    1
    87    88    51    1
    88    89    52    1
    89    90    53    1
    90    91    53    1
    91    92    54    1
    92    93    54    1
    93    94    54    1
    94     9    10   ar
    95    12    13    1
    96    17    24    1
    97    22    23   ar
    98    24    25    1
    99    27    34    1
   100    32    33   ar
   101    34    35    1
   102    37    44    1
   103    44    45    1
   104    48    53    1
   105    95    96    1
   106    97    95    2
   107    98    95    2
   108    99    95    2
   109   100   101    1
   110   102   100    2
   111   103   100    2
   112   104   100    2
   113   105   107    1
   114   106   107    1
   115   107   112    1
   116   108   105    1
   117   109   106    1
   118   110   106    1
   119   111   106    1
   120   113   107    1
   121   114   116    1
   122   115   116    1
   123   116   121    1
   124   117   114    1
   125   118   115    1
   126   119   115    1
   127   120   115    1
   128   122   116    1
@<TRIPOS>SUBSTRUCTURE
     1 RES1        1 GROUP             0 ****  ****    0  
     2 RES2       95 GROUP             0 ****  ****    0  
     3 RES3      100 GROUP             0 ****  ****    0  
     4 RES4      105 GROUP             0 ****  ****    0  
     5 RES5      114 GROUP             0 ****  ****    0  
@<TRIPOS>CRYSIN
   14.9830   22.8970   15.3070   90.0000  107.7600   90.0000   231     1
