@<TRIPOS>MOLECULE
TEXPOD
   134   145     3     0     0
SMALL
USER_CHARGES
****
Generated from the CSD

@<TRIPOS>ATOM
     1 C1       3.2814  -1.6444   5.0321   C.3       1 RES1   0.0000
     2 H1       2.6285  -2.3756   5.0098   H         1 RES1   0.0000
     3 H2       4.1879  -2.0158   4.9871   H         1 RES1   0.0000
     4 H3       3.1335  -1.0501   4.2688   H         1 RES1   0.0000
     5 C2       3.1224  -0.8721   6.3045   C.ar      1 RES1   0.0000
     6 C3       1.8921  -0.8081   6.9628   C.ar      1 RES1   0.0000
     7 H4       1.1608  -1.2832   6.5873   H         1 RES1   0.0000
     8 C4       2.7195   0.5712   8.6235   C.ar      1 RES1   0.0000
     9 C5       3.9794   0.5532   8.0284   C.ar      1 RES1   0.0000
    10 H5       4.6922   1.0501   8.4103   H         1 RES1   0.0000
    11 C6       4.1864  -0.1870   6.8801   C.ar      1 RES1   0.0000
    12 H6       5.0500  -0.2280   6.4873   H         1 RES1   0.0000
    13 C7       2.3941   1.3268   9.8491   C.ar      1 RES1   0.0000
    14 C8       0.7298   1.8301  11.3698   C.ar      1 RES1   0.0000
    15 H7      -0.1819   1.7750  11.6335   H         1 RES1   0.0000
    16 C9       1.6030   2.5331  12.1790   C.ar      1 RES1   0.0000
    17 C10      2.9199   2.6625  11.7685   C.ar      1 RES1   0.0000
    18 H8       3.5387   3.1607  12.2881   H         1 RES1   0.0000
    19 C11      3.3162   2.0555  10.5910   C.ar      1 RES1   0.0000
    20 H9       4.2153   2.1349  10.2924   H         1 RES1   0.0000
    21 C12      1.1180   3.1146  13.4769   C.3       1 RES1   0.0000
    22 H10      1.8936   3.3489  14.0474   H         1 RES1   0.0000
    23 H11      0.6048   3.9419  13.2973   H         1 RES1   0.0000
    24 C13     -0.9856   2.5293  14.5512   C.ar      1 RES1   0.0000
    25 C14     -1.3864   2.0606  15.8022   C.ar      1 RES1   0.0000
    26 C15     -2.6914   2.3001  16.2441   C.ar      1 RES1   0.0000
    27 H12     -2.9775   1.9786  17.0933   H         1 RES1   0.0000
    28 C16     -3.5823   3.0236  15.4158   C.ar      1 RES1   0.0000
    29 H13     -4.4777   3.1709  15.6931   H         1 RES1   0.0000
    30 C17     -3.1409   3.5167  14.1988   C.ar      1 RES1   0.0000
    31 H14     -3.7339   4.0315  13.6610   H         1 RES1   0.0000
    32 C18     -1.8603   3.2759  13.7515   C.ar      1 RES1   0.0000
    33 H15     -1.5742   3.6127  12.9109   H         1 RES1   0.0000
    34 C19     -0.3667   1.3908  16.6710   C.3       1 RES1   0.0000
    35 H16     -0.7209   1.3229  17.5934   H         1 RES1   0.0000
    36 H17      0.4495   1.9492  16.7024   H         1 RES1   0.0000
    37 N1       1.6784  -0.1153   8.0966   N.ar      1 RES1   0.0000
    38 N2       1.0973   1.2218  10.2292   N.ar      1 RES1   0.0000
    39 N3       0.0000   0.0000  16.1787   N.4       1 RES1   1.0000
    40 H18      0.0000   0.0000  15.2749   H         1 RES1   0.0000
    41 O1       0.2780   2.1592  14.1675   O.3       1 RES1   0.0000
    42 Fe1      0.0000   0.0000   9.1354   Fe        1 RES1   2.0000
    43 C1A     -0.2166   3.6640   5.0321   C.3       1 RES1   0.0000
    44 H1A      0.7431   3.4642   5.0098   H         1 RES1   0.0000
    45 H2A     -0.3483   4.6347   4.9871   H         1 RES1   0.0000
    46 H3A     -0.6573   3.2388   4.2688   H         1 RES1   0.0000
    47 C2A     -0.8059   3.1402   6.3045   C.ar      1 RES1   0.0000
    48 C3A     -0.2462   2.0427   6.9628   C.ar      1 RES1   0.0000
    49 H4A      0.5309   1.6469   6.5873   H         1 RES1   0.0000
    50 C4A     -1.8544   2.0695   8.6235   C.ar      1 RES1   0.0000
    51 C5A     -2.4688   3.1696   8.0284   C.ar      1 RES1   0.0000
    52 H5A     -3.2555   3.5385   8.4103   H         1 RES1   0.0000
    53 C6A     -1.9313   3.7190   6.8801   C.ar      1 RES1   0.0000
    54 H6A     -2.3276   4.4874   6.4873   H         1 RES1   0.0000
    55 C7A     -2.3461   1.4100   9.8491   C.ar      1 RES1   0.0000
    56 C8A     -1.9498  -0.2830  11.3698   C.ar      1 RES1   0.0000
    57 H7A     -1.4462  -1.0450  11.6335   H         1 RES1   0.0000
    58 C9A     -2.9953   0.1217  12.1790   C.ar      1 RES1   0.0000
    59 C10A    -3.7657   1.1974  11.7685   C.ar      1 RES1   0.0000
    60 H8A     -4.5066   1.4843  12.2881   H         1 RES1   0.0000
    61 C11A    -3.4382   1.8442  10.5910   C.ar      1 RES1   0.0000
    62 H9A     -3.9565   2.5831  10.2924   H         1 RES1   0.0000
    63 C12A    -3.2563  -0.5891  13.4769   C.3       1 RES1   0.0000
    64 H10A    -3.8470  -0.0346  14.0474   H         1 RES1   0.0000
    65 H11A    -3.7162  -1.4471  13.2973   H         1 RES1   0.0000
    66 C13A    -1.6976  -2.1182  14.5512   C.ar      1 RES1   0.0000
    67 C14A    -1.0913  -2.2309  15.8022   C.ar      1 RES1   0.0000
    68 C15A    -0.6462  -3.4808  16.2441   C.ar      1 RES1   0.0000
    69 H12A    -0.2248  -3.5679  17.0933   H         1 RES1   0.0000
    70 C16A    -0.8274  -4.6142  15.4158   C.ar      1 RES1   0.0000
    71 H13A    -0.5072  -5.4633  15.6931   H         1 RES1   0.0000
    72 C17A    -1.4751  -4.4785  14.1988   C.ar      1 RES1   0.0000
    73 H14A    -1.6244  -5.2494  13.6610   H         1 RES1   0.0000
    74 C18A    -1.9069  -3.2490  13.7515   C.ar      1 RES1   0.0000
    75 H15A    -2.3416  -3.1696  12.9109   H         1 RES1   0.0000
    76 C19A    -1.0211  -1.0130  16.6710   C.3       1 RES1   0.0000
    77 H16A    -0.7852  -1.2858  17.5934   H         1 RES1   0.0000
    78 H17A    -1.9128  -0.5853  16.7024   H         1 RES1   0.0000
    79 N1A     -0.7394   1.5112   8.0966   N.ar      1 RES1   0.0000
    80 N2A     -1.6067   0.3394  10.2292   N.ar      1 RES1   0.0000
    81 O1A     -2.0089  -0.8388  14.1675   O.3       1 RES1   0.0000
    82 C1B     -3.0648  -2.0196   5.0321   C.3       1 RES1   0.0000
    83 H1B     -3.3716  -1.0886   5.0098   H         1 RES1   0.0000
    84 H2B     -3.8397  -2.6190   4.9871   H         1 RES1   0.0000
    85 H3B     -2.4762  -2.1886   4.2688   H         1 RES1   0.0000
    86 C2B     -2.3165  -2.2681   6.3045   C.ar      1 RES1   0.0000
    87 C3B     -1.6459  -1.2346   6.9628   C.ar      1 RES1   0.0000
    88 H4B     -1.6917  -0.3637   6.5873   H         1 RES1   0.0000
    89 C4B     -0.8651  -2.6407   8.6235   C.ar      1 RES1   0.0000
    90 C5B     -1.5106  -3.7229   8.0284   C.ar      1 RES1   0.0000
    91 H5B     -1.4366  -4.5886   8.4103   H         1 RES1   0.0000
    92 C6B     -2.2551  -3.5321   6.8801   C.ar      1 RES1   0.0000
    93 H6B     -2.7224  -4.2595   6.4873   H         1 RES1   0.0000
    94 C7B     -0.0481  -2.7368   9.8491   C.ar      1 RES1   0.0000
    95 C8B      1.2200  -1.5470  11.3698   C.ar      1 RES1   0.0000
    96 H7B      1.6281  -0.7300  11.6335   H         1 RES1   0.0000
    97 C9B      1.3923  -2.6548  12.1790   C.ar      1 RES1   0.0000
    98 C10B     0.8459  -3.8599  11.7685   C.ar      1 RES1   0.0000
    99 H8B      0.9679  -4.6450  12.2881   H         1 RES1   0.0000
   100 C11B     0.1220  -3.8996  10.5910   C.ar      1 RES1   0.0000
   101 H9B     -0.2588  -4.7180  10.2924   H         1 RES1   0.0000
   102 C12B     2.1383  -2.5255  13.4769   C.3       1 RES1   0.0000
   103 H10B     1.9535  -3.3144  14.0474   H         1 RES1   0.0000
   104 H11B     3.1114  -2.4947  13.2973   H         1 RES1   0.0000
   105 C13B     2.6832  -0.4111  14.5512   C.ar      1 RES1   0.0000
   106 C14B     2.4777   0.1703  15.8022   C.ar      1 RES1   0.0000
   107 C15B     3.3376   1.1808  16.2441   C.ar      1 RES1   0.0000
   108 H12B     3.2023   1.5893  17.0933   H         1 RES1   0.0000
   109 C16B     4.4097   1.5906  15.4158   C.ar      1 RES1   0.0000
   110 H13B     4.9850   2.2924  15.6931   H         1 RES1   0.0000
   111 C17B     4.6160   0.9618  14.1988   C.ar      1 RES1   0.0000
   112 H14B     5.3584   1.2179  13.6610   H         1 RES1   0.0000
   113 C18B     3.7672  -0.0269  13.7515   C.ar      1 RES1   0.0000
   114 H15B     3.9158  -0.4431  12.9109   H         1 RES1   0.0000
   115 C19B     1.3878  -0.3778  16.6710   C.3       1 RES1   0.0000
   116 H16B     1.5061  -0.0371  17.5934   H         1 RES1   0.0000
   117 H17B     1.4633  -1.3639  16.7024   H         1 RES1   0.0000
   118 N1B     -0.9390  -1.3959   8.0966   N.ar      1 RES1   0.0000
   119 N2B      0.5094  -1.5611  10.2292   N.ar      1 RES1   0.0000
   120 O1B      1.7309  -1.3204  14.1675   O.3       1 RES1   0.0000
   121 F1      -1.1202  -0.7287   2.2494   F         2 RES2   0.0000
   122 F2       1.0936   0.6980   4.0592   F         2 RES2   0.0000
   123 P1       0.0000   0.0000   3.1114   P.3       2 RES2  -1.0000
   124 F1A      1.1912  -0.6058   2.2494   F         2 RES2   0.0000
   125 F2A     -1.1512   0.5981   4.0592   F         2 RES2   0.0000
   126 F1B     -0.0710   1.3344   2.2494   F         2 RES2   0.0000
   127 F2B      0.0577  -1.2960   4.0592   F         2 RES2   0.0000
   128 F3       0.1553   4.2979   9.3850   F         3 RES3   0.0000
   129 F4      -1.0980   6.7580  10.9934   F         3 RES3   0.0000
   130 F5       0.5109   5.2136  11.3684   F         3 RES3   0.0000
   131 F6      -1.4366   5.8693   8.9581   F         3 RES3   0.0000
   132 F7       0.6100   6.5096   9.5173   F         3 RES3   0.0000
   133 F8      -1.5586   4.5617  10.7793   F         3 RES3   0.0000
   134 P2      -0.4396   5.5544  10.1624   P.3       3 RES3  -1.0000
@<TRIPOS>BOND
     1     1     2    1
     2     3     1    1
     3     4     1    1
     4     5     1    1
     5     6     5   ar
     6     7     6    1
     7     8     9   ar
     8     9    10    1
     9    11     5   ar
    10    12    11    1
    11    13     8    1
    12    14    15    1
    13    16    14   ar
    14    17    16   ar
    15    18    17    1
    16    19    13   ar
    17    20    19    1
    18    21    16    1
    19    22    21    1
    20    23    21    1
    21    24    25   ar
    22    25    26   ar
    23    26    27    1
    24    28    26   ar
    25    29    28    1
    26    30    28   ar
    27    31    30    1
    28    32    24   ar
    29    33    32    1
    30    34    25    1
    31    35    34    1
    32    36    34    1
    33    37     6   ar
    34    38    13   ar
    35    39    34    1
    36    40    39    1
    37    41    21    1
    38    42    37    1
    39    43    44    1
    40    45    43    1
    41    46    43    1
    42    47    43    1
    43    48    47   ar
    44    49    48    1
    45    50    51   ar
    46    51    52    1
    47    53    47   ar
    48    54    53    1
    49    55    50    1
    50    56    57    1
    51    58    56   ar
    52    59    58   ar
    53    60    59    1
    54    61    55   ar
    55    62    61    1
    56    63    58    1
    57    64    63    1
    58    65    63    1
    59    66    67   ar
    60    67    68   ar
    61    68    69    1
    62    70    68   ar
    63    71    70    1
    64    72    70   ar
    65    73    72    1
    66    74    66   ar
    67    75    74    1
    68    76    39    1
    69    77    76    1
    70    78    76    1
    71    79    42    1
    72    80    42    1
    73    81    63    1
    74    82    83    1
    75    84    82    1
    76    85    82    1
    77    86    82    1
    78    87    86   ar
    79    88    87    1
    80    89    90   ar
    81    90    91    1
    82    92    86   ar
    83    93    92    1
    84    94    89    1
    85    95    96    1
    86    97    95   ar
    87    98    97   ar
    88    99    98    1
    89   100    94   ar
    90   101   100    1
    91   102    97    1
    92   103   102    1
    93   104   102    1
    94   105   106   ar
    95   106   107   ar
    96   107   108    1
    97   109   107   ar
    98   110   109    1
    99   111   109   ar
   100   112   111    1
   101   113   105   ar
   102   114   113    1
   103   115    39    1
   104   116   115    1
   105   117   115    1
   106   118    42    1
   107   119    42    1
   108   120   102    1
   109     8    37   ar
   110     9    11   ar
   111    14    38   ar
   112    17    19   ar
   113    24    41    1
   114    30    32   ar
   115    38    42    1
   116    48    79   ar
   117    50    79   ar
   118    51    53   ar
   119    55    80   ar
   120    56    80   ar
   121    59    61   ar
   122    66    81    1
   123    67    76    1
   124    72    74   ar
   125    87   118   ar
   126    89   118   ar
   127    90    92   ar
   128    94   119   ar
   129    95   119   ar
   130    98   100   ar
   131   105   120    1
   132   106   115    1
   133   111   113   ar
   134   121   123    1
   135   122   123    1
   136   123   124    1
   137   125   123    1
   138   126   123    1
   139   127   123    1
   140   128   134    1
   141   129   134    1
   142   130   134    1
   143   131   134    1
   144   132   134    1
   145   133   134    1
@<TRIPOS>SUBSTRUCTURE
     1 RES1        1 GROUP             0 ****  ****    0  
     2 RES2      121 GROUP             0 ****  ****    0  
     3 RES3      128 GROUP             0 ****  ****    0  
@<TRIPOS>CRYSIN
   14.7878   14.7878   45.4610   90.0000   90.0000  120.0000   233     1
