@<TRIPOS>MOLECULE
TEYCUW
   145   159     2     0     0
SMALL
NO_CHARGES
****
Generated from the CSD

@<TRIPOS>ATOM
     1 Fe1      1.6688   3.1048  -0.1665   Fe        1 RES1   0.0000
     2 O1      -0.0727   4.2151   1.8375   O.3       1 RES1   0.0000
     3 O2       1.1966   3.1385  -3.0087   O.3       1 RES1   0.0000
     4 O3       2.1126   3.5226   2.6647   O.3       1 RES1   0.0000
     5 O4       3.2696   4.2257  -2.2792   O.3       1 RES1   0.0000
     6 O5       0.4396   1.8238   2.0954   O.3       1 RES1   0.0000
     7 O6       3.1002   1.7709  -2.2846   O.3       1 RES1   0.0000
     8 N1       0.1835   4.0752   0.4981   N.2       1 RES1   0.0000
     9 N2       0.6917   3.4274  -1.7576   N.2       1 RES1   0.0000
    10 N3       2.6023   3.7128   1.3856   N.2       1 RES1   0.0000
    11 N4       3.0239   4.1911  -0.9360   N.2       1 RES1   0.0000
    12 N5       1.0820   1.6495   0.8991   N.2       1 RES1   0.0000
    13 N6       2.4789   1.6414  -1.0614   N.2       1 RES1   0.0000
    14 B1       0.6461   3.1998   2.6667   B         1 RES1   0.0000
    15 B2       2.6925   3.0215  -2.9946   B         1 RES1   0.0000
    16 C1      -0.7158   4.5097  -0.3487   C.2       1 RES1   0.0000
    17 C2      -0.3740   4.1740  -1.7066   C.2       1 RES1   0.0000
    18 C3       3.5888   4.5298   1.2411   C.2       1 RES1   0.0000
    19 C4       3.9017   4.7587  -0.1599   C.2       1 RES1   0.0000
    20 C5       1.4931   0.4388   0.6014   C.2       1 RES1   0.0000
    21 C6       2.2574   0.4313  -0.6283   C.2       1 RES1   0.0000
    22 C7      -1.8740   5.3607   0.0550   C.3       1 RES1   0.0000
    23 H1      -2.1954   5.0759   0.9240   H         1 RES1   0.0000
    24 H2      -2.5953   5.2488  -0.5845   H         1 RES1   0.0000
    25 C8      -1.4780   6.8196   0.1162   C.3       1 RES1   0.0000
    26 H3      -0.9357   6.9590   0.9077   H         1 RES1   0.0000
    27 H4      -2.2821   7.3543   0.2124   H         1 RES1   0.0000
    28 C9      -0.6855   7.3314  -1.1273   C.3       1 RES1   0.0000
    29 H5      -0.5037   8.2756  -1.0039   H         1 RES1   0.0000
    30 H6       0.1687   6.8725  -1.1509   H         1 RES1   0.0000
    31 C10     -1.3542   7.1514  -2.4670   C.3       1 RES1   0.0000
    32 H7      -1.2957   7.9879  -2.9517   H         1 RES1   0.0000
    33 H8      -2.2946   6.9678  -2.3146   H         1 RES1   0.0000
    34 C11     -0.7879   6.0448  -3.3495   C.3       1 RES1   0.0000
    35 H9      -1.1204   6.1701  -4.2515   H         1 RES1   0.0000
    36 H10      0.1783   6.1366  -3.3783   H         1 RES1   0.0000
    37 C12     -1.1269   4.6380  -2.8998   C.3       1 RES1   0.0000
    38 H11     -2.0761   4.5958  -2.7030   H         1 RES1   0.0000
    39 H12     -0.9512   4.0275  -3.6325   H         1 RES1   0.0000
    40 C13      4.2705   5.2440   2.3581   C.3       1 RES1   0.0000
    41 H13      5.2099   5.3529   2.1367   H         1 RES1   0.0000
    42 H14      4.2179   4.6999   3.1587   H         1 RES1   0.0000
    43 C14      3.6743   6.6043   2.6468   C.3       1 RES1   0.0000
    44 H15      4.2360   7.0561   3.2948   H         1 RES1   0.0000
    45 H16      2.8017   6.4789   3.0498   H         1 RES1   0.0000
    46 C15      3.5209   7.5026   1.4250   C.3       1 RES1   0.0000
    47 H17      2.8621   7.1002   0.8387   H         1 RES1   0.0000
    48 H18      3.1597   8.3533   1.7228   H         1 RES1   0.0000
    49 C16      4.7540   7.7814   0.6136   C.3       1 RES1   0.0000
    50 H19      5.5281   7.5467   1.1473   H         1 RES1   0.0000
    51 H20      4.7965   8.7363   0.4448   H         1 RES1   0.0000
    52 C17      4.8508   7.0437  -0.7376   C.3       1 RES1   0.0000
    53 H21      4.0299   7.1990  -1.2308   H         1 RES1   0.0000
    54 H22      5.5755   7.4355  -1.2490   H         1 RES1   0.0000
    55 C18      5.0827   5.5372  -0.6481   C.3       1 RES1   0.0000
    56 H23      5.3298   5.2082  -1.5267   H         1 RES1   0.0000
    57 H24      5.8315   5.3724  -0.0526   H         1 RES1   0.0000
    58 C19      1.3200  -0.7453   1.4768   C.3       1 RES1   0.0000
    59 H25      1.2154  -1.5355   0.9222   H         1 RES1   0.0000
    60 H26      0.5080  -0.6371   1.9951   H         1 RES1   0.0000
    61 C20      2.4966  -0.9583   2.4320   C.3       1 RES1   0.0000
    62 H27      2.4781  -0.2630   3.1060   H         1 RES1   0.0000
    63 H28      2.3769  -1.8090   2.8846   H         1 RES1   0.0000
    64 C21      3.8579  -0.9513   1.7663   C.3       1 RES1   0.0000
    65 H29      4.5216  -1.1472   2.4453   H         1 RES1   0.0000
    66 H30      4.0298  -0.0512   1.4505   H         1 RES1   0.0000
    67 C22      4.0850  -1.9079   0.5991   C.3       1 RES1   0.0000
    68 H31      4.9398  -2.3473   0.7334   H         1 RES1   0.0000
    69 H32      3.3998  -2.5926   0.6336   H         1 RES1   0.0000
    70 C23      4.0793  -1.3113  -0.7806   C.3       1 RES1   0.0000
    71 H33      4.4121  -1.9820  -1.3978   H         1 RES1   0.0000
    72 H34      4.7074  -0.5718  -0.7915   H         1 RES1   0.0000
    73 C24      2.7398  -0.8032  -1.3118   C.3       1 RES1   0.0000
    74 H35      2.8269  -0.6212  -2.2601   H         1 RES1   0.0000
    75 H36      2.0754  -1.5019  -1.2054   H         1 RES1   0.0000
    76 C25      0.0680   3.2333   4.1548   C.3       1 RES1   0.0000
    77 C26      0.9144   2.3561   5.0875   C.3       1 RES1   0.0000
    78 H37      1.8311   2.6738   5.0902   H         1 RES1   0.0000
    79 H38      0.9111   1.4419   4.7671   H         1 RES1   0.0000
    80 C27      0.3457   2.4056   6.5220   C.3       1 RES1   0.0000
    81 H39      0.8976   1.8426   7.1052   H         1 RES1   0.0000
    82 C28     -1.0844   1.8779   6.5261   C.3       1 RES1   0.0000
    83 H40     -1.0992   0.9601   6.2085   H         1 RES1   0.0000
    84 H41     -1.4411   1.8937   7.4265   H         1 RES1   0.0000
    85 C29     -1.9330   2.7532   5.6167   C.3       1 RES1   0.0000
    86 H42     -2.8550   2.4232   5.6167   H         1 RES1   0.0000
    87 C30     -1.3834   2.7232   4.1838   C.3       1 RES1   0.0000
    88 H43     -1.9350   3.2792   3.6125   H         1 RES1   0.0000
    89 H44     -1.4147   1.8161   3.8431   H         1 RES1   0.0000
    90 C31      0.0816   4.6682   4.7050   C.3       1 RES1   0.0000
    91 H45      0.9911   5.0053   4.7054   H         1 RES1   0.0000
    92 H46     -0.4480   5.2400   4.1263   H         1 RES1   0.0000
    93 C32     -0.4830   4.7264   6.1351   C.3       1 RES1   0.0000
    94 H47     -0.4760   5.6477   6.4662   H         1 RES1   0.0000
    95 C33     -1.9099   4.1722   6.1395   C.3       1 RES1   0.0000
    96 H48     -2.2613   4.1899   7.0435   H         1 RES1   0.0000
    97 H49     -2.4765   4.7317   5.5858   H         1 RES1   0.0000
    98 C34      0.3884   3.8351   7.0274   C.3       1 RES1   0.0000
    99 H50      1.3032   4.1581   7.0181   H         1 RES1   0.0000
   100 H51      0.0631   3.8687   7.9403   H         1 RES1   0.0000
   101 C35      3.2473   2.9883  -4.4957   C.3       1 RES1   0.0000
   102 C36      2.8789   4.2834  -5.2309   C.3       1 RES1   0.0000
   103 H52      3.2522   5.0423  -4.7580   H         1 RES1   0.0000
   104 H53      1.9146   4.3822  -5.2500   H         1 RES1   0.0000
   105 C37      3.4265   4.2534  -6.6750   C.3       1 RES1   0.0000
   106 H54      3.1853   5.0847  -7.1325   H         1 RES1   0.0000
   107 C38      4.9407   4.1157  -6.6389   C.3       1 RES1   0.0000
   108 H55      5.2920   4.1157  -7.5427   H         1 RES1   0.0000
   109 H56      5.3274   4.8676  -6.1631   H         1 RES1   0.0000
   110 C39      5.3133   2.8185  -5.9421   C.3       1 RES1   0.0000
   111 H57      6.2882   2.7268  -5.9216   H         1 RES1   0.0000
   112 C40      4.7746   2.8450  -4.5095   C.3       1 RES1   0.0000
   113 H58      5.1725   3.5880  -4.0282   H         1 RES1   0.0000
   114 H59      5.0244   2.0243  -4.0555   H         1 RES1   0.0000
   115 C41      2.6466   1.7967  -5.2781   C.3       1 RES1   0.0000
   116 H60      2.8733   0.9654  -4.8324   H         1 RES1   0.0000
   117 H61      1.6795   1.8743  -5.2990   H         1 RES1   0.0000
   118 C42      3.1932   1.7773  -6.7113   C.3       1 RES1   0.0000
   119 H62      2.8052   1.0219  -7.2014   H         1 RES1   0.0000
   120 C43      4.7110   1.6414  -6.6841   C.3       1 RES1   0.0000
   121 H63      4.9571   0.8136  -6.2411   H         1 RES1   0.0000
   122 H64      5.0550   1.6131  -7.5899   H         1 RES1   0.0000
   123 C44      2.8269   3.0833  -7.4147   C.3       1 RES1   0.0000
   124 H65      3.1610   3.0674  -8.3251   H         1 RES1   0.0000
   125 H66      1.8623   3.1768  -7.4465   H         1 RES1   0.0000
   126 C45     -7.5808  -0.0106  -5.2608   C.3       2 RES2   0.0000
   127 H67     -8.1380   0.6565  -5.6675   H         2 RES2   0.0000
   128 H68     -7.8064  -0.8754  -5.6112   H         2 RES2   0.0000
   129 H69     -6.6600   0.1818  -5.4496   H         2 RES2   0.0000
   130 C46     -7.8005  -0.0035  -3.7577   C.3       2 RES2   0.0000
   131 H70     -8.7349  -0.1783  -3.5708   H         2 RES2   0.0000
   132 H71     -7.5854   0.8754  -3.4092   H         2 RES2   0.0000
   133 C47     -6.9364  -1.0536  -3.0480   C.3       2 RES2   0.0000
   134 H72     -7.1719  -1.9308  -3.3892   H         2 RES2   0.0000
   135 H73     -6.0064  -0.8930  -3.2694   H         2 RES2   0.0000
   136 C48     -7.0819  -1.0642  -1.5485   C.3       2 RES2   0.0000
   137 H74     -8.0158  -1.2090  -1.3306   H         2 RES2   0.0000
   138 H75     -6.8335  -0.1906  -1.2090   H         2 RES2   0.0000
   139 C49     -6.2488  -2.1161  -0.8332   C.3       2 RES2   0.0000
   140 H76     -6.4724  -2.9915  -1.1854   H         2 RES2   0.0000
   141 H77     -5.3098  -1.9537  -1.0130   H         2 RES2   0.0000
   142 C50     -6.4706  -2.1126   0.6390   C.3       2 RES2   0.0000
   143 H78     -5.9305  -2.7938   1.0456   H         2 RES2   0.0000
   144 H79     -7.3968  -2.2855   0.8242   H         2 RES2   0.0000
   145 H80     -6.2284  -1.2548   0.9984   H         2 RES2   0.0000
@<TRIPOS>BOND
     1     1     8    1
     2     2     8    1
     3     3     9    1
     4     4    10    1
     5     5    11    1
     6     6    12    1
     7     7    13    1
     8     8    16    2
     9     9     1    1
    10    10     1    1
    11    11     1    1
    12    12     1    1
    13    13     1    1
    14    14     2    1
    15    15     3    1
    16    16    17    1
    17    17     9    2
    18    18    10    2
    19    19    11    2
    20    20    12    2
    21    21    13    2
    22    22    16    1
    23    23    22    1
    24    24    22    1
    25    25    22    1
    26    26    25    1
    27    27    25    1
    28    28    25    1
    29    29    28    1
    30    30    28    1
    31    31    28    1
    32    32    31    1
    33    33    31    1
    34    34    31    1
    35    35    34    1
    36    36    34    1
    37    37    17    1
    38    38    37    1
    39    39    37    1
    40    40    18    1
    41    41    40    1
    42    42    40    1
    43    43    40    1
    44    44    43    1
    45    45    43    1
    46    46    43    1
    47    47    46    1
    48    48    46    1
    49    49    46    1
    50    50    49    1
    51    51    49    1
    52    52    49    1
    53    53    52    1
    54    54    52    1
    55    55    19    1
    56    56    55    1
    57    57    55    1
    58    58    20    1
    59    59    58    1
    60    60    58    1
    61    61    58    1
    62    62    61    1
    63    63    61    1
    64    64    61    1
    65    65    64    1
    66    66    64    1
    67    67    64    1
    68    68    67    1
    69    69    67    1
    70    70    67    1
    71    71    70    1
    72    72    70    1
    73    73    21    1
    74    74    73    1
    75    75    73    1
    76    76    14    1
    77    77    76    1
    78    78    77    1
    79    79    77    1
    80    80    77    1
    81    81    80    1
    82    82    80    1
    83    83    82    1
    84    84    82    1
    85    85    82    1
    86    86    85    1
    87    87    76    1
    88    88    87    1
    89    89    87    1
    90    90    76    1
    91    91    90    1
    92    92    90    1
    93    93    90    1
    94    94    93    1
    95    95    85    1
    96    96    95    1
    97    97    95    1
    98    98    80    1
    99    99    98    1
   100   100    98    1
   101   101    15    1
   102   102   101    1
   103   103   102    1
   104   104   102    1
   105   105   102    1
   106   106   105    1
   107   107   105    1
   108   108   107    1
   109   109   107    1
   110   110   107    1
   111   111   110    1
   112   112   101    1
   113   113   112    1
   114   114   112    1
   115   115   101    1
   116   116   115    1
   117   117   115    1
   118   118   115    1
   119   119   118    1
   120   120   110    1
   121   121   120    1
   122   122   120    1
   123   123   105    1
   124   124   123    1
   125   125   123    1
   126     4    14    1
   127     5    15    1
   128     6    14    1
   129     7    15    1
   130    18    19    1
   131    20    21    1
   132    34    37    1
   133    52    55    1
   134    70    73    1
   135    85    87    1
   136    93    95    1
   137    93    98    1
   138   110   112    1
   139   118   120    1
   140   118   123    1
   141   126   127    1
   142   128   126    1
   143   129   126    1
   144   130   126    1
   145   131   130    1
   146   132   130    1
   147   133   130    1
   148   134   133    1
   149   135   133    1
   150   136   133    1
   151   137   136    1
   152   138   136    1
   153   139   136    1
   154   140   139    1
   155   141   139    1
   156   142   139    1
   157   143   142    1
   158   144   142    1
   159   145   142    1
@<TRIPOS>SUBSTRUCTURE
     1 RES1        1 GROUP             0 ****  ****    0  
     2 RES2      126 GROUP             0 ****  ****    0  
@<TRIPOS>CRYSIN
   15.6010   17.6490   18.6410   90.0000  103.1340   90.0000   231     1
