@<TRIPOS>MOLECULE
THCXFE10
    85    93     3     0     0
SMALL
USER_CHARGES
****
Generated from the CSD

@<TRIPOS>ATOM
     1 Fe1      2.2627   3.8562   3.3687   Fe        1 RES1   2.0000
     2 P1       1.7243   2.3675   5.0462   P.3       1 RES1   0.0000
     3 P2       0.1663   3.4788   2.6106   P.3       1 RES1   0.0000
     4 P3       2.7874   5.4775   1.7888   P.3       1 RES1   0.0000
     5 P4       1.8852   5.6331   4.7547   P.3       1 RES1   0.0000
     6 P5       5.9299   1.3411   2.3299   P.3       1 RES1   0.0000
     7 S1       3.0476   2.2561   1.9773   S.2       1 RES1   0.0000
     8 S2       4.4847   3.5806   3.9152   S.2       1 RES1   0.0000
     9 C1      -0.0786   2.0778   5.0110   C.3       1 RES1   0.0000
    10 C2      -0.5421   2.0518   3.5829   C.3       1 RES1   0.0000
    11 C3       2.3665   0.6812   4.7899   C.3       1 RES1   0.0000
    12 C4       2.0319  -0.4118   5.8653   C.3       1 RES1   0.0000
    13 C5       2.0616   2.6431   6.8296   C.3       1 RES1   0.0000
    14 C6       3.5246   2.4522   7.3151   C.3       1 RES1   0.0000
    15 C7       0.0176   2.9848   0.8517   C.3       1 RES1   0.0000
    16 C8      -0.7817   1.6567   0.5086   C.3       1 RES1   0.0000
    17 C9      -1.1231   4.7343   2.8181   C.3       1 RES1   0.0000
    18 C10     -2.5240   4.4502   2.2037   C.3       1 RES1   0.0000
    19 C11      2.9524   7.0670   2.7109   C.3       1 RES1   0.0000
    20 C12      1.8548   7.1863   3.7348   C.3       1 RES1   0.0000
    21 C13      1.6222   5.8863   0.4340   C.3       1 RES1   0.0000
    22 C14      1.9723   7.1784  -0.4150   C.3       1 RES1   0.0000
    23 C15      4.4117   5.4352   0.9222   C.3       1 RES1   0.0000
    24 C16      4.4608   4.5903  -0.3634   C.3       1 RES1   0.0000
    25 C17      0.4476   5.7654   5.8965   C.3       1 RES1   0.0000
    26 C18     -0.3931   7.0975   5.8342   C.3       1 RES1   0.0000
    27 C19      3.3094   5.9975   5.8559   C.3       1 RES1   0.0000
    28 C20      3.1975   7.2964   6.7062   C.3       1 RES1   0.0000
    29 C21      4.5455   2.3936   2.7259   C.3       1 RES1   0.0000
    30 C22      5.9184  -0.1371   3.3714   C.3       1 RES1   0.0000
    31 C23      6.2213   0.1861   4.8971   C.3       1 RES1   0.0000
    32 C24      7.4980   2.2390   2.6092   C.3       1 RES1   0.0000
    33 C25      7.6521   3.3993   1.5379   C.3       1 RES1   0.0000
    34 C26      5.8394   0.8760   0.5492   C.3       1 RES1   0.0000
    35 C27      4.8482  -0.3704   0.3282   C.3       1 RES1   0.0000
    36 B1      -2.3967   2.7823   9.3588   B         2 RES2  -1.0000
    37 C28     -1.2136   3.9544   9.5527   C.ar      2 RES2   0.0000
    38 C29     -1.5523   5.3043   9.4442   C.ar      2 RES2   0.0000
    39 C30     -0.5684   6.2838   9.5785   C.ar      2 RES2   0.0000
    40 C31      0.7567   5.9137   9.8185   C.ar      2 RES2   0.0000
    41 C32      1.0954   4.5638   9.9270   C.ar      2 RES2   0.0000
    42 C33      0.1111   3.5858   9.7928   C.ar      2 RES2   0.0000
    43 C34     -3.1106   2.8819   7.8345   C.ar      2 RES2   0.0000
    44 C35     -4.0612   1.9197   7.4968   C.ar      2 RES2   0.0000
    45 C36     -4.6838   1.9618   6.2491   C.ar      2 RES2   0.0000
    46 C37     -4.3568   2.9689   5.3405   C.ar      2 RES2   0.0000
    47 C38     -3.4065   3.9325   5.6782   C.ar      2 RES2   0.0000
    48 C39     -2.7835   3.8890   6.9259   C.ar      2 RES2   0.0000
    49 C40     -1.6818   1.2600   9.5798   C.ar      2 RES2   0.0000
    50 C41     -1.3909   0.8496  10.8817   C.ar      2 RES2   0.0000
    51 C42     -0.7206  -0.3546  11.0987   C.ar      2 RES2   0.0000
    52 C43     -0.3418  -1.1472  10.0152   C.ar      2 RES2   0.0000
    53 C44     -0.6334  -0.7357   8.7146   C.ar      2 RES2   0.0000
    54 C45     -1.3030   0.4673   8.4963   C.ar      2 RES2   0.0000
    55 C46     -3.6806   2.8583  10.5115   C.ar      2 RES2   0.0000
    56 C47     -4.0334   4.0549  11.1353   C.ar      2 RES2   0.0000
    57 C48     -5.1525   4.1032  11.9680   C.ar      2 RES2   0.0000
    58 C49     -5.9168   2.9549  12.1769   C.ar      2 RES2   0.0000
    59 C50     -5.5621   1.7583  11.5530   C.ar      2 RES2   0.0000
    60 C51     -4.4450   1.7100  10.7204   C.ar      2 RES2   0.0000
    61 B2       6.6831   1.7520  10.7516   B         3 RES3  -1.0000
    62 C52      7.9862   1.6390   9.6599   C.ar      3 RES3   0.0000
    63 C53      9.2992   1.8111  10.0979   C.ar      3 RES3   0.0000
    64 C54     10.3470   1.8120   9.1784   C.ar      3 RES3   0.0000
    65 C55     10.0826   1.6395   7.8196   C.ar      3 RES3   0.0000
    66 C56      8.7703   1.4662   7.3802   C.ar      3 RES3   0.0000
    67 C57      7.7218   1.4665   8.3010   C.ar      3 RES3   0.0000
    68 C58      6.0530   3.2947  10.6376   C.ar      3 RES3   0.0000
    69 C59      5.3605   3.8533  11.7117   C.ar      3 RES3   0.0000
    70 C60      4.7246   5.0870  11.5652   C.ar      3 RES3   0.0000
    71 C61      4.7827   5.7619  10.3461   C.ar      3 RES3   0.0000
    72 C62      5.4755   5.2019   9.2720   C.ar      3 RES3   0.0000
    73 C63      6.1095   3.9698   9.4171   C.ar      3 RES3   0.0000
    74 C64      7.2036   1.3868  12.3410   C.ar      3 RES3   0.0000
    75 C65      7.0376   0.1106  12.8780   C.ar      3 RES3   0.0000
    76 C66      7.5258  -0.1777  14.1528   C.ar      3 RES3   0.0000
    77 C67      8.1803   0.8103  14.8892   C.ar      3 RES3   0.0000
    78 C68      8.3466   2.0867  14.3508   C.ar      3 RES3   0.0000
    79 C69      7.8581   2.3748  13.0774   C.ar      3 RES3   0.0000
    80 C70      5.4531   0.6508  10.3637   C.ar      3 RES3   0.0000
    81 C71      5.7477  -0.5715   9.7589   C.ar      3 RES3   0.0000
    82 C72      4.7240  -1.4809   9.4903   C.ar      3 RES3   0.0000
    83 C73      3.4058  -1.1665   9.8253   C.ar      3 RES3   0.0000
    84 C74      3.1128   0.0556  10.4315   C.ar      3 RES3   0.0000
    85 C75      4.1368   0.9636  10.7000   C.ar      3 RES3   0.0000
@<TRIPOS>BOND
     1     1     2    1
     2     2     9    1
     3     3     1    1
     4     4     1    1
     5     5     1    1
     6     6    29    1
     7     7     1    1
     8     8     1    1
     9     9    10    1
    10    10     3    1
    11    11     2    1
    12    12    11    1
    13    13     2    1
    14    14    13    1
    15    15     3    1
    16    16    15    1
    17    17     3    1
    18    18    17    1
    19    19     4    1
    20    20     5    1
    21    21     4    1
    22    22    21    1
    23    23     4    1
    24    24    23    1
    25    25     5    1
    26    26    25    1
    27    27     5    1
    28    28    27    1
    29    29     7   un
    30    30     6    1
    31    31    30    1
    32    32     6    1
    33    33    32    1
    34    34     6    1
    35    35    34    1
    36     8    29   un
    37    19    20    1
    38    36    37    1
    39    37    38   ar
    40    38    39   ar
    41    39    40   ar
    42    40    41   ar
    43    41    42   ar
    44    42    37   ar
    45    43    36    1
    46    44    43   ar
    47    45    44   ar
    48    46    45   ar
    49    47    46   ar
    50    48    43   ar
    51    49    36    1
    52    50    49   ar
    53    51    50   ar
    54    52    51   ar
    55    53    52   ar
    56    54    49   ar
    57    55    36    1
    58    56    55   ar
    59    57    56   ar
    60    58    57   ar
    61    59    58   ar
    62    60    55   ar
    63    47    48   ar
    64    53    54   ar
    65    59    60   ar
    66    61    62    1
    67    62    63   ar
    68    63    64   ar
    69    64    65   ar
    70    65    66   ar
    71    66    67   ar
    72    67    62   ar
    73    68    61    1
    74    69    68   ar
    75    70    69   ar
    76    71    70   ar
    77    72    71   ar
    78    73    68   ar
    79    74    61    1
    80    75    74   ar
    81    76    75   ar
    82    77    76   ar
    83    78    77   ar
    84    79    74   ar
    85    80    61    1
    86    81    80   ar
    87    82    81   ar
    88    83    82   ar
    89    84    83   ar
    90    85    80   ar
    91    72    73   ar
    92    78    79   ar
    93    84    85   ar
@<TRIPOS>SUBSTRUCTURE
     1 RES1        1 GROUP             0 ****  ****    0  
     2 RES2       36 GROUP             0 ****  ****    0  
     3 RES3       61 GROUP             0 ****  ****    0  
@<TRIPOS>CRYSIN
   18.5830   14.8360   14.0190   94.3800  102.5600  103.3400     2     1
