@<TRIPOS>MOLECULE
TIGBOE05
   152   163     3     0     0
SMALL
USER_CHARGES
****
Generated from the CSD

@<TRIPOS>ATOM
     1 B1       9.1198  10.2537  11.8959   B         1 RES1  -1.0000
     2 C1       7.8697  10.4026  10.8226   C.ar      1 RES1   0.0000
     3 C2       7.9937  10.9746   9.5548   C.ar      1 RES1   0.0000
     4 H1       8.8278  11.3251   9.2997   H         1 RES1   0.0000
     5 C3       6.9360  11.0493   8.6512   C.ar      1 RES1   0.0000
     6 H2       7.0672  11.4446   7.8087   H         1 RES1   0.0000
     7 C4       5.7035  10.5478   8.9848   C.ar      1 RES1   0.0000
     8 H3       4.9883  10.5921   8.3762   H         1 RES1   0.0000
     9 C5       5.5311   9.9760  10.2290   C.ar      1 RES1   0.0000
    10 H4       4.6936   9.6237  10.4701   H         1 RES1   0.0000
    11 C6       6.5873   9.9194  11.1253   C.ar      1 RES1   0.0000
    12 H5       6.4379   9.5406  11.9725   H         1 RES1   0.0000
    13 C7       9.7023   8.7116  11.8312   C.ar      1 RES1   0.0000
    14 C8       8.8573   7.6061  11.7268   C.ar      1 RES1   0.0000
    15 H6       7.9376   7.7576  11.6052   H         1 RES1   0.0000
    16 C9       9.3053   6.2947  11.7930   C.ar      1 RES1   0.0000
    17 H7       8.6910   5.5865  11.7248   H         1 RES1   0.0000
    18 C10     10.6357   6.0278  11.9567   C.ar      1 RES1   0.0000
    19 H8      10.9455   5.1410  11.9906   H         1 RES1   0.0000
    20 C11     11.5069   7.0732  12.0703   C.ar      1 RES1   0.0000
    21 H9      12.4244   6.9049  12.1879   H         1 RES1   0.0000
    22 C12     11.0499   8.3872  12.0137   C.ar      1 RES1   0.0000
    23 H10     11.6732   9.0852  12.1019   H         1 RES1   0.0000
    24 C13      8.5892  10.4817  13.4445   C.ar      1 RES1   0.0000
    25 C14      9.0763   9.7414  14.5265   C.ar      1 RES1   0.0000
    26 H11      9.7391   9.0950  14.3639   H         1 RES1   0.0000
    27 C15      8.6282   9.9141  15.8262   C.ar      1 RES1   0.0000
    28 H12      8.9822   9.3840  16.5170   H         1 RES1   0.0000
    29 C16      7.6715  10.8586  16.1103   C.ar      1 RES1   0.0000
    30 H13      7.3565  10.9706  16.9889   H         1 RES1   0.0000
    31 C17      7.1808  11.6368  15.0870   C.ar      1 RES1   0.0000
    32 H14      6.5378  12.2982  15.2675   H         1 RES1   0.0000
    33 C18      7.6316  11.4467  13.7930   C.ar      1 RES1   0.0000
    34 H15      7.2789  11.9915  13.1128   H         1 RES1   0.0000
    35 C19     10.2860  11.3571  11.5255   C.ar      1 RES1   0.0000
    36 C20     10.4632  12.5460  12.2356   C.ar      1 RES1   0.0000
    37 H16      9.9354  12.6992  12.9982   H         1 RES1   0.0000
    38 C21     11.3907  13.5138  11.8588   C.ar      1 RES1   0.0000
    39 H17     11.4712  14.3028  12.3633   H         1 RES1   0.0000
    40 C22     12.1840  13.3288  10.7667   C.ar      1 RES1   0.0000
    41 H18     12.8092  13.9840  10.5141   H         1 RES1   0.0000
    42 C23     12.0570  12.1677  10.0394   C.ar      1 RES1   0.0000
    43 H19     12.6020  12.0247   9.2870   H         1 RES1   0.0000
    44 C24     11.1228  11.2041  10.4147   C.ar      1 RES1   0.0000
    45 H20     11.0522  10.4200   9.9010   H         1 RES1   0.0000
    46 B2       9.0241   2.6921   3.1337   B         2 RES2  -1.0000
    47 C25      8.5085   2.9380   4.6806   C.ar      2 RES2   0.0000
    48 C26      9.0708   2.3272   5.8055   C.ar      2 RES2   0.0000
    49 H21      9.7409   1.6808   5.6759   H         2 RES2   0.0000
    50 C27      8.6850   2.6312   7.1086   C.ar      2 RES2   0.0000
    51 H22      9.0761   2.1740   7.8312   H         2 RES2   0.0000
    52 C28      7.7314   3.5992   7.3419   C.ar      2 RES2   0.0000
    53 H23      7.4743   3.8185   8.2190   H         2 RES2   0.0000
    54 C29      7.1649   4.2401   6.2592   C.ar      2 RES2   0.0000
    55 H24      6.5207   4.9106   6.3981   H         2 RES2   0.0000
    56 C30      7.5382   3.9036   4.9724   C.ar      2 RES2   0.0000
    57 H25      7.1193   4.3455   4.2564   H         2 RES2   0.0000
    58 C31     10.1800   3.8355   2.8254   C.ar      2 RES2   0.0000
    59 C32     11.0505   4.3039   3.8185   C.ar      2 RES2   0.0000
    60 H26     10.9518   3.9768   4.6943   H         2 RES2   0.0000
    61 C33     12.0531   5.2311   3.5636   C.ar      2 RES2   0.0000
    62 H27     12.6253   5.5025   4.2582   H         2 RES2   0.0000
    63 C34     12.2143   5.7546   2.3025   C.ar      2 RES2   0.0000
    64 H28     12.8798   6.3966   2.1331   H         2 RES2   0.0000
    65 C35     11.3853   5.3228   1.2928   C.ar      2 RES2   0.0000
    66 H29     11.4843   5.6672   0.4237   H         2 RES2   0.0000
    67 C36     10.4004   4.3762   1.5581   C.ar      2 RES2   0.0000
    68 H30      9.8564   4.0866   0.8484   H         2 RES2   0.0000
    69 C37      7.7537   2.8252   2.0851   C.ar      2 RES2   0.0000
    70 C38      7.2623   4.0587   1.6350   C.ar      2 RES2   0.0000
    71 H31      7.6756   4.8460   1.9398   H         2 RES2   0.0000
    72 C39      6.1888   4.1667   0.7564   C.ar      2 RES2   0.0000
    73 H32      5.9009   5.0159   0.4740   H         2 RES2   0.0000
    74 C40      5.5476   3.0425   0.2990   C.ar      2 RES2   0.0000
    75 H33      4.8190   3.1148  -0.2909   H         2 RES2   0.0000
    76 C41      5.9861   1.8090   0.7162   C.ar      2 RES2   0.0000
    77 H34      5.5524   1.0302   0.4182   H         2 RES2   0.0000
    78 C42      7.0706   1.7134   1.5786   C.ar      2 RES2   0.0000
    79 H35      7.3611   0.8571   1.8354   H         2 RES2   0.0000
    80 C43      9.6528   1.1968   2.8702   C.ar      2 RES2   0.0000
    81 C44     10.4942   0.9572   1.7770   C.ar      2 RES2   0.0000
    82 H36     10.8195   1.6931   1.2908   H         2 RES2   0.0000
    83 C45     10.8693  -0.3167   1.3794   C.ar      2 RES2   0.0000
    84 H37     11.4254  -0.4281   0.6300   H         2 RES2   0.0000
    85 C46     10.4309  -1.4220   2.0767   C.ar      2 RES2   0.0000
    86 H38     10.6738  -2.2881   1.8036   H         2 RES2   0.0000
    87 C47      9.6331  -1.2340   3.1772   C.ar      2 RES2   0.0000
    88 H39      9.3415  -1.9763   3.6748   H         2 RES2   0.0000
    89 C48      9.2533   0.0461   3.5608   C.ar      2 RES2   0.0000
    90 H40      8.7040   0.1442   4.3173   H         2 RES2   0.0000
    91 C49     10.1626  14.4927   7.9184   C.3       3 RES3   0.0000
    92 H41     10.1879  14.0253   8.7678   H         3 RES3   0.0000
    93 H42      9.3246  14.9749   7.8393   H         3 RES3   0.0000
    94 H43     10.9015  15.1201   7.8727   H         3 RES3   0.0000
    95 C50     11.2882  13.3155   5.9768   C.2       3 RES3   0.0000
    96 H44     12.1050  13.7789   5.9373   H         3 RES3   0.0000
    97 C51     10.8812  12.2857   5.1834   C.2       3 RES3   0.0000
    98 C52     11.4966  11.5176   4.1195   C.2       3 RES3   0.0000
    99 H45     12.3753  11.6964   3.8375   H         3 RES3   0.0000
   100 C53     11.4653   9.6844   2.6298   C.3       3 RES3   0.0000
   101 H46     11.9037   8.9617   3.1261   H         3 RES3   0.0000
   102 H47     12.1561  10.1736   2.1371   H         3 RES3   0.0000
   103 C54     10.4849   9.0869   1.6489   C.3       3 RES3   0.0000
   104 H48     10.9884   8.5670   0.9884   H         3 RES3   0.0000
   105 H49     10.0434   9.8199   1.1706   H         3 RES3   0.0000
   106 C55      9.4104   8.1896   2.2483   C.3       3 RES3   0.0000
   107 H50      9.1320   7.5449   1.5648   H         3 RES3   0.0000
   108 H51      9.8099   7.6815   2.9849   H         3 RES3   0.0000
   109 C56      7.4500   9.4681   1.6133   C.3       3 RES3   0.0000
   110 H52      8.0184  10.1061   1.1550   H         3 RES3   0.0000
   111 H53      6.6526   9.9174   1.9348   H         3 RES3   0.0000
   112 H54      7.1968   8.7608   0.9993   H         3 RES3   0.0000
   113 C57      7.3224   7.8562   3.4096   C.3       3 RES3   0.0000
   114 H55      7.8348   7.4428   4.1356   H         3 RES3   0.0000
   115 H56      7.1409   7.1566   2.7480   H         3 RES3   0.0000
   116 C58      5.9828   8.3200   3.9839   C.3       3 RES3   0.0000
   117 H57      5.4608   8.7104   3.2521   H         3 RES3   0.0000
   118 H58      5.4978   7.5267   4.2941   H         3 RES3   0.0000
   119 C59      6.0115   9.3279   5.1287   C.3       3 RES3   0.0000
   120 H59      5.0971   9.5595   5.3937   H         3 RES3   0.0000
   121 H60      6.4688   8.9408   5.9040   H         3 RES3   0.0000
   122 C60      6.0566  11.5414   4.2703   C.2       3 RES3   0.0000
   123 H61      5.1376  11.6374   4.4431   H         3 RES3   0.0000
   124 C61      6.8002  12.5387   3.5240   C.2       3 RES3   0.0000
   125 C62      6.5251  13.7319   2.9447   C.2       3 RES3   0.0000
   126 H62      5.7251  14.2218   3.0037   H         3 RES3   0.0000
   127 C63      7.8830  15.2292   1.4184   C.3       3 RES3   0.0000
   128 H63      7.3656  15.1484   0.6016   H         3 RES3   0.0000
   129 H64      8.8269  15.2709   1.2004   H         3 RES3   0.0000
   130 H65      7.6229  16.0379   1.8868   H         3 RES3   0.0000
   131 C64      9.3518   8.6583   6.6851   C.2       3 RES3   0.0000
   132 H66      9.1127   9.3476   7.2775   H         3 RES3   0.0000
   133 C65      9.7879   7.3059   8.6238   C.3       3 RES3   0.0000
   134 H67      9.3109   8.0217   9.0722   H         3 RES3   0.0000
   135 H68     10.7102   7.2938   8.9260   H         3 RES3   0.0000
   136 H69      9.3685   6.4571   8.8317   H         3 RES3   0.0000
   137 C66     10.1524   6.4174   6.3380   C.3       3 RES3   0.0000
   138 H70     10.3522   6.7497   5.4488   H         3 RES3   0.0000
   139 H71      9.4308   5.7714   6.2874   H         3 RES3   0.0000
   140 H72     10.9417   5.9922   6.7089   H         3 RES3   0.0000
   141 Fe1      8.7846  10.4233   4.2335   Fe        3 RES3   2.0000
   142 N1      10.2752  13.5244   6.8230   N.pl3     3 RES3   0.0000
   143 N2       9.2639  12.6751   6.5949   N.2       3 RES3   0.0000
   144 N3       9.6381  11.9111   5.5936   N.2       3 RES3   0.0000
   145 N4      10.8106  10.5963   3.5808   N.2       3 RES3   0.0000
   146 N5       8.1880   8.8836   2.7650   N.3       3 RES3   0.0000
   147 N6       6.7163  10.5220   4.6821   N.2       3 RES3   0.0000
   148 N7       8.0754  12.2003   3.1787   N.2       3 RES3   0.0000
   149 N8       8.5859  13.1411   2.4164   N.2       3 RES3   0.0000
   150 N9       7.6302  14.0689   2.2719   N.pl3     3 RES3   0.0000
   151 N10      9.7528   7.5252   7.1909   N.am      3 RES3   0.0000
   152 O1       9.2675   8.8768   5.4766   O.2       3 RES3   0.0000
@<TRIPOS>BOND
     1     1     2    1
     2     2     3   ar
     3     3     4    1
     4     5     3   ar
     5     6     5    1
     6     7     5   ar
     7     8     7    1
     8     9     7   ar
     9    10     9    1
    10    11     2   ar
    11    12    11    1
    12    13     1    1
    13    14    13   ar
    14    15    14    1
    15    16    14   ar
    16    17    16    1
    17    18    16   ar
    18    19    18    1
    19    20    18   ar
    20    21    20    1
    21    22    13   ar
    22    23    22    1
    23    24     1    1
    24    25    24   ar
    25    26    25    1
    26    27    25   ar
    27    28    27    1
    28    29    27   ar
    29    30    29    1
    30    31    29   ar
    31    32    31    1
    32    33    24   ar
    33    34    33    1
    34    35     1    1
    35    36    35   ar
    36    37    36    1
    37    38    36   ar
    38    39    38    1
    39    40    38   ar
    40    41    40    1
    41    42    40   ar
    42    43    42    1
    43    44    35   ar
    44    45    44    1
    45     9    11   ar
    46    20    22   ar
    47    31    33   ar
    48    42    44   ar
    49    46    47    1
    50    47    48   ar
    51    48    49    1
    52    50    48   ar
    53    51    50    1
    54    52    50   ar
    55    53    52    1
    56    54    52   ar
    57    55    54    1
    58    56    47   ar
    59    57    56    1
    60    58    46    1
    61    59    58   ar
    62    60    59    1
    63    61    59   ar
    64    62    61    1
    65    63    61   ar
    66    64    63    1
    67    65    63   ar
    68    66    65    1
    69    67    58   ar
    70    68    67    1
    71    69    46    1
    72    70    69   ar
    73    71    70    1
    74    72    70   ar
    75    73    72    1
    76    74    72   ar
    77    75    74    1
    78    76    74   ar
    79    77    76    1
    80    78    69   ar
    81    79    78    1
    82    80    46    1
    83    81    80   ar
    84    82    81    1
    85    83    81   ar
    86    84    83    1
    87    85    83   ar
    88    86    85    1
    89    87    85   ar
    90    88    87    1
    91    89    80   ar
    92    90    89    1
    93    54    56   ar
    94    65    67   ar
    95    76    78   ar
    96    87    89   ar
    97    91    92    1
    98    93    91    1
    99    94    91    1
   100    95    96    1
   101    97    95    2
   102    98    97    1
   103    99    98    1
   104   100   101    1
   105   102   100    1
   106   103   100    1
   107   104   103    1
   108   105   103    1
   109   106   103    1
   110   107   106    1
   111   108   106    1
   112   109   110    1
   113   111   109    1
   114   112   109    1
   115   113   114    1
   116   115   113    1
   117   116   113    1
   118   117   116    1
   119   118   116    1
   120   119   116    1
   121   120   119    1
   122   121   119    1
   123   122   123    1
   124   124   122    1
   125   125   124    2
   126   126   125    1
   127   127   128    1
   128   129   127    1
   129   130   127    1
   130   131   132    1
   131   133   134    1
   132   135   133    1
   133   136   133    1
   134   137   138    1
   135   139   137    1
   136   140   137    1
   137   141   144    1
   138   142    91    1
   139   143   142    1
   140   144    97    1
   141   145    98    2
   142   146   106    1
   143   147   119    1
   144   148   124    1
   145   149   148    2
   146   150   125    1
   147   151   131   am
   148   152   131    2
   149    95   142    1
   150   100   145    1
   151   109   146    1
   152   113   146    1
   153   122   147    2
   154   127   150    1
   155   133   151    1
   156   137   151    1
   157   141   145    1
   158   141   146    1
   159   141   147    1
   160   141   148    1
   161   141   152    1
   162   143   144    2
   163   149   150    1
@<TRIPOS>SUBSTRUCTURE
     1 RES1        1 GROUP             0 ****  ****    0  
     2 RES2       46 GROUP             0 ****  ****    0  
     3 RES3       91 GROUP             0 ****  ****    0  
@<TRIPOS>CRYSIN
   13.2607   13.3841   20.0115   70.6220   75.5100   62.1270     2     1
