@<TRIPOS>MOLECULE
TIGBOE03
   152   163     3     0     0
SMALL
USER_CHARGES
****
Generated from the CSD

@<TRIPOS>ATOM
     1 B1       9.0549  10.1776  11.8901   B         1 RES1  -1.0000
     2 C1       7.7956  10.3259  10.8204   C.ar      1 RES1   0.0000
     3 C2       7.9210  10.8950   9.5502   C.ar      1 RES1   0.0000
     4 H1       8.7670  11.2390   9.2889   H         1 RES1   0.0000
     5 C3       6.8605  10.9821   8.6492   C.ar      1 RES1   0.0000
     6 H2       6.9886  11.3885   7.8004   H         1 RES1   0.0000
     7 C4       5.6210  10.4748   8.9934   C.ar      1 RES1   0.0000
     8 H3       4.8968  10.5212   8.3809   H         1 RES1   0.0000
     9 C5       5.4485   9.9008  10.2354   C.ar      1 RES1   0.0000
    10 H4       4.6036   9.5437  10.4808   H         1 RES1   0.0000
    11 C6       6.5154   9.8473  11.1299   C.ar      1 RES1   0.0000
    12 H5       6.3676   9.4687  11.9887   H         1 RES1   0.0000
    13 C7       9.6319   8.6261  11.8324   C.ar      1 RES1   0.0000
    14 C8       8.7746   7.5236  11.7298   C.ar      1 RES1   0.0000
    15 H6       7.8471   7.6823  11.6026   H         1 RES1   0.0000
    16 C9       9.2174   6.2131  11.8054   C.ar      1 RES1   0.0000
    17 H7       8.5929   5.5001  11.7427   H         1 RES1   0.0000
    18 C10     10.5523   5.9394  11.9702   C.ar      1 RES1   0.0000
    19 H8      10.8578   5.0406  12.0102   H         1 RES1   0.0000
    20 C11     11.4389   6.9841  12.0765   C.ar      1 RES1   0.0000
    21 H9      12.3658   6.8110  12.1927   H         1 RES1   0.0000
    22 C12     10.9795   8.2978  12.0134   C.ar      1 RES1   0.0000
    23 H10     11.6101   9.0030  12.0973   H         1 RES1   0.0000
    24 C13      8.5251  10.4109  13.4398   C.ar      1 RES1   0.0000
    25 C14      8.9965   9.6645  14.5230   C.ar      1 RES1   0.0000
    26 H11      9.6559   8.9993  14.3607   H         1 RES1   0.0000
    27 C15      8.5473   9.8480  15.8325   C.ar      1 RES1   0.0000
    28 H12      8.8984   9.3141  16.5351   H         1 RES1   0.0000
    29 C16      7.5966  10.8001  16.1044   C.ar      1 RES1   0.0000
    30 H13      7.2687  10.9138  16.9886   H         1 RES1   0.0000
    31 C17      7.1263  11.5896  15.0794   C.ar      1 RES1   0.0000
    32 H14      6.4889  12.2702  15.2624   H         1 RES1   0.0000
    33 C18      7.5737  11.3968  13.7838   C.ar      1 RES1   0.0000
    34 H15      7.2257  11.9516  13.0957   H         1 RES1   0.0000
    35 C19     10.2249  11.2780  11.5179   C.ar      1 RES1   0.0000
    36 C20     10.4154  12.4645  12.2315   C.ar      1 RES1   0.0000
    37 H16      9.8915  12.6205  13.0081   H         1 RES1   0.0000
    38 C21     11.3467  13.4283  11.8492   C.ar      1 RES1   0.0000
    39 H17     11.4402  14.2228  12.3612   H         1 RES1   0.0000
    40 C22     12.1268  13.2391  10.7368   C.ar      1 RES1   0.0000
    41 H18     12.7527  13.9026  10.4697   H         1 RES1   0.0000
    42 C23     11.9933  12.0776  10.0152   C.ar      1 RES1   0.0000
    43 H19     12.5387  11.9280   9.2519   H         1 RES1   0.0000
    44 C24     11.0598  11.1189  10.3993   C.ar      1 RES1   0.0000
    45 H20     10.9841  10.3240   9.8839   H         1 RES1   0.0000
    46 B2       8.9732   2.6829   3.1380   B         2 RES2  -1.0000
    47 C25      8.4540   2.9380   4.6808   C.ar      2 RES2   0.0000
    48 C26      9.0139   2.3334   5.8175   C.ar      2 RES2   0.0000
    49 H21      9.6942   1.6809   5.6954   H         2 RES2   0.0000
    50 C27      8.6199   2.6446   7.1119   C.ar      2 RES2   0.0000
    51 H22      9.0145   2.1896   7.8465   H         2 RES2   0.0000
    52 C28      7.6541   3.6130   7.3423   C.ar      2 RES2   0.0000
    53 H23      7.3858   3.8345   8.2261   H         2 RES2   0.0000
    54 C29      7.0957   4.2475   6.2489   C.ar      2 RES2   0.0000
    55 H24      6.4446   4.9274   6.3797   H         2 RES2   0.0000
    56 C30      7.4784   3.8982   4.9614   C.ar      2 RES2   0.0000
    57 H25      7.0525   4.3332   4.2320   H         2 RES2   0.0000
    58 C31     10.1389   3.8257   2.8257   C.ar      2 RES2   0.0000
    59 C32     11.0168   4.2803   3.8141   C.ar      2 RES2   0.0000
    60 H26     10.9181   3.9465   4.6982   H         2 RES2   0.0000
    61 C33     12.0290   5.2001   3.5572   C.ar      2 RES2   0.0000
    62 H27     12.6112   5.4707   4.2573   H         2 RES2   0.0000
    63 C34     12.1901   5.7215   2.2887   C.ar      2 RES2   0.0000
    64 H28     12.8719   6.3588   2.1132   H         2 RES2   0.0000
    65 C35     11.3465   5.3022   1.2779   C.ar      2 RES2   0.0000
    66 H29     11.4441   5.6534   0.4005   H         2 RES2   0.0000
    67 C36     10.3524   4.3659   1.5481   C.ar      2 RES2   0.0000
    68 H30      9.7932   4.0804   0.8354   H         2 RES2   0.0000
    69 C37      7.7100   2.8048   2.0752   C.ar      2 RES2   0.0000
    70 C38      7.2075   4.0334   1.6302   C.ar      2 RES2   0.0000
    71 H31      7.6118   4.8327   1.9467   H         2 RES2   0.0000
    72 C39      6.1400   4.1294   0.7411   C.ar      2 RES2   0.0000
    73 H32      5.8460   4.9843   0.4484   H         2 RES2   0.0000
    74 C40      5.5066   2.9981   0.2837   C.ar      2 RES2   0.0000
    75 H33      4.7693   3.0686  -0.3113   H         2 RES2   0.0000
    76 C41      5.9522   1.7569   0.6977   C.ar      2 RES2   0.0000
    77 H34      5.5249   0.9661   0.3913   H         2 RES2   0.0000
    78 C42      7.0405   1.6784   1.5727   C.ar      2 RES2   0.0000
    79 H35      7.3431   0.8189   1.8404   H         2 RES2   0.0000
    80 C43      9.6238   1.1889   2.8785   C.ar      2 RES2   0.0000
    81 C44     10.4641   0.9445   1.7845   C.ar      2 RES2   0.0000
    82 H36     10.7817   1.6880   1.2851   H         2 RES2   0.0000
    83 C45     10.8543  -0.3270   1.3942   C.ar      2 RES2   0.0000
    84 H37     11.4184  -0.4386   0.6376   H         2 RES2   0.0000
    85 C46     10.4259  -1.4290   2.1036   C.ar      2 RES2   0.0000
    86 H38     10.6785  -2.3046   1.8337   H         2 RES2   0.0000
    87 C47      9.6261  -1.2410   3.2111   C.ar      2 RES2   0.0000
    88 H39      9.3422  -1.9898   3.7221   H         2 RES2   0.0000
    89 C48      9.2339   0.0338   3.5822   C.ar      2 RES2   0.0000
    90 H40      8.6763   0.1336   4.3452   H         2 RES2   0.0000
    91 C49     10.0386  14.3601   7.9507   C.3       3 RES3   0.0000
    92 H41      9.1741  14.8180   7.8892   H         3 RES3   0.0000
    93 H42     10.7614  15.0207   7.9059   H         3 RES3   0.0000
    94 H43     10.0916  13.8753   8.8005   H         3 RES3   0.0000
    95 C50     11.2008  13.2299   6.0011   C.2       3 RES3   0.0000
    96 H44     12.0210  13.7073   5.9787   H         3 RES3   0.0000
    97 C51     10.8113  12.2055   5.1863   C.2       3 RES3   0.0000
    98 C52     11.4418  11.4604   4.1237   C.2       3 RES3   0.0000
    99 H45     12.3293  11.6493   3.8441   H         3 RES3   0.0000
   100 C53     11.4134   9.6366   2.6209   C.3       3 RES3   0.0000
   101 H46     11.8639   8.9090   3.1183   H         3 RES3   0.0000
   102 H47     12.1065  10.1427   2.1279   H         3 RES3   0.0000
   103 C54     10.4424   9.0339   1.6321   C.3       3 RES3   0.0000
   104 H48     10.9565   8.5050   0.9714   H         3 RES3   0.0000
   105 H49      9.9967   9.7694   1.1424   H         3 RES3   0.0000
   106 C55      9.3662   8.1339   2.2406   C.3       3 RES3   0.0000
   107 H50      9.0704   7.4917   1.5479   H         3 RES3   0.0000
   108 H51      9.7765   7.6111   2.9739   H         3 RES3   0.0000
   109 C56      7.4017   9.4086   1.6411   C.3       3 RES3   0.0000
   110 H52      6.5954   9.8556   1.9749   H         3 RES3   0.0000
   111 H53      7.1453   8.6918   1.0239   H         3 RES3   0.0000
   112 H54      7.9645  10.0587   1.1715   H         3 RES3   0.0000
   113 C57      7.3147   7.7878   3.4366   C.3       3 RES3   0.0000
   114 H55      7.8509   7.3700   4.1568   H         3 RES3   0.0000
   115 H56      7.1235   7.0840   2.7671   H         3 RES3   0.0000
   116 C58      5.9759   8.2466   4.0431   C.3       3 RES3   0.0000
   117 H57      5.4314   8.6431   3.3175   H         3 RES3   0.0000
   118 H58      5.4951   7.4438   4.3659   H         3 RES3   0.0000
   119 C59      6.0377   9.2534   5.1918   C.3       3 RES3   0.0000
   120 H59      5.1224   9.4917   5.4831   H         3 RES3   0.0000
   121 H60      6.5190   8.8600   5.9617   H         3 RES3   0.0000
   122 C60      6.0618  11.4663   4.3159   C.2       3 RES3   0.0000
   123 H61      5.1380  11.5687   4.5143   H         3 RES3   0.0000
   124 C61      6.7932  12.4451   3.5431   C.2       3 RES3   0.0000
   125 C62      6.5273  13.6421   2.9388   C.2       3 RES3   0.0000
   126 H62      5.7297  14.1543   3.0011   H         3 RES3   0.0000
   127 C63      7.8703  15.0642   1.3529   C.3       3 RES3   0.0000
   128 H63      8.8094  15.0609   1.0719   H         3 RES3   0.0000
   129 H64      7.6732  15.9002   1.8241   H         3 RES3   0.0000
   130 H65      7.2937  14.9904   0.5634   H         3 RES3   0.0000
   131 C64      9.3131   8.6087   6.6484   C.2       3 RES3   0.0000
   132 H66      9.0486   9.3113   7.2303   H         3 RES3   0.0000
   133 C65      9.6933   7.2704   8.6153   C.3       3 RES3   0.0000
   134 H67     10.6152   7.1950   8.9393   H         3 RES3   0.0000
   135 H68      9.2051   6.4470   8.8243   H         3 RES3   0.0000
   136 H69      9.2548   8.0306   9.0499   H         3 RES3   0.0000
   137 C66     10.1209   6.3534   6.3429   C.3       3 RES3   0.0000
   138 H70      9.3796   5.7169   6.2553   H         3 RES3   0.0000
   139 H71     10.8883   5.9051   6.7550   H         3 RES3   0.0000
   140 H72     10.3724   6.6846   5.4560   H         3 RES3   0.0000
   141 Fe1      8.7570  10.3578   4.2267   Fe        3 RES3   2.0000
   142 N1      10.1710  13.4145   6.8389   N.pl3     3 RES3   0.0000
   143 N2       9.1699  12.5562   6.5802   N.2       3 RES3   0.0000
   144 N3       9.5658  11.8061   5.5709   N.2       3 RES3   0.0000
   145 N4      10.7502  10.5322   3.5741   N.2       3 RES3   0.0000
   146 N5       8.1554   8.8331   2.7813   N.3       3 RES3   0.0000
   147 N6       6.7380  10.4433   4.7197   N.2       3 RES3   0.0000
   148 N7       8.0589  12.0772   3.1808   N.2       3 RES3   0.0000
   149 N8       8.5748  13.0000   2.3869   N.2       3 RES3   0.0000
   150 N9       7.6250  13.9363   2.2406   N.pl3     3 RES3   0.0000
   151 N10      9.7024   7.4745   7.1816   N.am      3 RES3   0.0000
   152 O1       9.2715   8.8107   5.4308   O.2       3 RES3   0.0000
@<TRIPOS>BOND
     1     1     2    1
     2     2     3   ar
     3     3     4    1
     4     5     3   ar
     5     6     5    1
     6     7     5   ar
     7     8     7    1
     8     9     7   ar
     9    10     9    1
    10    11     2   ar
    11    12    11    1
    12    13     1    1
    13    14    13   ar
    14    15    14    1
    15    16    14   ar
    16    17    16    1
    17    18    16   ar
    18    19    18    1
    19    20    18   ar
    20    21    20    1
    21    22    13   ar
    22    23    22    1
    23    24     1    1
    24    25    24   ar
    25    26    25    1
    26    27    25   ar
    27    28    27    1
    28    29    27   ar
    29    30    29    1
    30    31    29   ar
    31    32    31    1
    32    33    24   ar
    33    34    33    1
    34    35     1    1
    35    36    35   ar
    36    37    36    1
    37    38    36   ar
    38    39    38    1
    39    40    38   ar
    40    41    40    1
    41    42    40   ar
    42    43    42    1
    43    44    35   ar
    44    45    44    1
    45     9    11   ar
    46    20    22   ar
    47    31    33   ar
    48    42    44   ar
    49    46    47    1
    50    47    48   ar
    51    48    49    1
    52    50    48   ar
    53    51    50    1
    54    52    50   ar
    55    53    52    1
    56    54    52   ar
    57    55    54    1
    58    56    47   ar
    59    57    56    1
    60    58    46    1
    61    59    58   ar
    62    60    59    1
    63    61    59   ar
    64    62    61    1
    65    63    61   ar
    66    64    63    1
    67    65    63   ar
    68    66    65    1
    69    67    58   ar
    70    68    67    1
    71    69    46    1
    72    70    69   ar
    73    71    70    1
    74    72    70   ar
    75    73    72    1
    76    74    72   ar
    77    75    74    1
    78    76    74   ar
    79    77    76    1
    80    78    69   ar
    81    79    78    1
    82    80    46    1
    83    81    80   ar
    84    82    81    1
    85    83    81   ar
    86    84    83    1
    87    85    83   ar
    88    86    85    1
    89    87    85   ar
    90    88    87    1
    91    89    80   ar
    92    90    89    1
    93    54    56   ar
    94    65    67   ar
    95    76    78   ar
    96    87    89   ar
    97    91    92    1
    98    93    91    1
    99    94    91    1
   100    95    96    1
   101    97    95    2
   102    98    97    1
   103    99    98    1
   104   100   101    1
   105   102   100    1
   106   103   100    1
   107   104   103    1
   108   105   103    1
   109   106   103    1
   110   107   106    1
   111   108   106    1
   112   109   110    1
   113   111   109    1
   114   112   109    1
   115   113   114    1
   116   115   113    1
   117   116   113    1
   118   117   116    1
   119   118   116    1
   120   119   116    1
   121   120   119    1
   122   121   119    1
   123   122   123    1
   124   124   122    1
   125   125   124    2
   126   126   125    1
   127   127   128    1
   128   129   127    1
   129   130   127    1
   130   131   132    1
   131   133   134    1
   132   135   133    1
   133   136   133    1
   134   137   138    1
   135   139   137    1
   136   140   137    1
   137   141   144    1
   138   142    91    1
   139   143   142    1
   140   144    97    1
   141   145    98    2
   142   146   106    1
   143   147   119    1
   144   148   124    1
   145   149   148    2
   146   150   125    1
   147   151   131   am
   148   152   131    2
   149    95   142    1
   150   100   145    1
   151   109   146    1
   152   113   146    1
   153   122   147    2
   154   127   150    1
   155   133   151    1
   156   137   151    1
   157   141   145    1
   158   141   146    1
   159   141   147    1
   160   141   148    1
   161   141   152    1
   162   143   144    2
   163   149   150    1
@<TRIPOS>SUBSTRUCTURE
     1 RES1        1 GROUP             0 ****  ****    0  
     2 RES2       46 GROUP             0 ****  ****    0  
     3 RES3       91 GROUP             0 ****  ****    0  
@<TRIPOS>CRYSIN
   13.2047   13.2955   20.0155   70.8400   75.7490   62.0820     2     1
