@<TRIPOS>MOLECULE
TIGBOE08
   152   163     3     0     0
SMALL
USER_CHARGES
****
Generated from the CSD

@<TRIPOS>ATOM
     1 B1      12.7302   4.3967  11.9758   B         1 RES1  -1.0000
     2 C1      11.4765   4.5489  10.9025   C.ar      1 RES1   0.0000
     3 C2      11.6001   5.1202   9.6345   C.ar      1 RES1   0.0000
     4 H1      12.4263   5.4651   9.3833   H         1 RES1   0.0000
     5 C3      10.5499   5.1980   8.7317   C.ar      1 RES1   0.0000
     6 H2      10.6835   5.5995   7.9034   H         1 RES1   0.0000
     7 C4       9.3234   4.6918   9.0483   C.ar      1 RES1   0.0000
     8 H3       8.6227   4.7346   8.4390   H         1 RES1   0.0000
     9 C5       9.1431   4.1158  10.2895   C.ar      1 RES1   0.0000
    10 H4       8.3142   3.7633  10.5222   H         1 RES1   0.0000
    11 C6      10.1961   4.0617  11.1890   C.ar      1 RES1   0.0000
    12 H5      10.0444   3.6831  12.0248   H         1 RES1   0.0000
    13 C7      13.3196   2.8510  11.9019   C.ar      1 RES1   0.0000
    14 C8      12.4872   1.7427  11.7714   C.ar      1 RES1   0.0000
    15 H6      11.5780   1.8883  11.6402   H         1 RES1   0.0000
    16 C9      12.9403   0.4338  11.8264   C.ar      1 RES1   0.0000
    17 H7      12.3364  -0.2683  11.7407   H         1 RES1   0.0000
    18 C10     14.2639   0.1695  12.0053   C.ar      1 RES1   0.0000
    19 H8      14.5747  -0.7067  12.0291   H         1 RES1   0.0000
    20 C11     15.1259   1.2202  12.1496   C.ar      1 RES1   0.0000
    21 H9      16.0326   1.0584  12.2786   H         1 RES1   0.0000
    22 C12     14.6603   2.5284  12.1050   C.ar      1 RES1   0.0000
    23 H10     15.2712   3.2208  12.2159   H         1 RES1   0.0000
    24 C13     12.1971   4.6173  13.5281   C.ar      1 RES1   0.0000
    25 C14     12.6897   3.8868  14.6087   C.ar      1 RES1   0.0000
    26 H11     13.3490   3.2509  14.4480   H         1 RES1   0.0000
    27 C15     12.2466   4.0598  15.9100   C.ar      1 RES1   0.0000
    28 H12     12.6087   3.5447  16.5942   H         1 RES1   0.0000
    29 C16     11.2813   4.9848  16.1938   C.ar      1 RES1   0.0000
    30 H13     10.9682   5.0888  17.0636   H         1 RES1   0.0000
    31 C17     10.7793   5.7548  15.1782   C.ar      1 RES1   0.0000
    32 H14     10.1383   6.4034  15.3599   H         1 RES1   0.0000
    33 C18     11.2278   5.5673  13.8773   C.ar      1 RES1   0.0000
    34 H15     10.8677   6.0994  13.2046   H         1 RES1   0.0000
    35 C19     13.8938   5.5068  11.6142   C.ar      1 RES1   0.0000
    36 C20     14.0594   6.7022  12.3083   C.ar      1 RES1   0.0000
    37 H16     13.5302   6.8586  13.0566   H         1 RES1   0.0000
    38 C21     14.9795   7.6696  11.9353   C.ar      1 RES1   0.0000
    39 H17     15.0427   8.4549  12.4287   H         1 RES1   0.0000
    40 C22     15.7846   7.4871  10.8633   C.ar      1 RES1   0.0000
    41 H18     16.3999   8.1406  10.6189   H         1 RES1   0.0000
    42 C23     15.6792   6.3164  10.1381   C.ar      1 RES1   0.0000
    43 H19     16.2304   6.1715   9.4036   H         1 RES1   0.0000
    44 C24     14.7419   5.3529  10.5112   C.ar      1 RES1   0.0000
    45 H20     14.6780   4.5750  10.0055   H         1 RES1   0.0000
    46 B2      12.6474  -3.2574   3.1555   B         2 RES2  -1.0000
    47 C25     12.1366  -3.0247   4.7111   C.ar      2 RES2   0.0000
    48 C26     12.7136  -3.6325   5.8229   C.ar      2 RES2   0.0000
    49 H21     13.3820  -4.2646   5.6863   H         2 RES2   0.0000
    50 C27     12.3354  -3.3360   7.1344   C.ar      2 RES2   0.0000
    51 H22     12.7351  -3.7829   7.8451   H         2 RES2   0.0000
    52 C28     11.3751  -2.3911   7.3758   C.ar      2 RES2   0.0000
    53 H23     11.1205  -2.1870   8.2467   H         2 RES2   0.0000
    54 C29     10.7944  -1.7499   6.3107   C.ar      2 RES2   0.0000
    55 H24     10.1501  -1.0962   6.4598   H         2 RES2   0.0000
    56 C30     11.1615  -2.0714   5.0165   C.ar      2 RES2   0.0000
    57 H25     10.7387  -1.6310   4.3150   H         2 RES2   0.0000
    58 C31     13.8034  -2.1081   2.8510   C.ar      2 RES2   0.0000
    59 C32     14.6661  -1.6328   3.8416   C.ar      2 RES2   0.0000
    60 H26     14.5719  -1.9600   4.7070   H         2 RES2   0.0000
    61 C33     15.6584  -0.6932   3.5915   C.ar      2 RES2   0.0000
    62 H27     16.2159  -0.4147   4.2819   H         2 RES2   0.0000
    63 C34     15.8210  -0.1734   2.3316   C.ar      2 RES2   0.0000
    64 H28     16.4738   0.4679   2.1659   H         2 RES2   0.0000
    65 C35     15.0078  -0.6135   1.3235   C.ar      2 RES2   0.0000
    66 H29     15.1096  -0.2764   0.4628   H         2 RES2   0.0000
    67 C36     14.0273  -1.5668   1.5874   C.ar      2 RES2   0.0000
    68 H30     13.4942  -1.8572   0.8828   H         2 RES2   0.0000
    69 C37     11.3703  -3.1080   2.1079   C.ar      2 RES2   0.0000
    70 C38     10.8868  -1.8736   1.6629   C.ar      2 RES2   0.0000
    71 H31     11.3001  -1.0975   1.9658   H         2 RES2   0.0000
    72 C39      9.8120  -1.7577   0.7845   C.ar      2 RES2   0.0000
    73 H32      9.5341  -0.9170   0.5014   H         2 RES2   0.0000
    74 C40      9.1633  -2.8723   0.3375   C.ar      2 RES2   0.0000
    75 H33      8.4381  -2.7942  -0.2390   H         2 RES2   0.0000
    76 C41      9.5909  -4.1062   0.7448   C.ar      2 RES2   0.0000
    77 H34      9.1537  -4.8714   0.4487   H         2 RES2   0.0000
    78 C42     10.6786  -4.2143   1.6009   C.ar      2 RES2   0.0000
    79 H35     10.9617  -5.0644   1.8501   H         2 RES2   0.0000
    80 C43     13.2730  -4.7563   2.8808   C.ar      2 RES2   0.0000
    81 C44     14.1190  -4.9972   1.7906   C.ar      2 RES2   0.0000
    82 H36     14.4482  -4.2687   1.3153   H         2 RES2   0.0000
    83 C45     14.4892  -6.2728   1.3866   C.ar      2 RES2   0.0000
    84 H37     15.0425  -6.3834   0.6475   H         2 RES2   0.0000
    85 C46     14.0390  -7.3741   2.0770   C.ar      2 RES2   0.0000
    86 H38     14.2766  -8.2312   1.8055   H         2 RES2   0.0000
    87 C47     13.2358  -7.1884   3.1706   C.ar      2 RES2   0.0000
    88 H39     12.9404  -7.9236   3.6576   H         2 RES2   0.0000
    89 C48     12.8603  -5.9099   3.5561   C.ar      2 RES2   0.0000
    90 H40     12.3083  -5.8152   4.2985   H         2 RES2   0.0000
    91 C49     13.8074   8.6388   7.9235   C.3       3 RES3   0.0000
    92 H41     12.9547   9.0776   7.8805   H         3 RES3   0.0000
    93 H42     14.5072   9.2909   7.8384   H         3 RES3   0.0000
    94 H43     13.8926   8.1865   8.7659   H         3 RES3   0.0000
    95 C50     14.9172   7.4444   5.9800   C.2       3 RES3   0.0000
    96 H44     15.7286   7.8965   5.9319   H         3 RES3   0.0000
    97 C51     14.4978   6.4140   5.1950   C.2       3 RES3   0.0000
    98 C52     15.1013   5.6403   4.1327   C.2       3 RES3   0.0000
    99 H45     15.9703   5.8156   3.8518   H         3 RES3   0.0000
   100 C53     15.0646   3.8066   2.6346   C.3       3 RES3   0.0000
   101 H46     15.5043   3.0925   3.1219   H         3 RES3   0.0000
   102 H47     15.7444   4.2928   2.1420   H         3 RES3   0.0000
   103 C54     14.0788   3.2056   1.6574   C.3       3 RES3   0.0000
   104 H48     14.5742   2.6862   1.0050   H         3 RES3   0.0000
   105 H49     13.6419   3.9293   1.1812   H         3 RES3   0.0000
   106 C55     13.0084   2.3171   2.2638   C.3       3 RES3   0.0000
   107 H50     12.7406   1.6659   1.5966   H         3 RES3   0.0000
   108 H51     13.4023   1.8286   3.0035   H         3 RES3   0.0000
   109 C56     11.0425   3.5901   1.6111   C.3       3 RES3   0.0000
   110 H52     10.2473   4.0272   1.9247   H         3 RES3   0.0000
   111 H53     10.8020   2.8886   1.0008   H         3 RES3   0.0000
   112 H54     11.6022   4.2270   1.1619   H         3 RES3   0.0000
   113 C57     10.9088   1.9772   3.4165   C.3       3 RES3   0.0000
   114 H55     11.4140   1.5768   4.1414   H         3 RES3   0.0000
   115 H56     10.7344   1.2783   2.7669   H         3 RES3   0.0000
   116 C58      9.5635   2.4478   3.9798   C.3       3 RES3   0.0000
   117 H57      9.0572   2.8427   3.2523   H         3 RES3   0.0000
   118 H58      9.0739   1.6644   4.2766   H         3 RES3   0.0000
   119 C59      9.5863   3.4495   5.1321   C.3       3 RES3   0.0000
   120 H59      8.6808   3.6735   5.3959   H         3 RES3   0.0000
   121 H60     10.0414   3.0640   5.8973   H         3 RES3   0.0000
   122 C60      9.6373   5.6712   4.2856   C.2       3 RES3   0.0000
   123 H61      8.7270   5.7624   4.4526   H         3 RES3   0.0000
   124 C61     10.3756   6.6783   3.5566   C.2       3 RES3   0.0000
   125 C62     10.1004   7.8885   2.9975   C.2       3 RES3   0.0000
   126 H62      9.3077   8.3697   3.0663   H         3 RES3   0.0000
   127 C63     11.4443   9.4309   1.5047   C.3       3 RES3   0.0000
   128 H63     10.8255   9.4445   0.7720   H         3 RES3   0.0000
   129 H64     12.3423   9.4036   1.1658   H         3 RES3   0.0000
   130 H65     11.3279  10.2207   2.0380   H         3 RES3   0.0000
   131 C64     12.9801   2.8043   6.7161   C.2       3 RES3   0.0000
   132 H66     12.7789   3.4990   7.3005   H         3 RES3   0.0000
   133 C65     13.4677   1.4657   8.6547   C.3       3 RES3   0.0000
   134 H67     14.3745   1.5990   8.9417   H         3 RES3   0.0000
   135 H68     13.1948   0.5695   8.8641   H         3 RES3   0.0000
   136 H69     12.8945   2.0890   9.1062   H         3 RES3   0.0000
   137 C66     13.7387   0.5551   6.3803   C.3       3 RES3   0.0000
   138 H70     13.0078  -0.0663   6.3431   H         3 RES3   0.0000
   139 H71     14.5131   0.1161   6.7412   H         3 RES3   0.0000
   140 H72     13.9345   0.8723   5.4958   H         3 RES3   0.0000
   141 Fe1     12.3783   4.5524   4.2493   Fe        3 RES3   2.0000
   142 N1      13.9115   7.6682   6.8363   N.pl3     3 RES3   0.0000
   143 N2      12.8917   6.8257   6.6116   N.2       3 RES3   0.0000
   144 N3      13.2594   6.0559   5.6158   N.2       3 RES3   0.0000
   145 N4      14.4198   4.7179   3.5926   N.2       3 RES3   0.0000
   146 N5      11.7759   3.0123   2.7631   N.3       3 RES3   0.0000
   147 N6      10.2888   4.6525   4.6892   N.2       3 RES3   0.0000
   148 N7      11.6506   6.3578   3.2073   N.2       3 RES3   0.0000
   149 N8      12.1557   7.3177   2.4604   N.2       3 RES3   0.0000
   150 N9      11.1982   8.2424   2.3316   N.pl3     3 RES3   0.0000
   151 N10     13.3789   1.6753   7.2280   N.am      3 RES3   0.0000
   152 O1      12.8517   3.0110   5.5143   O.2       3 RES3   0.0000
@<TRIPOS>BOND
     1     1     2    1
     2     2     3   ar
     3     3     4    1
     4     5     3   ar
     5     6     5    1
     6     7     5   ar
     7     8     7    1
     8     9     7   ar
     9    10     9    1
    10    11     2   ar
    11    12    11    1
    12    13     1    1
    13    14    13   ar
    14    15    14    1
    15    16    14   ar
    16    17    16    1
    17    18    16   ar
    18    19    18    1
    19    20    18   ar
    20    21    20    1
    21    22    13   ar
    22    23    22    1
    23    24     1    1
    24    25    24   ar
    25    26    25    1
    26    27    25   ar
    27    28    27    1
    28    29    27   ar
    29    30    29    1
    30    31    29   ar
    31    32    31    1
    32    33    24   ar
    33    34    33    1
    34    35     1    1
    35    36    35   ar
    36    37    36    1
    37    38    36   ar
    38    39    38    1
    39    40    38   ar
    40    41    40    1
    41    42    40   ar
    42    43    42    1
    43    44    35   ar
    44    45    44    1
    45     9    11   ar
    46    20    22   ar
    47    31    33   ar
    48    42    44   ar
    49    46    47    1
    50    47    48   ar
    51    48    49    1
    52    50    48   ar
    53    51    50    1
    54    52    50   ar
    55    53    52    1
    56    54    52   ar
    57    55    54    1
    58    56    47   ar
    59    57    56    1
    60    58    46    1
    61    59    58   ar
    62    60    59    1
    63    61    59   ar
    64    62    61    1
    65    63    61   ar
    66    64    63    1
    67    65    63   ar
    68    66    65    1
    69    67    58   ar
    70    68    67    1
    71    69    46    1
    72    70    69   ar
    73    71    70    1
    74    72    70   ar
    75    73    72    1
    76    74    72   ar
    77    75    74    1
    78    76    74   ar
    79    77    76    1
    80    78    69   ar
    81    79    78    1
    82    80    46    1
    83    81    80   ar
    84    82    81    1
    85    83    81   ar
    86    84    83    1
    87    85    83   ar
    88    86    85    1
    89    87    85   ar
    90    88    87    1
    91    89    80   ar
    92    90    89    1
    93    54    56   ar
    94    65    67   ar
    95    76    78   ar
    96    87    89   ar
    97    91    92    1
    98    93    91    1
    99    94    91    1
   100    95    96    1
   101    97    95    2
   102    98    97    1
   103    99    98    1
   104   100   101    1
   105   102   100    1
   106   103   100    1
   107   104   103    1
   108   105   103    1
   109   106   103    1
   110   107   106    1
   111   108   106    1
   112   109   110    1
   113   111   109    1
   114   112   109    1
   115   113   114    1
   116   115   113    1
   117   116   113    1
   118   117   116    1
   119   118   116    1
   120   119   116    1
   121   120   119    1
   122   121   119    1
   123   122   123    1
   124   124   122    1
   125   125   124    2
   126   126   125    1
   127   127   128    1
   128   129   127    1
   129   130   127    1
   130   131   132    1
   131   133   134    1
   132   135   133    1
   133   136   133    1
   134   137   138    1
   135   139   137    1
   136   140   137    1
   137   141   144    1
   138   142    91    1
   139   143   142    1
   140   144    97    1
   141   145    98    2
   142   146   106    1
   143   147   119    1
   144   148   124    1
   145   149   148    2
   146   150   125    1
   147   151   131   am
   148   152   131    2
   149    95   142    1
   150   100   145    1
   151   109   146    1
   152   113   146    1
   153   122   147    2
   154   127   150    1
   155   133   151    1
   156   137   151    1
   157   141   145    1
   158   141   146    1
   159   141   147    1
   160   141   148    1
   161   141   152    1
   162   143   144    2
   163   149   150    1
@<TRIPOS>SUBSTRUCTURE
     1 RES1        1 GROUP             0 ****  ****    0  
     2 RES2       46 GROUP             0 ****  ****    0  
     3 RES3       91 GROUP             0 ****  ****    0  
@<TRIPOS>CRYSIN
   13.3794   13.5076   20.1170   70.4650   75.3890   62.1910     2     1
