@<TRIPOS>MOLECULE
TIGBOE07
   152   163     3     0     0
SMALL
USER_CHARGES
****
Generated from the CSD

@<TRIPOS>ATOM
     1 B1       9.1377  10.3043  11.9188   B         1 RES1  -1.0000
     2 C1       7.8922  10.4577  10.8446   C.ar      1 RES1   0.0000
     3 C2       8.0146  11.0270   9.5822   C.ar      1 RES1   0.0000
     4 H1       8.8405  11.3738   9.3317   H         1 RES1   0.0000
     5 C3       6.9668  11.1037   8.6785   C.ar      1 RES1   0.0000
     6 H2       7.1005  11.4998   7.8481   H         1 RES1   0.0000
     7 C4       5.7386  10.6007   8.9993   C.ar      1 RES1   0.0000
     8 H3       5.0366  10.6430   8.3912   H         1 RES1   0.0000
     9 C5       5.5584  10.0274  10.2433   C.ar      1 RES1   0.0000
    10 H4       4.7287   9.6791  10.4784   H         1 RES1   0.0000
    11 C6       6.6108   9.9710  11.1397   C.ar      1 RES1   0.0000
    12 H5       6.4614   9.5929  11.9761   H         1 RES1   0.0000
    13 C7       9.7250   8.7628  11.8490   C.ar      1 RES1   0.0000
    14 C8       8.8893   7.6607  11.7315   C.ar      1 RES1   0.0000
    15 H6       7.9799   7.8088  11.6058   H         1 RES1   0.0000
    16 C9       9.3398   6.3498  11.7918   C.ar      1 RES1   0.0000
    17 H7       8.7350   5.6475  11.7142   H         1 RES1   0.0000
    18 C10     10.6660   6.0890  11.9642   C.ar      1 RES1   0.0000
    19 H8      10.9765   5.2126  11.9928   H         1 RES1   0.0000
    20 C11     11.5274   7.1348  12.0936   C.ar      1 RES1   0.0000
    21 H9      12.4343   6.9703  12.2175   H         1 RES1   0.0000
    22 C12     11.0670   8.4445  12.0426   C.ar      1 RES1   0.0000
    23 H10     11.6801   9.1373  12.1418   H         1 RES1   0.0000
    24 C13      8.6081  10.5300  13.4648   C.ar      1 RES1   0.0000
    25 C14      9.0991   9.7941  14.5465   C.ar      1 RES1   0.0000
    26 H11      9.7575   9.1567  14.3873   H         1 RES1   0.0000
    27 C15      8.6520   9.9704  15.8417   C.ar      1 RES1   0.0000
    28 H12      9.0060   9.4488  16.5255   H         1 RES1   0.0000
    29 C16      7.6935  10.9019  16.1295   C.ar      1 RES1   0.0000
    30 H13      7.3847  11.0112  17.0001   H         1 RES1   0.0000
    31 C17      7.1928  11.6763  15.1058   C.ar      1 RES1   0.0000
    32 H14      6.5535  12.3277  15.2835   H         1 RES1   0.0000
    33 C18      7.6437  11.4831  13.8145   C.ar      1 RES1   0.0000
    34 H15      7.2870  12.0151  13.1404   H         1 RES1   0.0000
    35 C19     10.3034  11.4121  11.5529   C.ar      1 RES1   0.0000
    36 C20     10.4728  12.5992  12.2519   C.ar      1 RES1   0.0000
    37 H16      9.9469  12.7538  13.0030   H         1 RES1   0.0000
    38 C21     11.3942  13.5655  11.8769   C.ar      1 RES1   0.0000
    39 H17     11.4645  14.3498  12.3717   H         1 RES1   0.0000
    40 C22     12.1963  13.3809  10.7965   C.ar      1 RES1   0.0000
    41 H18     12.8139  14.0301  10.5480   H         1 RES1   0.0000
    42 C23     12.0780  12.2174  10.0789   C.ar      1 RES1   0.0000
    43 H19     12.6237  12.0723   9.3404   H         1 RES1   0.0000
    44 C24     11.1469  11.2557  10.4491   C.ar      1 RES1   0.0000
    45 H20     11.0825  10.4781   9.9433   H         1 RES1   0.0000
    46 B2       9.0567   2.7035   3.1405   B         2 RES2  -1.0000
    47 C25      8.5403   2.9417   4.6865   C.ar      2 RES2   0.0000
    48 C26      9.1105   2.3303   5.8031   C.ar      2 RES2   0.0000
    49 H21      9.7737   1.6918   5.6706   H         2 RES2   0.0000
    50 C27      8.7282   2.6343   7.1090   C.ar      2 RES2   0.0000
    51 H22      9.1237   2.1861   7.8219   H         2 RES2   0.0000
    52 C28      7.7750   3.5876   7.3486   C.ar      2 RES2   0.0000
    53 H23      7.5194   3.7972   8.2180   H         2 RES2   0.0000
    54 C29      7.2025   4.2287   6.2734   C.ar      2 RES2   0.0000
    55 H24      6.5631   4.8888   6.4164   H         2 RES2   0.0000
    56 C30      7.5705   3.8991   4.9850   C.ar      2 RES2   0.0000
    57 H25      7.1510   4.3373   4.2800   H         2 RES2   0.0000
    58 C31     10.2101   3.8448   2.8317   C.ar      2 RES2   0.0000
    59 C32     11.0745   4.3196   3.8243   C.ar      2 RES2   0.0000
    60 H26     10.9780   3.9941   4.6901   H         2 RES2   0.0000
    61 C33     12.0681   5.2532   3.5750   C.ar      2 RES2   0.0000
    62 H27     12.6281   5.5288   4.2645   H         2 RES2   0.0000
    63 C34     12.2290   5.7724   2.3152   C.ar      2 RES2   0.0000
    64 H28     12.8838   6.4111   2.1473   H         2 RES2   0.0000
    65 C35     11.4086   5.3341   1.3074   C.ar      2 RES2   0.0000
    66 H29     11.5090   5.6712   0.4466   H         2 RES2   0.0000
    67 C36     10.4312   4.3902   1.5708   C.ar      2 RES2   0.0000
    68 H30      9.8934   4.1053   0.8675   H         2 RES2   0.0000
    69 C37      7.7804   2.8440   2.0914   C.ar      2 RES2   0.0000
    70 C38      7.2976   4.0753   1.6449   C.ar      2 RES2   0.0000
    71 H31      7.7104   4.8524   1.9462   H         2 RES2   0.0000
    72 C39      6.2227   4.1860   0.7667   C.ar      2 RES2   0.0000
    73 H32      5.9408   5.0266   0.4848   H         2 RES2   0.0000
    74 C40      5.5797   3.0662   0.3167   C.ar      2 RES2   0.0000
    75 H33      4.8573   3.1398  -0.2643   H         2 RES2   0.0000
    76 C41      6.0131   1.8359   0.7317   C.ar      2 RES2   0.0000
    77 H34      5.5788   1.0674   0.4384   H         2 RES2   0.0000
    78 C42      7.0956   1.7346   1.5873   C.ar      2 RES2   0.0000
    79 H35      7.3817   0.8863   1.8394   H         2 RES2   0.0000
    80 C43      9.6811   1.2083   2.8694   C.ar      2 RES2   0.0000
    81 C44     10.5241   0.9708   1.7822   C.ar      2 RES2   0.0000
    82 H36     10.8501   1.6996   1.3053   H         2 RES2   0.0000
    83 C45     10.8977  -0.3059   1.3811   C.ar      2 RES2   0.0000
    84 H37     11.4504  -0.4154   0.6412   H         2 RES2   0.0000
    85 C46     10.4538  -1.4071   2.0723   C.ar      2 RES2   0.0000
    86 H38     10.6963  -2.2634   1.8030   H         2 RES2   0.0000
    87 C47      9.6534  -1.2215   3.1607   C.ar      2 RES2   0.0000
    88 H39      9.3586  -1.9574   3.6467   H         2 RES2   0.0000
    89 C48      9.2754   0.0567   3.5489   C.ar      2 RES2   0.0000
    90 H40      8.7275   0.1507   4.2944   H         2 RES2   0.0000
    91 C49     10.2018  14.5395   7.9084   C.3       3 RES3   0.0000
    92 H41      9.3444  14.9686   7.8725   H         3 RES3   0.0000
    93 H42     10.8941  15.1993   7.8184   H         3 RES3   0.0000
    94 H43     10.2991  14.0874   8.7497   H         3 RES3   0.0000
    95 C50     11.3171  13.3551   5.9682   C.2       3 RES3   0.0000
    96 H44     12.1275  13.8093   5.9247   H         3 RES3   0.0000
    97 C51     10.9031  12.3286   5.1795   C.2       3 RES3   0.0000
    98 C52     11.5102  11.5539   4.1186   C.2       3 RES3   0.0000
    99 H45     12.3804  11.7271   3.8403   H         3 RES3   0.0000
   100 C53     11.4779   9.7209   2.6242   C.3       3 RES3   0.0000
   101 H46     11.9142   9.0060   3.1140   H         3 RES3   0.0000
   102 H47     12.1595  10.2044   2.1324   H         3 RES3   0.0000
   103 C54     10.4946   9.1251   1.6517   C.3       3 RES3   0.0000
   104 H48     10.9887   8.6080   0.9963   H         3 RES3   0.0000
   105 H49     10.0560   9.8498   1.1789   H         3 RES3   0.0000
   106 C55      9.4240   8.2319   2.2570   C.3       3 RES3   0.0000
   107 H50      9.1548   7.5844   1.5873   H         3 RES3   0.0000
   108 H51      9.8204   7.7399   2.9931   H         3 RES3   0.0000
   109 C56      7.4652   9.5044   1.6079   C.3       3 RES3   0.0000
   110 H52      6.6764   9.9513   1.9236   H         3 RES3   0.0000
   111 H53      7.2158   8.8055   0.9995   H         3 RES3   0.0000
   112 H54      8.0307  10.1356   1.1558   H         3 RES3   0.0000
   113 C57      7.3315   7.8976   3.4065   C.3       3 RES3   0.0000
   114 H55      7.8346   7.4927   4.1299   H         3 RES3   0.0000
   115 H56      7.1550   7.2015   2.7545   H         3 RES3   0.0000
   116 C58      5.9871   8.3646   3.9715   C.3       3 RES3   0.0000
   117 H57      5.4771   8.7537   3.2441   H         3 RES3   0.0000
   118 H58      5.5030   7.5808   4.2745   H         3 RES3   0.0000
   119 C59      6.0121   9.3715   5.1176   C.3       3 RES3   0.0000
   120 H59      5.1068   9.6005   5.3772   H         3 RES3   0.0000
   121 H60      6.4626   8.9872   5.8861   H         3 RES3   0.0000
   122 C60      6.0629  11.5836   4.2642   C.2       3 RES3   0.0000
   123 H61      5.1518  11.6758   4.4278   H         3 RES3   0.0000
   124 C61      6.8015  12.5822   3.5346   C.2       3 RES3   0.0000
   125 C62      6.5268  13.7856   2.9622   C.2       3 RES3   0.0000
   126 H62      5.7336  14.2677   3.0209   H         3 RES3   0.0000
   127 C63      7.8773  15.3057   1.4595   C.3       3 RES3   0.0000
   128 H63      8.8227  15.4073   1.3224   H         3 RES3   0.0000
   129 H64      7.5323  16.0893   1.8944   H         3 RES3   0.0000
   130 H65      7.4418  15.1917   0.6124   H         3 RES3   0.0000
   131 C64      9.3841   8.7122   6.6920   C.2       3 RES3   0.0000
   132 H66      9.1731   9.4031   7.2779   H         3 RES3   0.0000
   133 C65      9.8498   7.3696   8.6243   C.3       3 RES3   0.0000
   134 H67     10.7661   7.3994   8.9098   H         3 RES3   0.0000
   135 H68      9.4765   6.5109   8.8379   H         3 RES3   0.0000
   136 H69      9.3519   8.0558   9.0736   H         3 RES3   0.0000
   137 C66     10.1611   6.4704   6.3481   C.3       3 RES3   0.0000
   138 H70      9.4472   5.8290   6.3227   H         3 RES3   0.0000
   139 H71     10.9529   6.0539   6.6968   H         3 RES3   0.0000
   140 H72     10.3336   6.7923   5.4603   H         3 RES3   0.0000
   141 Fe1      8.7959  10.4641   4.2359   Fe        3 RES3   2.0000
   142 N1      10.3086  13.5724   6.8212   N.pl3     3 RES3   0.0000
   143 N2       9.2963  12.7255   6.5954   N.2       3 RES3   0.0000
   144 N3       9.6645  11.9609   5.5966   N.2       3 RES3   0.0000
   145 N4      10.8285  10.6353   3.5791   N.2       3 RES3   0.0000
   146 N5       8.1990   8.9201   2.7611   N.3       3 RES3   0.0000
   147 N6       6.7160  10.5614   4.6779   N.2       3 RES3   0.0000
   148 N7       8.0780  12.2590   3.1857   N.2       3 RES3   0.0000
   149 N8       8.5842  13.2092   2.4340   N.2       3 RES3   0.0000
   150 N9       7.6290  14.1289   2.3019   N.pl3     3 RES3   0.0000
   151 N10      9.7835   7.5809   7.2006   N.am      3 RES3   0.0000
   152 O1       9.2700   8.9238   5.4939   O.2       3 RES3   0.0000
@<TRIPOS>BOND
     1     1     2    1
     2     2     3   ar
     3     3     4    1
     4     5     3   ar
     5     6     5    1
     6     7     5   ar
     7     8     7    1
     8     9     7   ar
     9    10     9    1
    10    11     2   ar
    11    12    11    1
    12    13     1    1
    13    14    13   ar
    14    15    14    1
    15    16    14   ar
    16    17    16    1
    17    18    16   ar
    18    19    18    1
    19    20    18   ar
    20    21    20    1
    21    22    13   ar
    22    23    22    1
    23    24     1    1
    24    25    24   ar
    25    26    25    1
    26    27    25   ar
    27    28    27    1
    28    29    27   ar
    29    30    29    1
    30    31    29   ar
    31    32    31    1
    32    33    24   ar
    33    34    33    1
    34    35     1    1
    35    36    35   ar
    36    37    36    1
    37    38    36   ar
    38    39    38    1
    39    40    38   ar
    40    41    40    1
    41    42    40   ar
    42    43    42    1
    43    44    35   ar
    44    45    44    1
    45     9    11   ar
    46    20    22   ar
    47    31    33   ar
    48    42    44   ar
    49    46    47    1
    50    47    48   ar
    51    48    49    1
    52    50    48   ar
    53    51    50    1
    54    52    50   ar
    55    53    52    1
    56    54    52   ar
    57    55    54    1
    58    56    47   ar
    59    57    56    1
    60    58    46    1
    61    59    58   ar
    62    60    59    1
    63    61    59   ar
    64    62    61    1
    65    63    61   ar
    66    64    63    1
    67    65    63   ar
    68    66    65    1
    69    67    58   ar
    70    68    67    1
    71    69    46    1
    72    70    69   ar
    73    71    70    1
    74    72    70   ar
    75    73    72    1
    76    74    72   ar
    77    75    74    1
    78    76    74   ar
    79    77    76    1
    80    78    69   ar
    81    79    78    1
    82    80    46    1
    83    81    80   ar
    84    82    81    1
    85    83    81   ar
    86    84    83    1
    87    85    83   ar
    88    86    85    1
    89    87    85   ar
    90    88    87    1
    91    89    80   ar
    92    90    89    1
    93    54    56   ar
    94    65    67   ar
    95    76    78   ar
    96    87    89   ar
    97    91    92    1
    98    93    91    1
    99    94    91    1
   100    95    96    1
   101    97    95    2
   102    98    97    1
   103    99    98    1
   104   100   101    1
   105   102   100    1
   106   103   100    1
   107   104   103    1
   108   105   103    1
   109   106   103    1
   110   107   106    1
   111   108   106    1
   112   109   110    1
   113   111   109    1
   114   112   109    1
   115   113   114    1
   116   115   113    1
   117   116   113    1
   118   117   116    1
   119   118   116    1
   120   119   116    1
   121   120   119    1
   122   121   119    1
   123   122   123    1
   124   124   122    1
   125   125   124    2
   126   126   125    1
   127   127   128    1
   128   129   127    1
   129   130   127    1
   130   131   132    1
   131   133   134    1
   132   135   133    1
   133   136   133    1
   134   137   138    1
   135   139   137    1
   136   140   137    1
   137   141   144    1
   138   142    91    1
   139   143   142    1
   140   144    97    1
   141   145    98    2
   142   146   106    1
   143   147   119    1
   144   148   124    1
   145   149   148    2
   146   150   125    1
   147   151   131   am
   148   152   131    2
   149    95   142    1
   150   100   145    1
   151   109   146    1
   152   113   146    1
   153   122   147    2
   154   127   150    1
   155   133   151    1
   156   137   151    1
   157   141   145    1
   158   141   146    1
   159   141   147    1
   160   141   148    1
   161   141   152    1
   162   143   144    2
   163   149   150    1
@<TRIPOS>SUBSTRUCTURE
     1 RES1        1 GROUP             0 ****  ****    0  
     2 RES2       46 GROUP             0 ****  ****    0  
     3 RES3       91 GROUP             0 ****  ****    0  
@<TRIPOS>CRYSIN
   13.3064   13.4298   20.0312   70.5230   75.4470   62.1760     2     1
