@<TRIPOS>MOLECULE
TIGBOE02
   152   163     3     0     0
SMALL
USER_CHARGES
****
Generated from the CSD

@<TRIPOS>ATOM
     1 B1       8.9756  10.1091  11.9192   B         1 RES1  -1.0000
     2 C1       7.7204  10.2732  10.8515   C.ar      1 RES1   0.0000
     3 C2       7.8382  10.8393   9.5739   C.ar      1 RES1   0.0000
     4 H1       8.6828  11.1782   9.3027   H         1 RES1   0.0000
     5 C3       6.7644  10.9255   8.6819   C.ar      1 RES1   0.0000
     6 H2       6.8888  11.3301   7.8316   H         1 RES1   0.0000
     7 C4       5.5243  10.4245   9.0307   C.ar      1 RES1   0.0000
     8 H3       4.7959  10.4715   8.4221   H         1 RES1   0.0000
     9 C5       5.3596   9.8535  10.2797   C.ar      1 RES1   0.0000
    10 H4       4.5141   9.5027  10.5325   H         1 RES1   0.0000
    11 C6       6.4341   9.7915  11.1703   C.ar      1 RES1   0.0000
    12 H5       6.2916   9.4078  12.0278   H         1 RES1   0.0000
    13 C7       9.5504   8.5587  11.8735   C.ar      1 RES1   0.0000
    14 C8       8.6896   7.4628  11.7508   C.ar      1 RES1   0.0000
    15 H6       7.7654   7.6278  11.6029   H         1 RES1   0.0000
    16 C9       9.1211   6.1415  11.8348   C.ar      1 RES1   0.0000
    17 H7       8.4931   5.4318  11.7644   H         1 RES1   0.0000
    18 C10     10.4611   5.8618  12.0205   C.ar      1 RES1   0.0000
    19 H8      10.7652   4.9627  12.0664   H         1 RES1   0.0000
    20 C11     11.3483   6.9048  12.1369   C.ar      1 RES1   0.0000
    21 H9      12.2721   6.7267  12.2672   H         1 RES1   0.0000
    22 C12     10.8963   8.2317  12.0658   C.ar      1 RES1   0.0000
    23 H10     11.5289   8.9353  12.1515   H         1 RES1   0.0000
    24 C13      8.4459  10.3551  13.4707   C.ar      1 RES1   0.0000
    25 C14      8.9005   9.6017  14.5530   C.ar      1 RES1   0.0000
    26 H11      9.5518   8.9289  14.3937   H         1 RES1   0.0000
    27 C15      8.4395   9.7884  15.8664   C.ar      1 RES1   0.0000
    28 H12      8.7698   9.2400  16.5688   H         1 RES1   0.0000
    29 C16      7.5095  10.7672  16.1345   C.ar      1 RES1   0.0000
    30 H13      7.1826  10.8891  17.0183   H         1 RES1   0.0000
    31 C17      7.0557  11.5658  15.1105   C.ar      1 RES1   0.0000
    32 H14      6.4302  12.2570  15.2925   H         1 RES1   0.0000
    33 C18      7.5089  11.3674  13.8060   C.ar      1 RES1   0.0000
    34 H15      7.1783  11.9304  13.1163   H         1 RES1   0.0000
    35 C19     10.1549  11.2062  11.5457   C.ar      1 RES1   0.0000
    36 C20     10.3591  12.3994  12.2579   C.ar      1 RES1   0.0000
    37 H16      9.8449  12.5582  13.0406   H         1 RES1   0.0000
    38 C21     11.2900  13.3618  11.8595   C.ar      1 RES1   0.0000
    39 H17     11.3839  14.1597  12.3663   H         1 RES1   0.0000
    40 C22     12.0698  13.1715  10.7479   C.ar      1 RES1   0.0000
    41 H18     12.6961  13.8323  10.4761   H         1 RES1   0.0000
    42 C23     11.9272  11.9970  10.0270   C.ar      1 RES1   0.0000
    43 H19     12.4703  11.8402   9.2627   H         1 RES1   0.0000
    44 C24     10.9868  11.0404  10.4203   C.ar      1 RES1   0.0000
    45 H20     10.9046  10.2457   9.9072   H         1 RES1   0.0000
    46 B2       8.9373   2.6786   3.1479   B         2 RES2  -1.0000
    47 C25      8.4077   2.9337   4.6936   C.ar      2 RES2   0.0000
    48 C26      8.9712   2.3490   5.8384   C.ar      2 RES2   0.0000
    49 H21      9.6659   1.7110   5.7244   H         2 RES2   0.0000
    50 C27      8.5630   2.6574   7.1301   C.ar      2 RES2   0.0000
    51 H22      8.9553   2.2083   7.8695   H         2 RES2   0.0000
    52 C28      7.5816   3.6183   7.3461   C.ar      2 RES2   0.0000
    53 H23      7.3034   3.8377   8.2276   H         2 RES2   0.0000
    54 C29      7.0151   4.2523   6.2436   C.ar      2 RES2   0.0000
    55 H24      6.3599   4.9289   6.3674   H         2 RES2   0.0000
    56 C30      7.4136   3.8917   4.9582   C.ar      2 RES2   0.0000
    57 H25      6.9907   4.3164   4.2210   H         2 RES2   0.0000
    58 C31     10.0993   3.8213   2.8347   C.ar      2 RES2   0.0000
    59 C32     10.9915   4.2716   3.8255   C.ar      2 RES2   0.0000
    60 H26     10.8913   3.9391   4.7100   H         2 RES2   0.0000
    61 C33     12.0138   5.1831   3.5667   C.ar      2 RES2   0.0000
    62 H27     12.6000   5.4501   4.2658   H         2 RES2   0.0000
    63 C34     12.1794   5.7031   2.2872   C.ar      2 RES2   0.0000
    64 H28     12.8671   6.3332   2.1063   H         2 RES2   0.0000
    65 C35     11.3229   5.2864   1.2814   C.ar      2 RES2   0.0000
    66 H29     11.4240   5.6299   0.4013   H         2 RES2   0.0000
    67 C36     10.3143   4.3643   1.5579   C.ar      2 RES2   0.0000
    68 H30      9.7441   4.0910   0.8486   H         2 RES2   0.0000
    69 C37      7.6746   2.7866   2.0799   C.ar      2 RES2   0.0000
    70 C38      7.1599   4.0123   1.6293   C.ar      2 RES2   0.0000
    71 H31      7.5556   4.8145   1.9479   H         2 RES2   0.0000
    72 C39      6.0887   4.1068   0.7330   C.ar      2 RES2   0.0000
    73 H32      5.7834   4.9595   0.4461   H         2 RES2   0.0000
    74 C40      5.4753   2.9556   0.2642   C.ar      2 RES2   0.0000
    75 H33      4.7478   3.0096  -0.3437   H         2 RES2   0.0000
    76 C41      5.9413   1.7240   0.6966   C.ar      2 RES2   0.0000
    77 H34      5.5196   0.9274   0.3953   H         2 RES2   0.0000
    78 C42      7.0198   1.6465   1.5677   C.ar      2 RES2   0.0000
    79 H35      7.3304   0.7883   1.8305   H         2 RES2   0.0000
    80 C43      9.6012   1.1803   2.9030   C.ar      2 RES2   0.0000
    81 C44     10.4519   0.9518   1.8157   C.ar      2 RES2   0.0000
    82 H36     10.7688   1.6986   1.3221   H         2 RES2   0.0000
    83 C45     10.8524  -0.3292   1.4241   C.ar      2 RES2   0.0000
    84 H37     11.4045  -0.4410   0.6588   H         2 RES2   0.0000
    85 C46     10.4477  -1.4298   2.1515   C.ar      2 RES2   0.0000
    86 H38     10.7221  -2.3034   1.8974   H         2 RES2   0.0000
    87 C47      9.6357  -1.2457   3.2525   C.ar      2 RES2   0.0000
    88 H39      9.3574  -1.9954   3.7645   H         2 RES2   0.0000
    89 C48      9.2227   0.0325   3.6188   C.ar      2 RES2   0.0000
    90 H40      8.6638   0.1315   4.3806   H         2 RES2   0.0000
    91 C49      9.8635  14.1942   7.9963   C.3       3 RES3   0.0000
    92 H41      9.9367  13.6881   8.8322   H         3 RES3   0.0000
    93 H42      8.9817  14.6192   7.9478   H         3 RES3   0.0000
    94 H43     10.5602  14.8821   7.9681   H         3 RES3   0.0000
    95 C50     11.0803  13.1454   6.0426   C.2       3 RES3   0.0000
    96 H44     11.8920  13.6401   6.0530   H         3 RES3   0.0000
    97 C51     10.7327  12.1384   5.1901   C.2       3 RES3   0.0000
    98 C52     11.3719  11.4149   4.1212   C.2       3 RES3   0.0000
    99 H45     12.2570  11.6155   3.8399   H         3 RES3   0.0000
   100 C53     11.3583   9.5965   2.5986   C.3       3 RES3   0.0000
   101 H46     11.8139   8.8662   3.0875   H         3 RES3   0.0000
   102 H47     12.0471  10.1144   2.1125   H         3 RES3   0.0000
   103 C54     10.3856   8.9967   1.5983   C.3       3 RES3   0.0000
   104 H48     10.8959   8.4665   0.9361   H         3 RES3   0.0000
   105 H49      9.9349   9.7317   1.1117   H         3 RES3   0.0000
   106 C55      9.3207   8.1008   2.2307   C.3       3 RES3   0.0000
   107 H50      9.0041   7.4630   1.5428   H         3 RES3   0.0000
   108 H51      9.7493   7.5708   2.9494   H         3 RES3   0.0000
   109 C56      7.3379   9.3708   1.6874   C.3       3 RES3   0.0000
   110 H52      7.8736  10.0469   1.2234   H         3 RES3   0.0000
   111 H53      6.5219   9.7841   2.0388   H         3 RES3   0.0000
   112 H54      7.0980   8.6567   1.0600   H         3 RES3   0.0000
   113 C57      7.3022   7.7369   3.4678   C.3       3 RES3   0.0000
   114 H55      7.8583   7.3049   4.1630   H         3 RES3   0.0000
   115 H56      7.0931   7.0479   2.7886   H         3 RES3   0.0000
   116 C58      5.9831   8.1725   4.1203   C.3       3 RES3   0.0000
   117 H57      5.5240   7.3636   4.4586   H         3 RES3   0.0000
   118 H58      5.4072   8.5680   3.4191   H         3 RES3   0.0000
   119 C59      6.0941   9.1826   5.2787   C.3       3 RES3   0.0000
   120 H59      5.1916   9.4262   5.6058   H         3 RES3   0.0000
   121 H60      6.6024   8.7859   6.0297   H         3 RES3   0.0000
   122 C60      6.0888  11.3852   4.4086   C.2       3 RES3   0.0000
   123 H61      5.1783  11.4967   4.6557   H         3 RES3   0.0000
   124 C61      6.7978  12.3504   3.5898   C.2       3 RES3   0.0000
   125 C62      6.5343  13.5428   2.9668   C.2       3 RES3   0.0000
   126 H62      5.7499  14.0727   3.0427   H         3 RES3   0.0000
   127 C63      7.8728  14.9019   1.3041   C.3       3 RES3   0.0000
   128 H63      7.3940  14.7368   0.4644   H         3 RES3   0.0000
   129 H64      8.8335  14.9672   1.1244   H         3 RES3   0.0000
   130 H65      7.5559  15.7392   1.7014   H         3 RES3   0.0000
   131 C64      9.3001   8.5979   6.6028   C.2       3 RES3   0.0000
   132 H66      9.0397   9.3218   7.1599   H         3 RES3   0.0000
   133 C65      9.6278   7.2950   8.6195   C.3       3 RES3   0.0000
   134 H67      9.2189   8.0847   9.0308   H         3 RES3   0.0000
   135 H68     10.5430   7.1891   8.9537   H         3 RES3   0.0000
   136 H69      9.1030   6.4992   8.8473   H         3 RES3   0.0000
   137 C66     10.0783   6.3119   6.3684   C.3       3 RES3   0.0000
   138 H70     10.3539   6.6236   5.4810   H         3 RES3   0.0000
   139 H71      9.3319   5.6836   6.2767   H         3 RES3   0.0000
   140 H72     10.8318   5.8627   6.8053   H         3 RES3   0.0000
   141 Fe1      8.7286  10.3043   4.2195   Fe        3 RES3   2.0000
   142 N1      10.0288  13.2872   6.8624   N.pl3     3 RES3   0.0000
   143 N2       9.0384  12.4115   6.5543   N.2       3 RES3   0.0000
   144 N3       9.4840  11.7099   5.5395   N.2       3 RES3   0.0000
   145 N4      10.6790  10.4788   3.5663   N.2       3 RES3   0.0000
   146 N5       8.1262   8.7980   2.8103   N.3       3 RES3   0.0000
   147 N6       6.7825  10.3688   4.7783   N.2       3 RES3   0.0000
   148 N7       8.0500  11.9499   3.1991   N.2       3 RES3   0.0000
   149 N8       8.5594  12.8328   2.3644   N.2       3 RES3   0.0000
   150 N9       7.6251  13.8019   2.2268   N.pl3     3 RES3   0.0000
   151 N10      9.6552   7.4593   7.1803   N.am      3 RES3   0.0000
   152 O1       9.2877   8.7694   5.3757   O.2       3 RES3   0.0000
@<TRIPOS>BOND
     1     1     2    1
     2     2     3   ar
     3     3     4    1
     4     5     3   ar
     5     6     5    1
     6     7     5   ar
     7     8     7    1
     8     9     7   ar
     9    10     9    1
    10    11     2   ar
    11    12    11    1
    12    13     1    1
    13    14    13   ar
    14    15    14    1
    15    16    14   ar
    16    17    16    1
    17    18    16   ar
    18    19    18    1
    19    20    18   ar
    20    21    20    1
    21    22    13   ar
    22    23    22    1
    23    24     1    1
    24    25    24   ar
    25    26    25    1
    26    27    25   ar
    27    28    27    1
    28    29    27   ar
    29    30    29    1
    30    31    29   ar
    31    32    31    1
    32    33    24   ar
    33    34    33    1
    34    35     1    1
    35    36    35   ar
    36    37    36    1
    37    38    36   ar
    38    39    38    1
    39    40    38   ar
    40    41    40    1
    41    42    40   ar
    42    43    42    1
    43    44    35   ar
    44    45    44    1
    45     9    11   ar
    46    20    22   ar
    47    31    33   ar
    48    42    44   ar
    49    46    47    1
    50    47    48   ar
    51    48    49    1
    52    50    48   ar
    53    51    50    1
    54    52    50   ar
    55    53    52    1
    56    54    52   ar
    57    55    54    1
    58    56    47   ar
    59    57    56    1
    60    58    46    1
    61    59    58   ar
    62    60    59    1
    63    61    59   ar
    64    62    61    1
    65    63    61   ar
    66    64    63    1
    67    65    63   ar
    68    66    65    1
    69    67    58   ar
    70    68    67    1
    71    69    46    1
    72    70    69   ar
    73    71    70    1
    74    72    70   ar
    75    73    72    1
    76    74    72   ar
    77    75    74    1
    78    76    74   ar
    79    77    76    1
    80    78    69   ar
    81    79    78    1
    82    80    46    1
    83    81    80   ar
    84    82    81    1
    85    83    81   ar
    86    84    83    1
    87    85    83   ar
    88    86    85    1
    89    87    85   ar
    90    88    87    1
    91    89    80   ar
    92    90    89    1
    93    54    56   ar
    94    65    67   ar
    95    76    78   ar
    96    87    89   ar
    97    91    92    1
    98    93    91    1
    99    94    91    1
   100    95    96    1
   101    97    95    2
   102    98    97    1
   103    99    98    1
   104   100   101    1
   105   102   100    1
   106   103   100    1
   107   104   103    1
   108   105   103    1
   109   106   103    1
   110   107   106    1
   111   108   106    1
   112   109   110    1
   113   111   109    1
   114   112   109    1
   115   113   114    1
   116   115   113    1
   117   116   113    1
   118   117   116    1
   119   118   116    1
   120   119   116    1
   121   120   119    1
   122   121   119    1
   123   122   123    1
   124   124   122    1
   125   125   124    2
   126   126   125    1
   127   127   128    1
   128   129   127    1
   129   130   127    1
   130   131   132    1
   131   133   134    1
   132   135   133    1
   133   136   133    1
   134   137   138    1
   135   139   137    1
   136   140   137    1
   137   141   144    1
   138   142    91    1
   139   143   142    1
   140   144    97    1
   141   145    98    2
   142   146   106    1
   143   147   119    1
   144   148   124    1
   145   149   148    2
   146   150   125    1
   147   151   131   am
   148   152   131    2
   149    95   142    1
   150   100   145    1
   151   109   146    1
   152   113   146    1
   153   122   147    2
   154   127   150    1
   155   133   151    1
   156   137   151    1
   157   141   145    1
   158   141   146    1
   159   141   147    1
   160   141   148    1
   161   141   152    1
   162   143   144    2
   163   149   150    1
@<TRIPOS>SUBSTRUCTURE
     1 RES1        1 GROUP             0 ****  ****    0  
     2 RES2       46 GROUP             0 ****  ****    0  
     3 RES3       91 GROUP             0 ****  ****    0  
@<TRIPOS>CRYSIN
   13.1697   13.2153   20.0627   71.0940   76.0690   62.0610     2     1
