@<TRIPOS>MOLECULE
TIGBOE04
   152   163     3     0     0
SMALL
USER_CHARGES
****
Generated from the CSD

@<TRIPOS>ATOM
     1 B1       9.0890  10.2211  11.8829   B         1 RES1  -1.0000
     2 C1       7.8360  10.3681  10.8135   C.ar      1 RES1   0.0000
     3 C2       7.9689  10.9375   9.5440   C.ar      1 RES1   0.0000
     4 H1       8.8061  11.2783   9.2866   H         1 RES1   0.0000
     5 C3       6.9054  11.0187   8.6445   C.ar      1 RES1   0.0000
     6 H2       7.0324  11.4240   7.8057   H         1 RES1   0.0000
     7 C4       5.6712  10.5106   8.9781   C.ar      1 RES1   0.0000
     8 H3       4.9573  10.5494   8.3683   H         1 RES1   0.0000
     9 C5       5.4974   9.9427  10.2216   C.ar      1 RES1   0.0000
    10 H4       4.6598   9.5929  10.4658   H         1 RES1   0.0000
    11 C6       6.5602   9.8857  11.1189   C.ar      1 RES1   0.0000
    12 H5       6.4144   9.5069  11.9665   H         1 RES1   0.0000
    13 C7       9.6722   8.6745  11.8261   C.ar      1 RES1   0.0000
    14 C8       8.8214   7.5721  11.7220   C.ar      1 RES1   0.0000
    15 H6       7.9026   7.7249  11.5965   H         1 RES1   0.0000
    16 C9       9.2691   6.2654  11.7952   C.ar      1 RES1   0.0000
    17 H7       8.6525   5.5581  11.7370   H         1 RES1   0.0000
    18 C10     10.6010   5.9919  11.9508   C.ar      1 RES1   0.0000
    19 H8      10.9069   5.1038  11.9845   H         1 RES1   0.0000
    20 C11     11.4777   7.0350  12.0577   C.ar      1 RES1   0.0000
    21 H9      12.3955   6.8659  12.1693   H         1 RES1   0.0000
    22 C12     11.0176   8.3488  12.0034   C.ar      1 RES1   0.0000
    23 H10     11.6404   9.0466  12.0886   H         1 RES1   0.0000
    24 C13      8.5592  10.4485  13.4334   C.ar      1 RES1   0.0000
    25 C14      9.0440   9.7093  14.5158   C.ar      1 RES1   0.0000
    26 H11      9.7064   9.0624  14.3545   H         1 RES1   0.0000
    27 C15      8.5950   9.8825  15.8159   C.ar      1 RES1   0.0000
    28 H12      8.9443   9.3508  16.5074   H         1 RES1   0.0000
    29 C16      7.6414  10.8300  16.0961   C.ar      1 RES1   0.0000
    30 H13      7.3232  10.9391  16.9738   H         1 RES1   0.0000
    31 C17      7.1579  11.6163  15.0773   C.ar      1 RES1   0.0000
    32 H14      6.5261  12.2873  15.2614   H         1 RES1   0.0000
    33 C18      7.6025  11.4201  13.7752   C.ar      1 RES1   0.0000
    34 H15      7.2478  11.9600  13.0928   H         1 RES1   0.0000
    35 C19     10.2611  11.3235  11.5122   C.ar      1 RES1   0.0000
    36 C20     10.4388  12.5076  12.2290   C.ar      1 RES1   0.0000
    37 H16      9.9138  12.6580  12.9943   H         1 RES1   0.0000
    38 C21     11.3704  13.4759  11.8458   C.ar      1 RES1   0.0000
    39 H17     11.4538  14.2655  12.3500   H         1 RES1   0.0000
    40 C22     12.1590  13.2872  10.7505   C.ar      1 RES1   0.0000
    41 H18     12.7854  13.9407  10.4963   H         1 RES1   0.0000
    42 C23     12.0258  12.1235  10.0172   C.ar      1 RES1   0.0000
    43 H19     12.5648  11.9812   9.2602   H         1 RES1   0.0000
    44 C24     11.0948  11.1642  10.3985   C.ar      1 RES1   0.0000
    45 H20     11.0226  10.3770   9.8891   H         1 RES1   0.0000
    46 B2       8.9954   2.6871   3.1327   B         2 RES2  -1.0000
    47 C25      8.4816   2.9381   4.6791   C.ar      2 RES2   0.0000
    48 C26      9.0381   2.3308   5.8066   C.ar      2 RES2   0.0000
    49 H21      9.7072   1.6835   5.6807   H         2 RES2   0.0000
    50 C27      8.6505   2.6357   7.1049   C.ar      2 RES2   0.0000
    51 H22      9.0387   2.1784   7.8285   H         2 RES2   0.0000
    52 C28      7.7027   3.6059   7.3363   C.ar      2 RES2   0.0000
    53 H23      7.4454   3.8268   8.2132   H         2 RES2   0.0000
    54 C29      7.1350   4.2491   6.2519   C.ar      2 RES2   0.0000
    55 H24      6.4937   4.9215   6.3891   H         2 RES2   0.0000
    56 C30      7.5096   3.9046   4.9643   C.ar      2 RES2   0.0000
    57 H25      7.0892   4.3410   4.2455   H         2 RES2   0.0000
    58 C31     10.1578   3.8312   2.8230   C.ar      2 RES2   0.0000
    59 C32     11.0336   4.2903   3.8146   C.ar      2 RES2   0.0000
    60 H26     10.9410   3.9568   4.6884   H         2 RES2   0.0000
    61 C33     12.0355   5.2201   3.5611   C.ar      2 RES2   0.0000
    62 H27     12.6041   5.4955   4.2565   H         2 RES2   0.0000
    63 C34     12.1988   5.7391   2.2930   C.ar      2 RES2   0.0000
    64 H28     12.8705   6.3736   2.1194   H         2 RES2   0.0000
    65 C35     11.3614   5.3138   1.2860   C.ar      2 RES2   0.0000
    66 H29     11.4572   5.6589   0.4172   H         2 RES2   0.0000
    67 C36     10.3766   4.3756   1.5529   C.ar      2 RES2   0.0000
    68 H30      9.8272   4.0910   0.8449   H         2 RES2   0.0000
    69 C37      7.7325   2.8161   2.0805   C.ar      2 RES2   0.0000
    70 C38      7.2321   4.0446   1.6319   C.ar      2 RES2   0.0000
    71 H31      7.6355   4.8346   1.9423   H         2 RES2   0.0000
    72 C39      6.1671   4.1441   0.7483   C.ar      2 RES2   0.0000
    73 H32      5.8816   4.9925   0.4623   H         2 RES2   0.0000
    74 C40      5.5235   3.0206   0.2845   C.ar      2 RES2   0.0000
    75 H33      4.7979   3.0911  -0.3083   H         2 RES2   0.0000
    76 C41      5.9720   1.7844   0.7121   C.ar      2 RES2   0.0000
    77 H34      5.5411   1.0021   0.4189   H         2 RES2   0.0000
    78 C42      7.0540   1.6976   1.5719   C.ar      2 RES2   0.0000
    79 H35      7.3502   0.8430   1.8286   H         2 RES2   0.0000
    80 C43      9.6326   1.1875   2.8701   C.ar      2 RES2   0.0000
    81 C44     10.4771   0.9560   1.7782   C.ar      2 RES2   0.0000
    82 H36     10.8008   1.6932   1.2942   H         2 RES2   0.0000
    83 C45     10.8544  -0.3241   1.3791   C.ar      2 RES2   0.0000
    84 H37     11.4062  -0.4368   0.6262   H         2 RES2   0.0000
    85 C46     10.4224  -1.4269   2.0856   C.ar      2 RES2   0.0000
    86 H38     10.6682  -2.2942   1.8191   H         2 RES2   0.0000
    87 C47      9.6242  -1.2335   3.1903   C.ar      2 RES2   0.0000
    88 H39      9.3387  -1.9729   3.6955   H         2 RES2   0.0000
    89 C48      9.2368   0.0436   3.5639   C.ar      2 RES2   0.0000
    90 H40      8.6846   0.1441   4.3176   H         2 RES2   0.0000
    91 C49     10.1171  14.4371   7.9260   C.3       3 RES3   0.0000
    92 H41      9.2545  14.8771   7.8783   H         3 RES3   0.0000
    93 H42     10.8226  15.0993   7.8536   H         3 RES3   0.0000
    94 H43     10.1970  13.9711   8.7727   H         3 RES3   0.0000
    95 C50     11.2482  13.2747   5.9792   C.2       3 RES3   0.0000
    96 H44     12.0630  13.7418   5.9425   H         3 RES3   0.0000
    97 C51     10.8468  12.2506   5.1789   C.2       3 RES3   0.0000
    98 C52     11.4671  11.4924   4.1205   C.2       3 RES3   0.0000
    99 H45     12.3449  11.6787   3.8397   H         3 RES3   0.0000
   100 C53     11.4424   9.6590   2.6254   C.3       3 RES3   0.0000
   101 H46     11.8906   8.9411   3.1190   H         3 RES3   0.0000
   102 H47     12.1274  10.1575   2.1318   H         3 RES3   0.0000
   103 C54     10.4679   9.0531   1.6452   C.3       3 RES3   0.0000
   104 H48     10.9761   8.5261   0.9935   H         3 RES3   0.0000
   105 H49     10.0316   9.7817   1.1560   H         3 RES3   0.0000
   106 C55      9.3885   8.1635   2.2416   C.3       3 RES3   0.0000
   107 H50      9.1025   7.5262   1.5543   H         3 RES3   0.0000
   108 H51      9.7866   7.6464   2.9725   H         3 RES3   0.0000
   109 C56      7.4302   9.4349   1.6261   C.3       3 RES3   0.0000
   110 H52      6.6269   9.8726   1.9503   H         3 RES3   0.0000
   111 H53      7.1847   8.7265   1.0098   H         3 RES3   0.0000
   112 H54      7.9891  10.0817   1.1694   H         3 RES3   0.0000
   113 C57      7.3182   7.8264   3.4151   C.3       3 RES3   0.0000
   114 H55      7.8356   7.4152   4.1385   H         3 RES3   0.0000
   115 H56      7.1369   7.1268   2.7535   H         3 RES3   0.0000
   116 C58      5.9743   8.2857   3.9967   C.3       3 RES3   0.0000
   117 H57      5.4466   8.6762   3.2695   H         3 RES3   0.0000
   118 H58      5.4930   7.4919   4.3111   H         3 RES3   0.0000
   119 C59      6.0153   9.2970   5.1446   C.3       3 RES3   0.0000
   120 H59      5.1038   9.5296   5.4194   H         3 RES3   0.0000
   121 H60      6.4805   8.9099   5.9158   H         3 RES3   0.0000
   122 C60      6.0517  11.5091   4.2762   C.2       3 RES3   0.0000
   123 H61      5.1347  11.6103   4.4542   H         3 RES3   0.0000
   124 C61      6.7963  12.4981   3.5262   C.2       3 RES3   0.0000
   125 C62      6.5161  13.6921   2.9352   C.2       3 RES3   0.0000
   126 H62      5.7174  14.1850   2.9920   H         3 RES3   0.0000
   127 C63      7.8737  15.1648   1.3916   C.3       3 RES3   0.0000
   128 H63      8.8169  15.2011   1.1656   H         3 RES3   0.0000
   129 H64      7.6213  15.9778   1.8556   H         3 RES3   0.0000
   130 H65      7.3505  15.0800   0.5790   H         3 RES3   0.0000
   131 C64      9.3289   8.6265   6.6662   C.2       3 RES3   0.0000
   132 H66      9.0794   9.3165   7.2542   H         3 RES3   0.0000
   133 C65      9.7371   7.2772   8.6143   C.3       3 RES3   0.0000
   134 H67     10.6527   7.1714   8.9171   H         3 RES3   0.0000
   135 H68      9.2326   6.4762   8.8223   H         3 RES3   0.0000
   136 H69      9.3351   8.0389   9.0599   H         3 RES3   0.0000
   137 C66     10.1318   6.3895   6.3336   C.3       3 RES3   0.0000
   138 H70      9.4142   5.7379   6.2853   H         3 RES3   0.0000
   139 H71     10.9242   5.9697   6.7036   H         3 RES3   0.0000
   140 H72     10.3277   6.7199   5.4425   H         3 RES3   0.0000
   141 Fe1      8.7697  10.3927   4.2293   Fe        3 RES3   2.0000
   142 N1      10.2362  13.4764   6.8280   N.pl3     3 RES3   0.0000
   143 N2       9.2272  12.6303   6.5887   N.2       3 RES3   0.0000
   144 N3       9.6077  11.8665   5.5816   N.2       3 RES3   0.0000
   145 N4      10.7849  10.5610   3.5783   N.2       3 RES3   0.0000
   146 N5       8.1731   8.8588   2.7690   N.3       3 RES3   0.0000
   147 N6       6.7149  10.4846   4.6884   N.2       3 RES3   0.0000
   148 N7       8.0642  12.1522   3.1734   N.2       3 RES3   0.0000
   149 N8       8.5737  13.0873   2.4018   N.2       3 RES3   0.0000
   150 N9       7.6244  14.0147   2.2529   N.pl3     3 RES3   0.0000
   151 N10      9.7258   7.4959   7.1833   N.am      3 RES3   0.0000
   152 O1       9.2596   8.8462   5.4583   O.2       3 RES3   0.0000
@<TRIPOS>BOND
     1     1     2    1
     2     2     3   ar
     3     3     4    1
     4     5     3   ar
     5     6     5    1
     6     7     5   ar
     7     8     7    1
     8     9     7   ar
     9    10     9    1
    10    11     2   ar
    11    12    11    1
    12    13     1    1
    13    14    13   ar
    14    15    14    1
    15    16    14   ar
    16    17    16    1
    17    18    16   ar
    18    19    18    1
    19    20    18   ar
    20    21    20    1
    21    22    13   ar
    22    23    22    1
    23    24     1    1
    24    25    24   ar
    25    26    25    1
    26    27    25   ar
    27    28    27    1
    28    29    27   ar
    29    30    29    1
    30    31    29   ar
    31    32    31    1
    32    33    24   ar
    33    34    33    1
    34    35     1    1
    35    36    35   ar
    36    37    36    1
    37    38    36   ar
    38    39    38    1
    39    40    38   ar
    40    41    40    1
    41    42    40   ar
    42    43    42    1
    43    44    35   ar
    44    45    44    1
    45     9    11   ar
    46    20    22   ar
    47    31    33   ar
    48    42    44   ar
    49    46    47    1
    50    47    48   ar
    51    48    49    1
    52    50    48   ar
    53    51    50    1
    54    52    50   ar
    55    53    52    1
    56    54    52   ar
    57    55    54    1
    58    56    47   ar
    59    57    56    1
    60    58    46    1
    61    59    58   ar
    62    60    59    1
    63    61    59   ar
    64    62    61    1
    65    63    61   ar
    66    64    63    1
    67    65    63   ar
    68    66    65    1
    69    67    58   ar
    70    68    67    1
    71    69    46    1
    72    70    69   ar
    73    71    70    1
    74    72    70   ar
    75    73    72    1
    76    74    72   ar
    77    75    74    1
    78    76    74   ar
    79    77    76    1
    80    78    69   ar
    81    79    78    1
    82    80    46    1
    83    81    80   ar
    84    82    81    1
    85    83    81   ar
    86    84    83    1
    87    85    83   ar
    88    86    85    1
    89    87    85   ar
    90    88    87    1
    91    89    80   ar
    92    90    89    1
    93    54    56   ar
    94    65    67   ar
    95    76    78   ar
    96    87    89   ar
    97    91    92    1
    98    93    91    1
    99    94    91    1
   100    95    96    1
   101    97    95    2
   102    98    97    1
   103    99    98    1
   104   100   101    1
   105   102   100    1
   106   103   100    1
   107   104   103    1
   108   105   103    1
   109   106   103    1
   110   107   106    1
   111   108   106    1
   112   109   110    1
   113   111   109    1
   114   112   109    1
   115   113   114    1
   116   115   113    1
   117   116   113    1
   118   117   116    1
   119   118   116    1
   120   119   116    1
   121   120   119    1
   122   121   119    1
   123   122   123    1
   124   124   122    1
   125   125   124    2
   126   126   125    1
   127   127   128    1
   128   129   127    1
   129   130   127    1
   130   131   132    1
   131   133   134    1
   132   135   133    1
   133   136   133    1
   134   137   138    1
   135   139   137    1
   136   140   137    1
   137   141   144    1
   138   142    91    1
   139   143   142    1
   140   144    97    1
   141   145    98    2
   142   146   106    1
   143   147   119    1
   144   148   124    1
   145   149   148    2
   146   150   125    1
   147   151   131   am
   148   152   131    2
   149    95   142    1
   150   100   145    1
   151   109   146    1
   152   113   146    1
   153   122   147    2
   154   127   150    1
   155   133   151    1
   156   137   151    1
   157   141   145    1
   158   141   146    1
   159   141   147    1
   160   141   148    1
   161   141   152    1
   162   143   144    2
   163   149   150    1
@<TRIPOS>SUBSTRUCTURE
     1 RES1        1 GROUP             0 ****  ****    0  
     2 RES2       46 GROUP             0 ****  ****    0  
     3 RES3       91 GROUP             0 ****  ****    0  
@<TRIPOS>CRYSIN
   13.2301   13.3429   20.0002   70.6970   75.5950   62.1110     2     1
