@<TRIPOS>MOLECULE
TILFIG
   106   114     1     0     0
SMALL
NO_CHARGES
****
Generated from the CSD

@<TRIPOS>ATOM
     1 Fe1      4.9261   9.0727   2.3304   Fe        1 RES1   0.0000
     2 C1       5.6978  11.2772  -1.2748   C.3       1 RES1   0.0000
     3 H1       5.8738  12.2076  -1.1069   H         1 RES1   0.0000
     4 H2       5.2294  11.1857  -2.1081   H         1 RES1   0.0000
     5 H3       6.5279  10.7983  -1.3206   H         1 RES1   0.0000
     6 C2       4.8520  10.7159  -0.1578   C.2       1 RES1   0.0000
     7 C3       3.4616  10.8288  -0.1857   C.2       1 RES1   0.0000
     8 C4       2.6654  10.4069   0.9058   C.2       1 RES1   0.0000
     9 C5       1.2208  10.7998   0.9707   C.3       1 RES1   0.0000
    10 H4       0.7697  10.2553   1.6209   H         1 RES1   0.0000
    11 H5       0.8143  10.6732   0.1107   H         1 RES1   0.0000
    12 H6       1.1516  11.7226   1.2239   H         1 RES1   0.0000
    13 O1       5.5311  10.1776   0.7902   O.2       1 RES1   0.0000
    14 O2       3.0943   9.7237   1.8897   O.2       1 RES1   0.0000
    15 C6       2.7939  11.5728  -1.3028   C.ar      1 RES1   0.0000
    16 C7       2.2688  10.8971  -2.4020   C.ar      1 RES1   0.0000
    17 H7       2.3343   9.9717  -2.4491   H         1 RES1   0.0000
    18 C8       1.6464  11.5972  -3.4224   C.ar      1 RES1   0.0000
    19 H8       1.3048  11.1308  -4.1514   H         1 RES1   0.0000
    20 C9       1.5246  12.9598  -3.3829   C.ar      1 RES1   0.0000
    21 C10      2.0234  13.6446  -2.2837   C.ar      1 RES1   0.0000
    22 H9       1.9335  14.5686  -2.2290   H         1 RES1   0.0000
    23 C11      2.6628  12.9391  -1.2583   C.ar      1 RES1   0.0000
    24 H10      3.0067  13.4064  -0.5318   H         1 RES1   0.0000
    25 C12      0.9055  13.7026  -4.4643   C.1       1 RES1   0.0000
    26 C13      0.4361  14.3343  -5.3511   C.1       1 RES1   0.0000
    27 C14     -0.1318  15.0972  -6.4414   C.ar      1 RES1   0.0000
    28 C15      0.5998  15.4025  -7.5674   C.ar      1 RES1   0.0000
    29 H11      1.4763  15.1054  -7.6602   H         1 RES1   0.0000
    30 C16     -0.0001  16.1657  -8.5610   C.ar      1 RES1   0.0000
    31 H12      0.5069  16.3683  -9.3142   H         1 RES1   0.0000
    32 N1      -1.2359  16.6260  -8.5152   N.ar      1 RES1   0.0000
    33 C17     -1.9303  16.3082  -7.4223   C.ar      1 RES1   0.0000
    34 H13     -2.8038  16.6184  -7.3574   H         1 RES1   0.0000
    35 C18     -1.4355  15.5508  -6.3867   C.ar      1 RES1   0.0000
    36 H14     -1.9742  15.3464  -5.6552   H         1 RES1   0.0000
    37 C19      8.8838   7.3849   2.2646   C.3       1 RES1   0.0000
    38 H15      9.4108   8.0804   1.8651   H         1 RES1   0.0000
    39 H16      9.2050   6.5308   1.9707   H         1 RES1   0.0000
    40 H17      8.9525   7.4399   3.2213   H         1 RES1   0.0000
    41 C20      7.4439   7.5481   1.8562   C.2       1 RES1   0.0000
    42 C21      6.9108   6.7938   0.7888   C.2       1 RES1   0.0000
    43 C22      5.5360   6.8170   0.4987   C.2       1 RES1   0.0000
    44 C23      4.9648   5.9784  -0.6158   C.3       1 RES1   0.0000
    45 H18      4.6840   5.1307  -0.2659   H         1 RES1   0.0000
    46 H19      5.6357   5.8415  -1.2888   H         1 RES1   0.0000
    47 H20      4.2110   6.4302  -1.0025   H         1 RES1   0.0000
    48 O3       6.7808   8.3724   2.5687   O.2       1 RES1   0.0000
    49 O4       4.6648   7.5073   1.1402   O.2       1 RES1   0.0000
    50 C24      7.8017   5.8707   0.0191   C.ar      1 RES1   0.0000
    51 C25      7.7719   4.5005   0.2545   C.ar      1 RES1   0.0000
    52 H21      7.2215   4.1638   0.9237   H         1 RES1   0.0000
    53 C26      8.5450   3.6281  -0.4860   C.ar      1 RES1   0.0000
    54 H22      8.4845   2.7118  -0.3333   H         1 RES1   0.0000
    55 C27      9.4153   4.1082  -1.4605   C.ar      1 RES1   0.0000
    56 C28      9.4594   5.4696  -1.7048   C.ar      1 RES1   0.0000
    57 H23     10.0386   5.8049  -2.3511   H         1 RES1   0.0000
    58 C29      8.6409   6.3390  -0.9847   C.ar      1 RES1   0.0000
    59 H24      8.6566   7.2477  -1.1794   H         1 RES1   0.0000
    60 C30     10.2383   3.1825  -2.1946   C.1       1 RES1   0.0000
    61 C31     10.8959   2.4034  -2.8142   C.1       1 RES1   0.0000
    62 C32     11.6265   1.4611  -3.6348   C.ar      1 RES1   0.0000
    63 C33     11.0828   0.2157  -3.9173   C.ar      1 RES1   0.0000
    64 H25     10.2609  -0.0366  -3.5623   H         1 RES1   0.0000
    65 C34     11.7940  -0.6442  -4.7430   C.ar      1 RES1   0.0000
    66 H26     11.4179  -1.4733  -4.9338   H         1 RES1   0.0000
    67 N2      12.9763  -0.3606  -5.2798   N.ar      1 RES1   0.0000
    68 C35     13.4787   0.8267  -4.9923   C.ar      1 RES1   0.0000
    69 H27     14.3042   1.0463  -5.3562   H         1 RES1   0.0000
    70 C36     12.8579   1.7665  -4.1844   C.ar      1 RES1   0.0000
    71 H28     13.2636   2.5867  -4.0165   H         1 RES1   0.0000
    72 C37      5.4565  12.0349   5.4096   C.3       1 RES1   0.0000
    73 H29      5.9677  12.5248   4.7608   H         1 RES1   0.0000
    74 H30      5.9864  11.9025   6.1997   H         1 RES1   0.0000
    75 H31      4.6657  12.5309   5.6348   H         1 RES1   0.0000
    76 C38      5.0622  10.6952   4.8371   C.2       1 RES1   0.0000
    77 C39      4.4940   9.7102   5.6475   C.2       1 RES1   0.0000
    78 C40      4.0993   8.4736   5.1348   C.2       1 RES1   0.0000
    79 C41      3.4953   7.4380   6.0483   C.3       1 RES1   0.0000
    80 H32      3.1446   6.7139   5.5241   H         1 RES1   0.0000
    81 H33      2.7862   7.8364   6.5597   H         1 RES1   0.0000
    82 H34      4.1701   7.1043   6.6450   H         1 RES1   0.0000
    83 O5       5.3047  10.5659   3.5850   O.2       1 RES1   0.0000
    84 O6       4.1959   8.1125   3.9108   O.2       1 RES1   0.0000
    85 C42      4.3691   9.9726   7.1208   C.ar      1 RES1   0.0000
    86 C43      3.4090  10.8328   7.6526   C.ar      1 RES1   0.0000
    87 H35      2.7778  11.2132   7.0864   H         1 RES1   0.0000
    88 C44      3.3769  11.1326   9.0025   C.ar      1 RES1   0.0000
    89 H36      2.7284  11.7104   9.3320   H         1 RES1   0.0000
    90 C45      4.3145  10.5717   9.8701   C.ar      1 RES1   0.0000
    91 C46      5.2429   9.6813   9.3549   C.ar      1 RES1   0.0000
    92 H37      5.8514   9.2731   9.9274   H         1 RES1   0.0000
    93 C47      5.2787   9.3881   8.0076   C.ar      1 RES1   0.0000
    94 H38      5.9176   8.7942   7.6844   H         1 RES1   0.0000
    95 C48      4.3309  10.9441  11.2620   C.1       1 RES1   0.0000
    96 C49      4.3348  11.3230  12.3994   C.1       1 RES1   0.0000
    97 C50      4.3022  11.8184  13.7416   C.ar      1 RES1   0.0000
    98 C51      5.2864  12.7844  14.1971   C.ar      1 RES1   0.0000
    99 H39      5.9457  13.1044  13.6233   H         1 RES1   0.0000
   100 C52      5.2152  13.2142  15.5024   C.ar      1 RES1   0.0000
   101 H40      5.8668  13.8029  15.8065   H         1 RES1   0.0000
   102 N3       4.2507  12.8268  16.3688   N.ar      1 RES1   0.0000
   103 C53      3.4240  11.9941  15.9210   C.ar      1 RES1   0.0000
   104 H41      2.7631  11.7043  16.5075   H         1 RES1   0.0000
   105 C54      3.3955  11.4572  14.6296   C.ar      1 RES1   0.0000
   106 H42      2.7370  10.8410  14.3955   H         1 RES1   0.0000
@<TRIPOS>BOND
     1     1    13    1
     2     2     3    1
     3     4     2    1
     4     5     2    1
     5     6     2    1
     6     7     6   un
     7     8     7   un
     8     9     8    1
     9    10     9    1
    10    11     9    1
    11    12     9    1
    12    13     6   un
    13    14     1    1
    14    15     7    1
    15    16    15   ar
    16    17    16    1
    17    18    16   ar
    18    19    18    1
    19    20    18   ar
    20    21    20   ar
    21    22    21    1
    22    23    15   ar
    23    24    23    1
    24    25    20    1
    25    26    25    3
    26    27    26    1
    27    28    27   ar
    28    29    28    1
    29    30    28   ar
    30    31    30    1
    31    32    30   ar
    32    33    32   ar
    33    34    33    1
    34    35    27   ar
    35    36    35    1
    36    37    38    1
    37    39    37    1
    38    40    37    1
    39    41    37    1
    40    42    41   un
    41    43    42   un
    42    44    43    1
    43    45    44    1
    44    46    44    1
    45    47    44    1
    46    48     1    1
    47    49     1    1
    48    50    42    1
    49    51    50   ar
    50    52    51    1
    51    53    51   ar
    52    54    53    1
    53    55    53   ar
    54    56    55   ar
    55    57    56    1
    56    58    50   ar
    57    59    58    1
    58    60    55    1
    59    61    60    3
    60    62    61    1
    61    63    62   ar
    62    64    63    1
    63    65    63   ar
    64    66    65    1
    65    67    65   ar
    66    68    67   ar
    67    69    68    1
    68    70    62   ar
    69    71    70    1
    70    72    73    1
    71    74    72    1
    72    75    72    1
    73    76    72    1
    74    77    76   un
    75    78    77   un
    76    79    78    1
    77    80    79    1
    78    81    79    1
    79    82    79    1
    80    83     1    1
    81    84     1    1
    82    85    77    1
    83    86    85   ar
    84    87    86    1
    85    88    86   ar
    86    89    88    1
    87    90    88   ar
    88    91    90   ar
    89    92    91    1
    90    93    85   ar
    91    94    93    1
    92    95    90    1
    93    96    95    3
    94    97    96    1
    95    98    97   ar
    96    99    98    1
    97   100    98   ar
    98   101   100    1
    99   102   100   ar
   100   103   102   ar
   101   104   103    1
   102   105    97   ar
   103   106   105    1
   104     8    14   un
   105    21    23   ar
   106    33    35   ar
   107    41    48   un
   108    43    49   un
   109    56    58   ar
   110    68    70   ar
   111    76    83   un
   112    78    84   un
   113    91    93   ar
   114   103   105   ar
@<TRIPOS>SUBSTRUCTURE
     1 RES1        1 GROUP             0 ****  ****    0  
@<TRIPOS>CRYSIN
   11.8991   30.5037   13.7244   90.0000  112.0280   90.0000   231     1
