@<TRIPOS>MOLECULE
TINDUP
    81    87     3     0     0
SMALL
NO_CHARGES
****
Generated from the CSD

@<TRIPOS>ATOM
     1 Fe1     11.9134   5.0603  22.2418   Fe        1 RES1   0.0000
     2 Sn1      9.3130   4.9709  17.6257   Sn        1 RES1   0.0000
     3 Sn2     12.0792  10.4901  22.2879   Sn        1 RES1   0.0000
     4 Sn3     15.7238   5.1366  26.0387   Sn        1 RES1   0.0000
     5 N1      11.9134   8.2048  22.1224   N.1       1 RES1   0.0000
     6 N2      13.9256   5.1277  24.5537   N.1       1 RES1   0.0000
     7 N3       9.4462   5.2343  24.1273   N.1       1 RES1   0.0000
     8 N4      12.0581   2.0050  22.4663   N.1       1 RES1   0.0000
     9 N5      14.2783   5.0494  20.2448   N.1       1 RES1   0.0000
    10 N6      10.0135   4.7537  19.8012   N.1       1 RES1   0.0000
    11 O1       8.5881   5.2256  15.4200   O.3       1 RES1   0.0000
    12 C1      11.9134   7.0174  22.1568   C.1       1 RES1   0.0000
    13 C2      13.1292   5.1038  23.7009   C.1       1 RES1   0.0000
    14 C3      10.4068   5.1842  23.4705   C.1       1 RES1   0.0000
    15 C4      11.9785   3.1662  22.3666   C.1       1 RES1   0.0000
    16 C5      13.3843   5.0103  20.9739   C.1       1 RES1   0.0000
    17 C6      10.6961   4.8863  20.7572   C.1       1 RES1   0.0000
    18 C7       9.7355   7.0588  17.7482   C.ar      1 RES1   0.0000
    19 C8      10.7969   7.5611  18.5254   C.ar      1 RES1   0.0000
    20 C9      11.0358   8.9333  18.5838   C.ar      1 RES1   0.0000
    21 C10     10.1419   9.8009  17.9442   C.ar      1 RES1   0.0000
    22 C11      9.1017   9.3116  17.1635   C.ar      1 RES1   0.0000
    23 C12      8.8579   7.9286  17.0845   C.ar      1 RES1   0.0000
    24 C13     10.8473   3.6555  16.9297   C.ar      1 RES1   0.0000
    25 C14     12.0435   3.5294  17.6484   C.ar      1 RES1   0.0000
    26 C15     13.0414   2.6552  17.1876   C.ar      1 RES1   0.0000
    27 C16     12.8334   1.9071  16.0184   C.ar      1 RES1   0.0000
    28 C17     11.6209   1.9941  15.3512   C.ar      1 RES1   0.0000
    29 C18     10.6392   2.8857  15.7777   C.ar      1 RES1   0.0000
    30 C19      7.3789   4.2035  18.0061   C.ar      1 RES1   0.0000
    31 C20      6.4524   4.9929  18.6939   C.ar      1 RES1   0.0000
    32 C21      5.1603   4.5036  18.9415   C.ar      1 RES1   0.0000
    33 C22      4.8141   3.2141  18.5322   C.ar      1 RES1   0.0000
    34 C23      5.7373   2.4421  17.8341   C.ar      1 RES1   0.0000
    35 C24      7.0050   2.9422  17.5659   C.ar      1 RES1   0.0000
    36 C25     12.3848  10.3272  24.3887   C.ar      1 RES1   0.0000
    37 C26     13.0512   9.2203  24.9423   C.ar      1 RES1   0.0000
    38 C27     13.2787   9.1703  26.3282   C.ar      1 RES1   0.0000
    39 C28     12.7749  10.1706  27.1604   C.ar      1 RES1   0.0000
    40 C29     12.1247  11.2818  26.6102   C.ar      1 RES1   0.0000
    41 C30     11.9622  11.3666  25.2175   C.ar      1 RES1   0.0000
    42 C31     13.6834  10.5686  20.8948   C.ar      1 RES1   0.0000
    43 C32     14.8390   9.8074  21.0942   C.ar      1 RES1   0.0000
    44 C33     15.9166   9.9031  20.2001   C.ar      1 RES1   0.0000
    45 C34     15.8385  10.7817  19.1134   C.ar      1 RES1   0.0000
    46 C35     14.6602  11.5102  18.8933   C.ar      1 RES1   0.0000
    47 C36     13.5859  11.4123  19.7840   C.ar      1 RES1   0.0000
    48 C37     10.1061  10.7838  21.5206   C.ar      1 RES1   0.0000
    49 C38      9.1829   9.7422  21.6066   C.ar      1 RES1   0.0000
    50 C39      7.8567   9.9575  21.1939   C.ar      1 RES1   0.0000
    51 C40      7.4813  11.1948  20.6644   C.ar      1 RES1   0.0000
    52 C41      8.4191  12.2082  20.5337   C.ar      1 RES1   0.0000
    53 C42      9.7274  12.0190  20.9979   C.ar      1 RES1   0.0000
    54 C43     16.0417   3.0510  25.7711   C.ar      1 RES1   0.0000
    55 C44     16.6106   2.2899  26.8028   C.ar      1 RES1   0.0000
    56 C45     16.8056   0.9068  26.6308   C.ar      1 RES1   0.0000
    57 C46     16.4480   0.3023  25.4272   C.ar      1 RES1   0.0000
    58 C47     15.9279   1.0677  24.3852   C.ar      1 RES1   0.0000
    59 C48     15.7167   2.4486  24.5641   C.ar      1 RES1   0.0000
    60 C49     16.6431   6.5564  24.7429   C.ar      1 RES1   0.0000
    61 C50     16.4643   6.4694  23.3536   C.ar      1 RES1   0.0000
    62 C51     17.0331   7.4350  22.5317   C.ar      1 RES1   0.0000
    63 C52     17.7483   8.5005  23.0957   C.ar      1 RES1   0.0000
    64 C53     17.8458   8.6266  24.4815   C.ar      1 RES1   0.0000
    65 C54     17.3094   7.6350  25.3103   C.ar      1 RES1   0.0000
    66 C55     14.4457   5.7779  27.6384   C.ar      1 RES1   0.0000
    67 C56     13.0707   5.6822  27.4287   C.ar      1 RES1   0.0000
    68 C57     12.1930   6.0954  28.4328   C.ar      1 RES1   0.0000
    69 C58     12.6838   6.6586  29.6055   C.ar      1 RES1   0.0000
    70 C59     14.0588   6.7717  29.8049   C.ar      1 RES1   0.0000
    71 C60     14.9430   6.3346  28.8111   C.ar      1 RES1   0.0000
    72 N4F     12.3214  12.8780  22.4663   N.3       1 RES1   0.0000
    73 N3E     17.5727   5.2343  27.4562   N.3       1 RES1   0.0000
    74 Sn3E     7.5973   5.1366  25.5448   Sn        1 RES1   0.0000
    75 Sn2F    12.3003  -0.3829  22.2879   Sn        1 RES1   0.0000
    76 C61      2.6655   8.0460   5.7670   C.3       2 RES2   0.0000
    77 C62      2.2754   7.2414   4.5084   C.1       2 RES2   0.0000
    78 N7       1.9341   6.6260   3.6212   N.1       2 RES2   0.0000
    79 C63      7.2326   8.4157   4.1817   C.3       3 RES3   0.0000
    80 C64      6.1599   9.3073   4.4121   C.1       3 RES3   0.0000
    81 N8       5.1847   9.9597   4.2539   N.1       3 RES3   0.0000
@<TRIPOS>BOND
     1     1    12    1
     2     2    10    1
     3     3     5    1
     4     4     6    1
     5     5    12    3
     6     6    13    3
     7     7    14    3
     8     8    15    3
     9     9    16    3
    10    10    17    3
    11    11     2    1
    12    13     1    1
    13    14     1    1
    14    15     1    1
    15    16     1    1
    16    17     1    1
    17    18     2    1
    18    19    18   ar
    19    20    19   ar
    20    21    20   ar
    21    22    21   ar
    22    23    18   ar
    23    24     2    1
    24    25    24   ar
    25    26    25   ar
    26    27    26   ar
    27    28    27   ar
    28    29    24   ar
    29    30     2    1
    30    31    30   ar
    31    32    31   ar
    32    33    32   ar
    33    34    33   ar
    34    35    30   ar
    35    36     3    1
    36    37    36   ar
    37    38    37   ar
    38    39    38   ar
    39    40    39   ar
    40    41    36   ar
    41    42     3    1
    42    43    42   ar
    43    44    43   ar
    44    45    44   ar
    45    46    45   ar
    46    47    42   ar
    47    48     3    1
    48    49    48   ar
    49    50    49   ar
    50    51    50   ar
    51    52    51   ar
    52    53    48   ar
    53    54     4    1
    54    55    54   ar
    55    56    55   ar
    56    57    56   ar
    57    58    57   ar
    58    59    54   ar
    59    60     4    1
    60    61    60   ar
    61    62    61   ar
    62    63    62   ar
    63    64    63   ar
    64    65    60   ar
    65    66     4    1
    66    67    66   ar
    67    68    67   ar
    68    69    68   ar
    69    70    69   ar
    70    71    66   ar
    71    72     3   un
    72    73     4   un
    73    74     7   un
    74    75     8   un
    75    22    23   ar
    76    28    29   ar
    77    34    35   ar
    78    40    41   ar
    79    46    47   ar
    80    52    53   ar
    81    58    59   ar
    82    64    65   ar
    83    70    71   ar
    84    76    77    1
    85    77    78    3
    86    79    80    1
    87    80    81    3
@<TRIPOS>SUBSTRUCTURE
     1 RES1        1 GROUP             0 ****  ****    0  
     2 RES2       76 GROUP             0 ****  ****    0  
     3 RES3       79 GROUP             0 ****  ****    0  
@<TRIPOS>CRYSIN
   16.2530   21.7460   34.3890   90.0000   90.0000   90.0000    61     1
