@<TRIPOS>MOLECULE
TINTUJ
   106   116     3     0     0
SMALL
USER_CHARGES
****
Generated from the CSD

@<TRIPOS>ATOM
     1 Fe1      8.4146  13.7671   3.4305   Fe        1 RES1   1.0000
     2 N1       8.5155  12.9090   5.2737   N.2       1 RES1   0.0000
     3 N2      10.4303  13.5820   3.2571   N.2       1 RES1   0.0000
     4 N3       8.3091  14.6855   1.6117   N.2       1 RES1   0.0000
     5 N4       6.4031  13.8789   3.5819   N.2       1 RES1   0.0000
     6 O1       8.6985  15.6950   4.2359   O.3       1 RES1   0.0000
     7 O2       8.2154  11.7758   2.6474   O.3       1 RES1   0.0000
     8 Br1      7.0720  13.0261   9.1274   Br        1 RES1   0.0000
     9 Br2     10.4382  12.4964   8.9116   Br        1 RES1   0.0000
    10 Br3     13.7428  11.1731   3.7638   Br        1 RES1   0.0000
    11 Br4     13.6110  12.7404   0.7516   Br        1 RES1   0.0000
    12 Br5     10.0015  17.5350  -0.8805   Br        1 RES1   0.0000
    13 Br6      6.7375  18.0300  -0.1852   Br        1 RES1   0.0000
    14 Br7      2.7517  13.5183   1.6467   Br        1 RES1   0.0000
    15 Br8      3.0026  11.7095   4.5202   Br        1 RES1   0.0000
    16 C1       7.4556  12.8793   6.1450   C.2       1 RES1   0.0000
    17 C2       7.9753  12.7737   7.4929   C.2       1 RES1   0.0000
    18 C3       9.3353  12.6352   7.4149   C.2       1 RES1   0.0000
    19 C4       9.6939  12.6830   6.0121   C.2       1 RES1   0.0000
    20 C5      10.9500  12.4900   5.4130   C.2       1 RES1   0.0000
    21 C6      11.2384  12.7721   4.0545   C.2       1 RES1   0.0000
    22 C7      12.4007  12.4026   3.3267   C.2       1 RES1   0.0000
    23 C8      12.3597  13.0261   2.1137   C.2       1 RES1   0.0000
    24 C9      11.1125  13.7898   2.0673   C.2       1 RES1   0.0000
    25 C10     10.7114  14.6888   1.0569   C.2       1 RES1   0.0000
    26 C11      9.4304  15.2034   0.9577   C.2       1 RES1   0.0000
    27 C12      8.9810  16.3284   0.1456   C.2       1 RES1   0.0000
    28 C13      7.6708  16.4868   0.3438   C.2       1 RES1   0.0000
    29 C14      7.2200  15.4393   1.2109   C.2       1 RES1   0.0000
    30 C15      5.8717  15.1045   1.5083   C.2       1 RES1   0.0000
    31 C16      5.5335  14.2170   2.5124   C.2       1 RES1   0.0000
    32 C17      4.2512  13.5622   2.7719   C.2       1 RES1   0.0000
    33 C18      4.3449  12.8974   3.9300   C.2       1 RES1   0.0000
    34 C19      5.6463  13.1119   4.5038   C.2       1 RES1   0.0000
    35 C20      6.1220  12.7935   5.7632   C.2       1 RES1   0.0000
    36 C21     12.0494  11.9539   6.2462   C.ar      1 RES1   0.0000
    37 C22     12.0860  10.6145   6.6386   C.ar      1 RES1   0.0000
    38 H1      11.3517  10.0466   6.4397   H         1 RES1   0.0000
    39 C23     13.1722  10.1131   7.3115   C.ar      1 RES1   0.0000
    40 H2      13.2059   9.1869   7.5222   H         1 RES1   0.0000
    41 C24     14.2115  10.9345   7.6807   C.ar      1 RES1   0.0000
    42 H3      14.9560  10.5826   8.1547   H         1 RES1   0.0000
    43 C25     14.1632  12.2574   7.3622   C.ar      1 RES1   0.0000
    44 H4      14.8634  12.8314   7.6510   H         1 RES1   0.0000
    45 C26     13.1136  12.7869   6.6259   C.ar      1 RES1   0.0000
    46 H5      13.1140  13.7049   6.3825   H         1 RES1   0.0000
    47 C27     11.7903  15.1573   0.1076   C.ar      1 RES1   0.0000
    48 C28     12.7828  15.9870   0.5611   C.ar      1 RES1   0.0000
    49 H6      12.8008  16.2506   1.4734   H         1 RES1   0.0000
    50 C29     13.7489  16.4389  -0.2995   C.ar      1 RES1   0.0000
    51 H7      14.4216  17.0300   0.0183   H         1 RES1   0.0000
    52 C30     13.7563  16.0397  -1.6328   C.ar      1 RES1   0.0000
    53 H8      14.4392  16.3428  -2.2186   H         1 RES1   0.0000
    54 C31     12.7637  15.1985  -2.0968   C.ar      1 RES1   0.0000
    55 H9      12.7756  14.9180  -3.0044   H         1 RES1   0.0000
    56 C32     11.7507  14.7548  -1.2573   C.ar      1 RES1   0.0000
    57 H10     11.0528  14.2007  -1.5838   H         1 RES1   0.0000
    58 C33      4.8236  15.6966   0.6265   C.ar      1 RES1   0.0000
    59 C34      3.8837  16.5940   1.1560   C.ar      1 RES1   0.0000
    60 H11      3.8646  16.7768   2.0886   H         1 RES1   0.0000
    61 C35      2.9849  17.2109   0.2995   C.ar      1 RES1   0.0000
    62 H12      2.3603  17.8339   0.6536   H         1 RES1   0.0000
    63 C36      2.9732  16.9453  -1.0421   C.ar      1 RES1   0.0000
    64 H13      2.3427  17.3672  -1.6133   H         1 RES1   0.0000
    65 C37      3.9086  16.0397  -1.5568   C.ar      1 RES1   0.0000
    66 H14      3.9142  15.8437  -2.4865   H         1 RES1   0.0000
    67 C38      4.8162  15.4327  -0.7278   C.ar      1 RES1   0.0000
    68 H15      5.4470  14.8217  -1.0897   H         1 RES1   0.0000
    69 C39      5.1237  12.3053   6.7778   C.ar      1 RES1   0.0000
    70 C40      4.1399  13.1350   7.2609   C.ar      1 RES1   0.0000
    71 H16      4.0785  14.0247   6.9359   H         1 RES1   0.0000
    72 C41      3.2294  12.6913   8.2228   C.ar      1 RES1   0.0000
    73 H17      2.6118  13.2942   8.6209   H         1 RES1   0.0000
    74 C42      3.2484  11.3370   8.5899   C.ar      1 RES1   0.0000
    75 H18      2.5864  10.9947   9.1794   H         1 RES1   0.0000
    76 C43      4.2102  10.5189   8.1047   C.ar      1 RES1   0.0000
    77 H19      4.2312   9.6115   8.3860   H         1 RES1   0.0000
    78 C44      5.1705  10.9725   7.2018   C.ar      1 RES1   0.0000
    79 H20      5.8453  10.3870   6.8812   H         1 RES1   0.0000
    80 C45      9.5754  15.9837   5.3434   C.3       1 RES1   0.0000
    81 H21      9.7258  16.9508   5.3976   H         1 RES1   0.0000
    82 H22     10.4312  15.5263   5.2116   H         1 RES1   0.0000
    83 H23      9.1627  15.6712   6.1765   H         1 RES1   0.0000
    84 C46      8.9005  11.3783   1.4471   C.3       1 RES1   0.0000
    85 H24      8.4968  10.5567   1.0982   H         1 RES1   0.0000
    86 H25      9.8458  11.2178   1.6498   H         1 RES1   0.0000
    87 H26      8.8257  12.0898   0.7779   H         1 RES1   0.0000
    88 H27      8.3735  11.6950   3.4385   H         1 RES1   0.0000
    89 H28      8.0954  16.2146   4.2823   H         1 RES1   0.0000
    90 C47     14.3550  16.3020   6.6977   C.ar      2 RES2   0.0000
    91 H29     14.3358  16.6448   7.5831   H         2 RES2   0.0000
    92 C48     15.4617  15.6323   6.2357   C.ar      2 RES2   0.0000
    93 H30     16.1982  15.5192   6.8245   H         2 RES2   0.0000
    94 C49     15.5539  15.1259   4.9784   C.ar      2 RES2   0.0000
    95 H31     16.3375  14.6733   4.6903   H         2 RES2   0.0000
    96 C50     14.4575  15.2909   4.1199   C.ar      2 RES2   0.0000
    97 H32     14.4851  14.9365   3.2390   H         2 RES2   0.0000
    98 C51     13.3420  15.9688   4.5565   C.ar      2 RES2   0.0000
    99 H33     12.6103  16.0987   3.9630   H         2 RES2   0.0000
   100 C52     13.2688  16.4703   5.8581   C.ar      2 RES2   0.0000
   101 H34     12.4877  16.9170   6.1608   H         2 RES2   0.0000
   102 Cl1      5.6272  16.8798   5.5334   Cl        3 RES3   0.0000
   103 O3       4.4342  16.2360   5.0417   O.2       3 RES3   0.0000
   104 O4       6.3358  15.9540   6.3623   O.2       3 RES3   0.0000
   105 O5       5.2393  18.0323   6.2863   O.2       3 RES3   0.0000
   106 O6       6.4499  17.2670   4.4067   O.3       3 RES3  -1.0000
@<TRIPOS>BOND
     1     1     2    1
     2     2    16    2
     3     3     1    1
     4     4     1    1
     5     5     1    1
     6     6     1    1
     7     7     1    1
     8     8    17    1
     9     9    18    1
    10    10    22    1
    11    11    23    1
    12    12    27    1
    13    13    28    1
    14    14    32    1
    15    15    33    1
    16    16    17    1
    17    17    18    2
    18    18    19    1
    19    19     2    1
    20    20    19    2
    21    21     3    1
    22    22    21    2
    23    23    22    1
    24    24     3    1
    25    25    24    1
    26    26     4    1
    27    27    26    1
    28    28    27    2
    29    29     4    2
    30    30    29    1
    31    31     5    1
    32    32    31    1
    33    33    32    2
    34    34     5    1
    35    35    16    1
    36    36    20    1
    37    37    36   ar
    38    38    37    1
    39    39    37   ar
    40    40    39    1
    41    41    39   ar
    42    42    41    1
    43    43    41   ar
    44    44    43    1
    45    45    36   ar
    46    46    45    1
    47    47    25    1
    48    48    47   ar
    49    49    48    1
    50    50    48   ar
    51    51    50    1
    52    52    50   ar
    53    53    52    1
    54    54    52   ar
    55    55    54    1
    56    56    47   ar
    57    57    56    1
    58    58    30    1
    59    59    58   ar
    60    60    59    1
    61    61    59   ar
    62    62    61    1
    63    63    61   ar
    64    64    63    1
    65    65    63   ar
    66    66    65    1
    67    67    58   ar
    68    68    67    1
    69    69    35    1
    70    70    69   ar
    71    71    70    1
    72    72    70   ar
    73    73    72    1
    74    74    72   ar
    75    75    74    1
    76    76    74   ar
    77    77    76    1
    78    78    69   ar
    79    79    78    1
    80    80     6    1
    81    81    80    1
    82    82    80    1
    83    83    80    1
    84    84     7    1
    85    85    84    1
    86    86    84    1
    87    87    84    1
    88    88     7    1
    89    89     6    1
    90    20    21    1
    91    23    24    2
    92    25    26    2
    93    28    29    1
    94    30    31    2
    95    33    34    1
    96    34    35    2
    97    43    45   ar
    98    54    56   ar
    99    65    67   ar
   100    76    78   ar
   101    90    91    1
   102    92    90   ar
   103    93    92    1
   104    94    92   ar
   105    95    94    1
   106    96    94   ar
   107    97    96    1
   108    98    96   ar
   109    99    98    1
   110   100    90   ar
   111   101   100    1
   112    98   100   ar
   113   102   103    2
   114   104   102    2
   115   105   102    2
   116   106   102    1
@<TRIPOS>SUBSTRUCTURE
     1 RES1        1 GROUP             0 ****  ****    0  
     2 RES2       90 GROUP             0 ****  ****    0  
     3 RES3      102 GROUP             0 ****  ****    0  
@<TRIPOS>CRYSIN
   14.6390   16.4950   21.0950   90.0000   90.0000   90.0000    19     1
