@<TRIPOS>MOLECULE
TITJIQ
   127   137     3     0     0
SMALL
NO_CHARGES
****
Generated from the CSD

@<TRIPOS>ATOM
     1 Fe1     13.2295  12.2785  16.1999   Fe        1 RES1   0.0000
     2 N1      13.6482  10.4565  15.8809   N.2       1 RES1   0.0000
     3 O1      13.5039   9.4964  16.8667   O.3       1 RES1   0.0000
     4 N2      11.8443  11.6733  17.3509   N.2       1 RES1   0.0000
     5 O2      12.1049  10.7902  18.3840   O.3       1 RES1   0.0000
     6 N3      14.4010  12.1773  17.6955   N.2       1 RES1   0.0000
     7 O3      14.5533  11.0274  18.4449   O.3       1 RES1   0.0000
     8 N4      11.6831  12.9007  15.2922   N.2       1 RES1   0.0000
     9 O4      11.7594  13.8054  14.2627   O.3       1 RES1   0.0000
    10 N5      14.1629  12.3747  14.5310   N.2       1 RES1   0.0000
    11 O5      14.1366  13.5107  13.7626   O.3       1 RES1   0.0000
    12 N6      13.6911  14.1390  16.4803   N.2       1 RES1   0.0000
    13 O6      13.4232  15.0989  15.5015   O.3       1 RES1   0.0000
    14 B1      13.4120  10.1037  18.2016   B         1 RES1   0.0000
    15 F1      13.4779   9.1125  19.1352   F         1 RES1   0.0000
    16 B2      13.0970  14.4749  14.2168   B         1 RES1   0.0000
    17 F2      13.0275  15.4613  13.2787   F         1 RES1   0.0000
    18 C1      14.3693  10.1309  14.8445   C.2       1 RES1   0.0000
    19 C2      14.9681   8.7842  14.6549   C.ar      1 RES1   0.0000
    20 C3      14.1850   7.6497  14.7756   C.ar      1 RES1   0.0000
    21 H1      13.2795   7.7279  14.9734   H         1 RES1   0.0000
    22 C4      14.7483   6.4029  14.6016   C.ar      1 RES1   0.0000
    23 H2      14.2158   5.6433  14.6756   H         1 RES1   0.0000
    24 C5      16.0759   6.2695  14.3212   C.ar      1 RES1   0.0000
    25 H3      16.4497   5.4241  14.2168   H         1 RES1   0.0000
    26 C6      16.8463   7.3769  14.1929   C.ar      1 RES1   0.0000
    27 H4      17.7502   7.2857  13.9950   H         1 RES1   0.0000
    28 C7      16.3057   8.6448  14.3566   C.ar      1 RES1   0.0000
    29 H5      16.8445   9.3973  14.2646   H         1 RES1   0.0000
    30 C8      14.5564  11.2626  13.9494   C.2       1 RES1   0.0000
    31 C9      15.0296  11.1292  12.5564   C.ar      1 RES1   0.0000
    32 C10     14.6865  10.0060  11.8037   C.ar      1 RES1   0.0000
    33 H6      14.1321   9.3596  12.1753   H         1 RES1   0.0000
    34 C11     15.1567   9.8414  10.5229   C.ar      1 RES1   0.0000
    35 H7      14.9172   9.0870  10.0337   H         1 RES1   0.0000
    36 C12     15.9766  10.7865   9.9652   C.ar      1 RES1   0.0000
    37 H8      16.2983  10.6689   9.1010   H         1 RES1   0.0000
    38 C13     16.3186  11.8914  10.6708   C.ar      1 RES1   0.0000
    39 H9      16.8723  12.5303  10.2838   H         1 RES1   0.0000
    40 C14     15.8507  12.0784  11.9661   C.ar      1 RES1   0.0000
    41 H10     16.0883  12.8433  12.4384   H         1 RES1   0.0000
    42 C15     10.5004  12.6860  15.8161   C.2       1 RES1   0.0000
    43 C16      9.2320  13.2778  15.3245   C.ar      1 RES1   0.0000
    44 C17      8.9408  13.3307  13.9733   C.ar      1 RES1   0.0000
    45 H11      9.5674  13.0373  13.3515   H         1 RES1   0.0000
    46 C18      7.7253  13.8160  13.5450   C.ar      1 RES1   0.0000
    47 H12      7.5364  13.8512  12.6362   H         1 RES1   0.0000
    48 C19      6.7906  14.2498  14.4494   C.ar      1 RES1   0.0000
    49 H13      5.9669  14.5630  14.1538   H         1 RES1   0.0000
    50 C20      7.0765  14.2187  15.7931   C.ar      1 RES1   0.0000
    51 H14      6.4455  14.5238  16.4062   H         1 RES1   0.0000
    52 C21      8.2890  13.7413  16.2423   C.ar      1 RES1   0.0000
    53 H15      8.4772  13.7280  17.1519   H         1 RES1   0.0000
    54 C22     10.5952  11.8219  16.9858   C.2       1 RES1   0.0000
    55 C23      9.4323  11.1815  17.6368   C.ar      1 RES1   0.0000
    56 C24      9.3014  11.1652  19.0224   C.ar      1 RES1   0.0000
    57 H16      9.9790  11.5111  19.5587   H         1 RES1   0.0000
    58 C25      8.1611  10.6346  19.6022   C.ar      1 RES1   0.0000
    59 H17      8.0811  10.6204  20.5284   H         1 RES1   0.0000
    60 C26      7.1377  10.1233  18.8195   C.ar      1 RES1   0.0000
    61 H18      6.3659   9.7855  19.2152   H         1 RES1   0.0000
    62 C27      7.2786  10.1255  17.4498   C.ar      1 RES1   0.0000
    63 H19      6.6018   9.7746  16.9149   H         1 RES1   0.0000
    64 C28      8.4149  10.6411  16.8623   C.ar      1 RES1   0.0000
    65 H20      8.4998  10.6260  15.9366   H         1 RES1   0.0000
    66 C29     14.9035  13.2707  18.1968   C.2       1 RES1   0.0000
    67 C30     14.5602  14.4492  17.4052   C.2       1 RES1   0.0000
    68 N7      15.7850  13.3103  19.2876   N.pl3     1 RES1   0.0000
    69 H21     16.6243  13.1739  19.1543   H         1 RES1   0.0000
    70 C31     15.3047  13.5801  20.6588   C.3       1 RES1   0.0000
    71 C32     15.8051  14.8710  21.1241   C.3       1 RES1   0.0000
    72 H22     15.4806  15.0378  22.0133   H         1 RES1   0.0000
    73 H23     15.4974  15.5641  20.5349   H         1 RES1   0.0000
    74 H24     16.7650  14.8597  21.1306   H         1 RES1   0.0000
    75 C33     15.7990  12.5746  21.5350   C.3       1 RES1   0.0000
    76 H25     15.4509  11.7193  21.2676   H         1 RES1   0.0000
    77 H26     15.5211  12.7678  22.4330   H         1 RES1   0.0000
    78 H27     16.7580  12.5568  21.4937   H         1 RES1   0.0000
    79 C34     13.8885  13.7821  20.7023   C.3       1 RES1   0.0000
    80 H28     13.4420  12.9822  20.4153   H         1 RES1   0.0000
    81 H29     13.6509  14.5074  20.1196   H         1 RES1   0.0000
    82 H30     13.6230  13.9926  21.6003   H         1 RES1   0.0000
    83 N8      15.2143  15.6028  17.6829   N.pl3     1 RES1   0.0000
    84 H31     15.9224  15.4818  18.1564   H         1 RES1   0.0000
    85 C35     14.9827  17.0164  17.3519   C.3       1 RES1   0.0000
    86 C36     13.5448  17.3800  17.5411   C.3       1 RES1   0.0000
    87 H32     13.0063  16.8932  16.9149   H         1 RES1   0.0000
    88 H33     13.4315  18.3225  17.3976   H         1 RES1   0.0000
    89 H34     13.2734  17.1598  18.4369   H         1 RES1   0.0000
    90 C37     15.4420  17.3379  15.9387   C.3       1 RES1   0.0000
    91 H35     14.8977  16.8587  15.3082   H         1 RES1   0.0000
    92 H36     16.3592  17.0752  15.8322   H         1 RES1   0.0000
    93 H37     15.3584  18.2812  15.7822   H         1 RES1   0.0000
    94 C38     15.8538  17.8043  18.3434   C.3       1 RES1   0.0000
    95 H38     15.5683  17.6172  19.2413   H         1 RES1   0.0000
    96 H39     15.7656  18.7449  18.1694   H         1 RES1   0.0000
    97 H40     16.7721  17.5443  18.2390   H         1 RES1   0.0000
    98 C39      9.3017   9.3138  13.3189   C.ar      2 RES2   0.0000
    99 H41      8.8566   8.7249  13.8842   H         2 RES2   0.0000
   100 C40     10.5286   9.7871  13.6624   C.ar      2 RES2   0.0000
   101 H42     10.9174   9.5288  14.4668   H         2 RES2   0.0000
   102 C41     11.1906  10.6367  12.8319   C.ar      2 RES2   0.0000
   103 H43     12.0354  10.9393  13.0797   H         2 RES2   0.0000
   104 C42     10.6535  11.0641  11.6383   C.ar      2 RES2   0.0000
   105 C43      9.3797  10.5700  11.3100   C.ar      2 RES2   0.0000
   106 H44      8.9728  10.8307  10.5142   H         2 RES2   0.0000
   107 C44      8.7313   9.7008  12.1601   C.ar      2 RES2   0.0000
   108 H45      7.8906   9.3764  11.9318   H         2 RES2   0.0000
   109 C45     11.3821  12.0016  10.7360   C.3       2 RES2   0.0000
   110 H46     12.2316  12.2267  11.1252   H         2 RES2   0.0000
   111 H47     10.8643  12.8008  10.6164   H         2 RES2   0.0000
   112 H48     11.5224  11.5809   9.8837   H         2 RES2   0.0000
   113 C46     16.0882   5.0771  18.1107   C.ar      3 RES3   0.0000
   114 H49     16.4117   5.0671  17.2389   H         3 RES3   0.0000
   115 C47     15.3153   5.9620  18.5412   C.ar      3 RES3   0.0000
   116 H50     15.0748   6.6556  17.9694   H         3 RES3   0.0000
   117 C48     14.8226   5.9608  19.7761   C.ar      3 RES3   0.0000
   118 H51     14.2297   6.6246  20.0457   H         3 RES3   0.0000
   119 C49     15.1862   4.9940  20.6306   C.ar      3 RES3   0.0000
   120 C50     16.0170   3.9372  20.4327   C.ar      3 RES3   0.0000
   121 H52     16.2523   3.2860  21.0524   H         3 RES3   0.0000
   122 C51     16.4439   4.0302  19.1130   C.ar      3 RES3   0.0000
   123 H53     17.0198   3.3610  18.8195   H         3 RES3   0.0000
   124 C52     14.8500   4.8206  21.9742   C.3       3 RES3   0.0000
   125 H54     14.2606   5.5263  22.2503   H         3 RES3   0.0000
   126 H55     15.6482   4.8424  22.5090   H         3 RES3   0.0000
   127 H56     14.4121   3.9740  22.0873   H         3 RES3   0.0000
@<TRIPOS>BOND
     1     1     2    1
     2     2     3    1
     3     3    14    1
     4     4     1    1
     5     5     4    1
     6     6     1    1
     7     7     6    1
     8     8     1    1
     9     9     8    1
    10    10     1    1
    11    11    10    1
    12    12     1    1
    13    13    12    1
    14    14     5    1
    15    15    14    1
    16    16     9    1
    17    17    16    1
    18    18     2    2
    19    19    18    1
    20    20    19   ar
    21    21    20    1
    22    22    20   ar
    23    23    22    1
    24    24    22   ar
    25    25    24    1
    26    26    24   ar
    27    27    26    1
    28    28    19   ar
    29    29    28    1
    30    30    10    2
    31    31    30    1
    32    32    31   ar
    33    33    32    1
    34    34    32   ar
    35    35    34    1
    36    36    34   ar
    37    37    36    1
    38    38    36   ar
    39    39    38    1
    40    40    31   ar
    41    41    40    1
    42    42     8    2
    43    43    42    1
    44    44    43   ar
    45    45    44    1
    46    46    44   ar
    47    47    46    1
    48    48    46   ar
    49    49    48    1
    50    50    48   ar
    51    51    50    1
    52    52    43   ar
    53    53    52    1
    54    54     4    2
    55    55    54    1
    56    56    55   ar
    57    57    56    1
    58    58    56   ar
    59    59    58    1
    60    60    58   ar
    61    61    60    1
    62    62    60   ar
    63    63    62    1
    64    64    55   ar
    65    65    64    1
    66    66     6    2
    67    67    12    2
    68    68    66    1
    69    69    68    1
    70    70    68    1
    71    71    70    1
    72    72    71    1
    73    73    71    1
    74    74    71    1
    75    75    70    1
    76    76    75    1
    77    77    75    1
    78    78    75    1
    79    79    70    1
    80    80    79    1
    81    81    79    1
    82    82    79    1
    83    83    67    1
    84    84    83    1
    85    85    83    1
    86    86    85    1
    87    87    86    1
    88    88    86    1
    89    89    86    1
    90    90    85    1
    91    91    90    1
    92    92    90    1
    93    93    90    1
    94    94    85    1
    95    95    94    1
    96    96    94    1
    97    97    94    1
    98     7    14    1
    99    11    16    1
   100    13    16    1
   101    18    30    1
   102    26    28   ar
   103    38    40   ar
   104    42    54    1
   105    50    52   ar
   106    62    64   ar
   107    66    67    1
   108    98    99    1
   109   100    98   ar
   110   101   100    1
   111   102   100   ar
   112   103   102    1
   113   104   102   ar
   114   105   104   ar
   115   106   105    1
   116   107    98   ar
   117   108   107    1
   118   109   104    1
   119   110   109    1
   120   111   109    1
   121   112   109    1
   122   105   107   ar
   123   113   114    1
   124   115   113   ar
   125   116   115    1
   126   117   115   ar
   127   118   117    1
   128   119   117   ar
   129   120   119   ar
   130   121   120    1
   131   122   113   ar
   132   123   122    1
   133   124   119    1
   134   125   124    1
   135   126   124    1
   136   127   124    1
   137   120   122   ar
@<TRIPOS>SUBSTRUCTURE
     1 RES1        1 GROUP             0 ****  ****    0  
     2 RES2       98 GROUP             0 ****  ****    0  
     3 RES3      113 GROUP             0 ****  ****    0  
@<TRIPOS>CRYSIN
   10.7673   11.9520   22.5473   75.7290   89.1610   65.3340     2     1
