@<TRIPOS>MOLECULE
TIWQOI01
   110   124     1     0     0
SMALL
USER_CHARGES
****
Generated from the CSD

@<TRIPOS>ATOM
     1 C1      25.9676   2.8089  18.7081   C.ar      1 RES1   0.0000
     2 H1      25.7382   2.5461  17.8245   H         1 RES1   0.0000
     3 C2      26.8818   2.0499  19.4196   C.ar      1 RES1   0.0000
     4 H2      27.2725   1.2761  19.0292   H         1 RES1   0.0000
     5 C3      27.2112   2.4208  20.6725   C.ar      1 RES1   0.0000
     6 H3      27.8440   1.9136  21.1657   H         1 RES1   0.0000
     7 C4      26.6309   3.5397  21.2392   C.ar      1 RES1   0.0000
     8 H4      26.8457   3.8038  22.1269   H         1 RES1   0.0000
     9 C5      25.7228   4.2644  20.4773   C.ar      1 RES1   0.0000
    10 C6      25.0809   5.4889  20.9642   C.ar      1 RES1   0.0000
    11 C7      25.1506   6.1620  22.1899   C.ar      1 RES1   0.0000
    12 H5      25.6688   5.9298  22.9517   H         1 RES1   0.0000
    13 C8      24.3021   7.2342  22.0430   C.ar      1 RES1   0.0000
    14 H6      24.1342   7.9036  22.6957   H         1 RES1   0.0000
    15 C9      23.2110  10.6413  19.5392   C.2       1 RES1   0.0000
    16 H7      22.5279  11.0073  20.0912   H         1 RES1   0.0000
    17 C10     24.0398  11.3623  18.7480   C.2       1 RES1   0.0000
    18 H8      24.0591  12.3043  18.6305   H         1 RES1   0.0000
    19 C11     24.8551  10.4227  18.1498   C.2       1 RES1   0.0000
    20 C12     25.9939  10.6671  17.2411   C.ar      1 RES1   0.0000
    21 C13     26.8588   9.6685  16.8654   C.ar      1 RES1   0.0000
    22 H9      26.7505   8.7732  17.1634   H         1 RES1   0.0000
    23 C14     27.9008  10.0407  16.0196   C.ar      1 RES1   0.0000
    24 H10     28.5329   9.3897  15.7363   H         1 RES1   0.0000
    25 C15     28.0228  11.3254  15.5999   C.ar      1 RES1   0.0000
    26 H11     28.7132  11.5698  14.9975   H         1 RES1   0.0000
    27 C16     27.1518  12.2454  16.0490   C.ar      1 RES1   0.0000
    28 H12     27.2691  13.1481  15.7762   H         1 RES1   0.0000
    29 C17     20.4457   7.5916  19.3230   C.ar      1 RES1   0.0000
    30 H13     19.9752   7.9994  20.0429   H         1 RES1   0.0000
    31 C18     19.8774   7.0365  18.2380   C.ar      1 RES1   0.0000
    32 H14     18.9512   6.9640  18.0470   H         1 RES1   0.0000
    33 C19     20.9480   6.5869  17.4489   C.ar      1 RES1   0.0000
    34 C20     20.8750   5.9249  16.1372   C.ar      1 RES1   0.0000
    35 C21     21.9058   5.9814  15.2305   C.ar      1 RES1   0.0000
    36 H15     22.7073   6.4445  15.4446   H         1 RES1   0.0000
    37 C22     21.7671   5.3575  14.0007   C.ar      1 RES1   0.0000
    38 H16     22.4839   5.3501  13.3752   H         1 RES1   0.0000
    39 C23     20.5708   4.7520  13.7110   C.ar      1 RES1   0.0000
    40 H17     20.4287   4.3467  12.8631   H         1 RES1   0.0000
    41 C24     19.5779   4.7385  14.6659   C.ar      1 RES1   0.0000
    42 H18     18.7729   4.2767  14.4645   H         1 RES1   0.0000
    43 C25     21.3470   4.1735  19.6798   C.ar      1 RES1   0.0000
    44 H19     21.5679   4.7839  20.3745   H         1 RES1   0.0000
    45 C26     20.1339   3.5225  19.7428   C.ar      1 RES1   0.0000
    46 H20     19.5354   3.6933  20.4585   H         1 RES1   0.0000
    47 C27     19.8025   2.6247  18.7564   C.ar      1 RES1   0.0000
    48 H21     18.9692   2.1715  18.7690   H         1 RES1   0.0000
    49 C28     20.7222   2.3987  17.7406   C.ar      1 RES1   0.0000
    50 H22     20.5301   1.7711  17.0543   H         1 RES1   0.0000
    51 C29     21.8975   3.0791  17.7343   C.ar      1 RES1   0.0000
    52 C30     22.9008   2.9342  16.6555   C.ar      1 RES1   0.0000
    53 C31     23.0647   1.9283  15.7069   C.ar      1 RES1   0.0000
    54 H23     22.5241   1.1582  15.5726   H         1 RES1   0.0000
    55 C32     24.1786   2.2992  15.0143   C.ar      1 RES1   0.0000
    56 H24     24.5529   1.8288  14.2777   H         1 RES1   0.0000
    57 C33     28.3285   3.4513  14.9241   C.2       1 RES1   0.0000
    58 H25     28.6997   4.0408  15.5684   H         1 RES1   0.0000
    59 C34     29.0356   2.5424  14.1769   C.2       1 RES1   0.0000
    60 H26     29.9724   2.3840  14.1979   H         1 RES1   0.0000
    61 C35     28.1003   1.9087  13.3920   C.2       1 RES1   0.0000
    62 C36     28.3107   0.7836  12.5231   C.ar      1 RES1   0.0000
    63 C37     27.2367   0.0958  11.9733   C.ar      1 RES1   0.0000
    64 H27     26.3466   0.3820  12.1244   H         1 RES1   0.0000
    65 C38     27.5086  -1.0231  11.1946   C.ar      1 RES1   0.0000
    66 H28     26.7992  -1.5181  10.8001   H         1 RES1   0.0000
    67 C39     28.8397  -1.4112  10.9995   C.ar      1 RES1   0.0000
    68 H29     29.0503  -2.1813  10.4832   H         1 RES1   0.0000
    69 C40     29.8100  -0.6743  11.5556   C.ar      1 RES1   0.0000
    70 H30     30.7143  -0.9359  11.4066   H         1 RES1   0.0000
    71 C41     25.5613   5.2224  12.7309   C.2       1 RES1   0.0000
    72 H31     25.8335   4.4584  12.2356   H         1 RES1   0.0000
    73 C42     25.1103   6.3720  12.1978   C.2       1 RES1   0.0000
    74 H32     24.9864   6.5734  11.2786   H         1 RES1   0.0000
    75 C43     24.8653   7.2084  13.3018   C.2       1 RES1   0.0000
    76 C44     24.3885   8.5865  13.2787   C.ar      1 RES1   0.0000
    77 C45     24.2087   9.3283  14.4435   C.ar      1 RES1   0.0000
    78 H33     24.3353   8.9304  15.2977   H         1 RES1   0.0000
    79 C46     23.8415  10.6609  14.3281   C.ar      1 RES1   0.0000
    80 H34     23.7246  11.1952  15.1067   H         1 RES1   0.0000
    81 C47     23.6458  11.1940  13.0982   C.ar      1 RES1   0.0000
    82 H35     23.4208  12.1127  13.0017   H         1 RES1   0.0000
    83 C48     23.7727  10.4079  12.0132   C.ar      1 RES1   0.0000
    84 H36     23.5789  10.7789  11.1611   H         1 RES1   0.0000
    85 B1      22.7696   8.1996  20.1625   B         1 RES1  -1.0000
    86 H37     22.2399   8.6123  20.9055   H         1 RES1   0.0000
    87 B2      25.9507   4.2619  15.1529   B         1 RES1  -1.0000
    88 H38     26.2963   4.7311  15.9651   H         1 RES1   0.0000
    89 N1      25.3982   3.8984  19.2275   N.ar      1 RES1   0.0000
    90 N2      24.2340   6.1116  20.1294   N.ar      1 RES1   0.0000
    91 N3      23.7444   7.1740  20.7949   N.ar      1 RES1   0.0000
    92 N4      23.4978   9.3283  19.4307   N.pl3     1 RES1   0.0000
    93 N5      24.5223   9.1588  18.5438   N.2       1 RES1   0.0000
    94 N6      26.1296  11.9543  16.8654   N.ar      1 RES1   0.0000
    95 N7      21.7762   7.4786  19.2320   N.ar      1 RES1   0.0000
    96 N8      22.1141   6.8412  18.0632   N.ar      1 RES1   0.0000
    97 N9      19.6805   5.3354  15.8601   N.ar      1 RES1   0.0000
    98 N10     22.2263   3.9856  18.6907   N.ar      1 RES1   0.0000
    99 N11     23.8725   3.8566  16.5808   N.ar      1 RES1   0.0000
   100 N12     24.6662   3.4415  15.5405   N.ar      1 RES1   0.0000
   101 N13     27.0322   3.3727  14.6009   N.pl3     1 RES1   0.0000
   102 N14     26.8585   2.4257  13.6124   N.2       1 RES1   0.0000
   103 N15     29.5801   0.4286  12.3196   N.ar      1 RES1   0.0000
   104 N16     25.5647   5.3194  14.0783   N.pl3     1 RES1   0.0000
   105 N17     25.1307   6.5538  14.4351   N.2       1 RES1   0.0000
   106 N18     24.1587   9.1220  12.0782   N.ar      1 RES1   0.0000
   107 O1      25.0935   6.7282  17.3200   O.3       1 RES1   0.0000
   108 H39     25.0892   6.8535  16.4289   H         1 RES1   0.0000
   109 H40     25.0864   7.5400  17.6587   H         1 RES1   0.0000
   110 Fe1     23.9361   5.2802  18.2139   Fe        1 RES1   2.0000
@<TRIPOS>BOND
     1     1     2    1
     2     3     1   ar
     3     4     3    1
     4     5     3   ar
     5     6     5    1
     6     7     5   ar
     7     8     7    1
     8     9     7   ar
     9    10     9    1
    10    11    10   ar
    11    12    11    1
    12    13    11   ar
    13    14    13    1
    14    15    16    1
    15    17    15    2
    16    18    17    1
    17    19    17    1
    18    20    19    1
    19    21    20   ar
    20    22    21    1
    21    23    21   ar
    22    24    23    1
    23    25    23   ar
    24    26    25    1
    25    27    25   ar
    26    28    27    1
    27    29    30    1
    28    31    29   ar
    29    32    31    1
    30    33    31   ar
    31    34    33    1
    32    35    34   ar
    33    36    35    1
    34    37    35   ar
    35    38    37    1
    36    39    37   ar
    37    40    39    1
    38    41    39   ar
    39    42    41    1
    40    43    44    1
    41    45    43   ar
    42    46    45    1
    43    47    45   ar
    44    48    47    1
    45    49    47   ar
    46    50    49    1
    47    51    49   ar
    48    52    51    1
    49    53    52   ar
    50    54    53    1
    51    55    53   ar
    52    56    55    1
    53    57    58    1
    54    59    57    2
    55    60    59    1
    56    61    59    1
    57    62    61    1
    58    63    62   ar
    59    64    63    1
    60    65    63   ar
    61    66    65    1
    62    67    65   ar
    63    68    67    1
    64    69    67   ar
    65    70    69    1
    66    71    72    1
    67    73    71    2
    68    74    73    1
    69    75    73    1
    70    76    75    1
    71    77    76   ar
    72    78    77    1
    73    79    77   ar
    74    80    79    1
    75    81    79   ar
    76    82    81    1
    77    83    81   ar
    78    84    83    1
    79    85    86    1
    80    87    88    1
    81    89     1   ar
    82    90    10   ar
    83    91    13   ar
    84    92    15    1
    85    93    19    2
    86    94    20   ar
    87    95    29   ar
    88    96    33   ar
    89    97    34   ar
    90    98    43   ar
    91    99    52   ar
    92   100    55   ar
    93   101    57    1
    94   102    61    2
    95   103    62   ar
    96   104    71    1
    97   105    75    2
    98   106    76   ar
    99   107   108    1
   100   109   107    1
   101   110    89    1
   102     9    89   ar
   103    27    94   ar
   104    41    97   ar
   105    51    98   ar
   106    69   103   ar
   107    83   106   ar
   108    85    91    1
   109    85    92    1
   110    85    95    1
   111    87   100    1
   112    87   101    1
   113    87   104    1
   114    90    91   ar
   115    90   110    1
   116    92    93    1
   117    95    96   ar
   118    96   110    1
   119    98   110    1
   120    99   100   ar
   121    99   110    1
   122   101   102    1
   123   104   105    1
   124   107   110    1
@<TRIPOS>SUBSTRUCTURE
     1 RES1        1 GROUP             0 ****  ****    0  
@<TRIPOS>CRYSIN
   38.5591   12.2822   24.0260   90.0000  119.1290   90.0000    15     1
