@<TRIPOS>MOLECULE
TIXXEF
    97   105     3     0     0
SMALL
USER_CHARGES
****
Generated from the CSD

@<TRIPOS>ATOM
     1 Fe1      4.7636   3.1598   4.9715   Fe        1 RES1   1.0000
     2 O1       3.2129   2.9129   6.0393   O.3       1 RES1   0.0000
     3 O2       6.1070   3.6819   3.6427   O.2       1 RES1   0.0000
     4 N1       3.3436   3.8936   3.6512   N.2       1 RES1   0.0000
     5 N2       5.3845   4.7686   6.2288   N.ar      1 RES1   0.0000
     6 N3       6.3883   2.2775   6.1679   N.3       1 RES1   0.0000
     7 N4       4.8550   1.1236   4.3158   N.ar      1 RES1   0.0000
     8 C1       2.1453   3.6301   5.6608   C.ar      1 RES1   0.0000
     9 C2       2.1382   4.1644   4.3568   C.ar      1 RES1   0.0000
    10 C3       1.0612   4.9467   3.9517   C.ar      1 RES1   0.0000
    11 H1       1.0534   5.3201   3.1005   H         1 RES1   0.0000
    12 C4      -0.0006   5.1707   4.8136   C.ar      1 RES1   0.0000
    13 H2      -0.7282   5.6738   4.5303   H         1 RES1   0.0000
    14 C5       0.0170   4.6484   6.0924   C.ar      1 RES1   0.0000
    15 H3      -0.6951   4.8102   6.6683   H         1 RES1   0.0000
    16 C6       1.0855   3.8909   6.5147   C.ar      1 RES1   0.0000
    17 H4       1.0961   3.5517   7.3805   H         1 RES1   0.0000
    18 C7       2.2771   3.8069   1.4126   C.3       1 RES1   0.0000
    19 H5       1.4695   3.8936   1.9236   H         1 RES1   0.0000
    20 H6       2.2540   2.9857   0.9174   H         1 RES1   0.0000
    21 H7       2.3519   4.5449   0.8036   H         1 RES1   0.0000
    22 C8       3.4575   3.8004   2.3393   C.2       1 RES1   0.0000
    23 C9       4.7285   3.6763   1.7369   C.3       1 RES1   0.0000
    24 H8       4.6896   2.8561   1.2233   H         1 RES1   0.0000
    25 H9       4.7756   4.3946   1.0882   H         1 RES1   0.0000
    26 C10      5.9473   3.6613   2.3446   C.2       1 RES1   0.0000
    27 C11      7.2220   3.6197   1.5582   C.ar      1 RES1   0.0000
    28 C12      6.8500   1.2023   1.0128   C.ar      1 RES1   0.0000
    29 H10      6.0420   1.2026   1.4735   H         1 RES1   0.0000
    30 C13      7.2883   0.0439   0.4514   C.ar      1 RES1   0.0000
    31 H11      6.7889  -0.7339   0.5454   H         1 RES1   0.0000
    32 C14      8.4930   0.0206  -0.2687   C.ar      1 RES1   0.0000
    33 H12      8.7895  -0.7752  -0.6474   H         1 RES1   0.0000
    34 C15      9.2192   1.1377  -0.4170   C.ar      1 RES1   0.0000
    35 H13     10.0065   1.1023  -0.9108   H         1 RES1   0.0000
    36 C16      9.5745   3.5331   0.0490   C.ar      1 RES1   0.0000
    37 H14     10.3480   3.5133  -0.4673   H         1 RES1   0.0000
    38 C17      9.9921   5.8919   0.5362   C.ar      1 RES1   0.0000
    39 H15     10.7335   5.8890  -0.0238   H         1 RES1   0.0000
    40 C18      9.6770   7.0090   1.1888   C.ar      1 RES1   0.0000
    41 H16     10.2143   7.7635   1.0975   H         1 RES1   0.0000
    42 C19      8.5174   7.0591   2.0295   C.ar      1 RES1   0.0000
    43 H17      8.3059   7.8431   2.4849   H         1 RES1   0.0000
    44 C20      7.7290   5.9632   2.1605   C.ar      1 RES1   0.0000
    45 H18      6.9769   6.0039   2.7073   H         1 RES1   0.0000
    46 C21      7.5892   2.4113   0.9161   C.ar      1 RES1   0.0000
    47 C22      8.8128   2.3792   0.1628   C.ar      1 RES1   0.0000
    48 C23      9.2251   4.7032   0.6712   C.ar      1 RES1   0.0000
    49 C24      8.0295   4.7566   1.4801   C.ar      1 RES1   0.0000
    50 C25      4.6431   5.8495   6.5161   C.ar      1 RES1   0.0000
    51 H19      3.8268   5.9568   6.0845   H         1 RES1   0.0000
    52 C26      5.0369   6.7932   7.4150   C.ar      1 RES1   0.0000
    53 H20      4.5000   7.5307   7.5910   H         1 RES1   0.0000
    54 C27      6.2462   6.6373   8.0610   C.ar      1 RES1   0.0000
    55 H21      6.5413   7.2743   8.6700   H         1 RES1   0.0000
    56 C28      7.0090   5.5226   7.7870   C.ar      1 RES1   0.0000
    57 H22      7.8203   5.3938   8.2212   H         1 RES1   0.0000
    58 C29      6.5612   4.6077   6.8722   C.ar      1 RES1   0.0000
    59 C30      7.3297   3.3795   6.4843   C.3       1 RES1   0.0000
    60 H23      7.8819   3.5693   5.7098   H         1 RES1   0.0000
    61 H24      7.9113   3.1125   7.2137   H         1 RES1   0.0000
    62 C31      5.7617   1.6977   7.4070   C.3       1 RES1   0.0000
    63 H25      5.0272   1.1230   7.1383   H         1 RES1   0.0000
    64 H26      5.3868   2.4257   7.9286   H         1 RES1   0.0000
    65 C32      6.6839   0.9043   8.2940   C.ar      1 RES1   0.0000
    66 C33      7.4414   1.5359   9.2697   C.ar      1 RES1   0.0000
    67 H27      7.3797   2.4552   9.3849   H         1 RES1   0.0000
    68 C34      8.2965   0.7893  10.0773   C.ar      1 RES1   0.0000
    69 H28      8.8326   1.2173  10.7048   H         1 RES1   0.0000
    70 C35      8.3497  -0.5868   9.9449   C.ar      1 RES1   0.0000
    71 H29      8.9021  -1.0876  10.5022   H         1 RES1   0.0000
    72 C36      7.5876  -1.2143   8.9917   C.ar      1 RES1   0.0000
    73 H30      7.6274  -2.1398   8.9003   H         1 RES1   0.0000
    74 C37      6.7563  -0.4695   8.1616   C.ar      1 RES1   0.0000
    75 H31      6.2455  -0.8990   7.5143   H         1 RES1   0.0000
    76 C38      7.0304   1.2606   5.3166   C.3       1 RES1   0.0000
    77 H32      7.5872   0.6809   5.8608   H         1 RES1   0.0000
    78 H33      7.5974   1.6948   4.6600   H         1 RES1   0.0000
    79 C39      5.9805   0.4445   4.6203   C.ar      1 RES1   0.0000
    80 C40      6.1518  -0.8701   4.2536   C.ar      1 RES1   0.0000
    81 H34      6.9441  -1.3116   4.4575   H         1 RES1   0.0000
    82 C41      5.1498  -1.5265   3.5850   C.ar      1 RES1   0.0000
    83 H35      5.2478  -2.4198   3.3454   H         1 RES1   0.0000
    84 C42      3.9952  -0.8400   3.2766   C.ar      1 RES1   0.0000
    85 H36      3.3034  -1.2586   2.8185   H         1 RES1   0.0000
    86 C43      3.8847   0.4813   3.6618   C.ar      1 RES1   0.0000
    87 H37      3.1034   0.9432   3.4566   H         1 RES1   0.0000
    88 P1      -0.4694   4.6298  10.6080   P.3       2 RES2  -1.0000
    89 F1      -1.8404   4.2732  11.1853   F         2 RES2   0.0000
    90 F2      -1.0329   5.8312   9.8006   F         2 RES2   0.0000
    91 F3      -0.7661   3.6940   9.3518   F         2 RES2   0.0000
    92 F4       0.9319   4.9243   9.9555   F         2 RES2   0.0000
    93 F5       0.1857   3.4379  11.3521   F         2 RES2   0.0000
    94 F6      -0.2005   5.5373  11.8420   F         2 RES2   0.0000
    95 N5       4.6429   4.0439  10.0217   N.1       3 RES3   0.0000
    96 C44      3.6158   5.9921  11.4183   C.3       3 RES3   0.0000
    97 C45      4.1928   4.9016  10.6306   C.1       3 RES3   0.0000
@<TRIPOS>BOND
     1     1     2    1
     2     2     8    1
     3     3     1    1
     4     4     1    1
     5     5     1    1
     6     6     1    1
     7     7     1    1
     8     8     9   ar
     9     9     4    1
    10    10     9   ar
    11    11    10    1
    12    12    10   ar
    13    13    12    1
    14    14    12   ar
    15    15    14    1
    16    16     8   ar
    17    17    16    1
    18    18    19    1
    19    20    18    1
    20    21    18    1
    21    22     4    2
    22    23    22    1
    23    24    23    1
    24    25    23    1
    25    26     3    2
    26    27    26    1
    27    28    29    1
    28    30    28   ar
    29    31    30    1
    30    32    30   ar
    31    33    32    1
    32    34    32   ar
    33    35    34    1
    34    36    37    1
    35    38    39    1
    36    40    38   ar
    37    41    40    1
    38    42    40   ar
    39    43    42    1
    40    44    42   ar
    41    45    44    1
    42    46    27   ar
    43    47    34   ar
    44    48    36   ar
    45    49    27   ar
    46    50     5   ar
    47    51    50    1
    48    52    50   ar
    49    53    52    1
    50    54    52   ar
    51    55    54    1
    52    56    54   ar
    53    57    56    1
    54    58     5   ar
    55    59     6    1
    56    60    59    1
    57    61    59    1
    58    62     6    1
    59    63    62    1
    60    64    62    1
    61    65    62    1
    62    66    65   ar
    63    67    66    1
    64    68    66   ar
    65    69    68    1
    66    70    68   ar
    67    71    70    1
    68    72    70   ar
    69    73    72    1
    70    74    65   ar
    71    75    74    1
    72    76     6    1
    73    77    76    1
    74    78    76    1
    75    79     7   ar
    76    80    79   ar
    77    81    80    1
    78    82    80   ar
    79    83    82    1
    80    84    82   ar
    81    85    84    1
    82    86     7   ar
    83    87    86    1
    84    14    16   ar
    85    18    22    1
    86    23    26    1
    87    28    46   ar
    88    36    47   ar
    89    38    48   ar
    90    44    49   ar
    91    46    47   ar
    92    48    49   ar
    93    56    58   ar
    94    58    59    1
    95    72    74   ar
    96    76    79    1
    97    84    86   ar
    98    88    89    1
    99    90    88    1
   100    91    88    1
   101    92    88    1
   102    93    88    1
   103    94    88    1
   104    95    97    3
   105    96    97    1
@<TRIPOS>SUBSTRUCTURE
     1 RES1        1 GROUP             0 ****  ****    0  
     2 RES2       88 GROUP             0 ****  ****    0  
     3 RES3       95 GROUP             0 ****  ****    0  
@<TRIPOS>CRYSIN
   10.7233   29.4743   13.6392   90.0000  103.9200   90.0000    14     2
