@<TRIPOS>MOLECULE
TIZPUO
   100   101     5     0     0
SMALL
USER_CHARGES
****
Generated from the CSD

@<TRIPOS>ATOM
     1 Fe1      8.0363  15.2331   7.5085   Fe        1 RES1   0.0000
     2 B1       6.3891  14.0897   9.9054   B         1 RES1  -1.0000
     3 N1       7.8757  15.9756   9.3836   N.2       1 RES1   0.0000
     4 N2       7.1632  15.3320  10.3599   N.pl3     1 RES1   0.0000
     5 C1       8.5809  16.9356  10.0014   C.2       1 RES1   0.0000
     6 H1       9.1615  17.5482   9.5661   H         1 RES1   0.0000
     7 C2       8.3361  16.9077  11.3762   C.2       1 RES1   0.0000
     8 H2       8.7070  17.4784  12.0388   H         1 RES1   0.0000
     9 C3       7.4564  15.8888  11.5651   C.2       1 RES1   0.0000
    10 H3       7.1016  15.6127  12.4021   H         1 RES1   0.0000
    11 N3       8.2554  13.4539   8.3833   N.2       1 RES1   0.0000
    12 N4       7.4403  13.0677   9.4140   N.pl3     1 RES1   0.0000
    13 C4       9.1424  12.4613   8.1977   C.2       1 RES1   0.0000
    14 H4       9.8212  12.4613   7.5335   H         1 RES1   0.0000
    15 C5       8.9313  11.4300   9.1147   C.2       1 RES1   0.0000
    16 H5       9.4180  10.6189   9.2012   H         1 RES1   0.0000
    17 C6       7.8537  11.8534   9.8654   C.2       1 RES1   0.0000
    18 H6       7.4638  11.3726  10.5856   H         1 RES1   0.0000
    19 N5       6.0783  14.9381   7.5639   N.2       1 RES1   0.0000
    20 N6       5.4934  14.4666   8.7098   N.pl3     1 RES1   0.0000
    21 C7       5.0814  15.2079   6.7268   C.2       1 RES1   0.0000
    22 H7       5.1943  15.5321   5.8418   H         1 RES1   0.0000
    23 C8       3.8514  14.9505   7.3174   C.2       1 RES1   0.0000
    24 H8       2.9893  15.0730   6.9365   H         1 RES1   0.0000
    25 C9       4.1519  14.4790   8.5786   C.2       1 RES1   0.0000
    26 H9       3.5230  14.2107   9.2396   H         1 RES1   0.0000
    27 N7       5.5198  13.4740  10.9857   N.pl3     1 RES1   0.0000
    28 N8       5.1210  14.1518  12.1140   N.2       1 RES1   0.0000
    29 C10      4.8615  12.2907  10.9057   C.2       1 RES1   0.0000
    30 H10      4.9539  11.6518  10.2095   H         1 RES1   0.0000
    31 C11      4.0434  12.1698  11.9988   C.2       1 RES1   0.0000
    32 H11      3.4702  11.4455  12.2197   H         1 RES1   0.0000
    33 C12      4.2428  13.3360  12.6998   C.2       1 RES1   0.0000
    34 H12      3.8001  13.5407  13.5161   H         1 RES1   0.0000
    35 C13      9.9018  15.5988   7.5143   C.1       1 RES1   0.0000
    36 N9      11.0351  15.8376   7.4838   N.1       1 RES1   0.0000
    37 C14      7.7672  16.9248   6.6676   C.1       1 RES1  -1.0000
    38 N10      7.5796  17.9437   6.1490   N.1       1 RES1   0.0000
    39 C15      8.2525  14.4061   5.8113   C.1       1 RES1   0.0000
    40 N11      8.4534  13.8618   4.8158   N.1       1 RES1   0.0000
    41 N12     10.0968  11.3261  14.6092   N.4       2 RES2   1.0000
    42 C16      9.8916  10.0187  13.8778   C.3       2 RES2   0.0000
    43 H13      8.9166   9.8558  13.8041   H         2 RES2   0.0000
    44 H14     10.2698   9.2913  14.4331   H         2 RES2   0.0000
    45 C17     10.4956   9.9179  12.4885   C.3       2 RES2   0.0000
    46 H15     10.1159  10.6158  11.9156   H         2 RES2   0.0000
    47 H16     10.2933   9.0370  12.1060   H         2 RES2   0.0000
    48 H17     11.4676  10.0342  12.5446   H         2 RES2   0.0000
    49 C18      9.4987  12.4861  13.8329   C.3       2 RES2   0.0000
    50 H18      9.7200  13.3267  14.3067   H         2 RES2   0.0000
    51 H19      9.9326  12.5249  12.9431   H         2 RES2   0.0000
    52 C19      8.0033  12.4303  13.6345   C.3       2 RES2   0.0000
    53 H20      7.7672  11.6052  13.1591   H         2 RES2   0.0000
    54 H21      7.7145  13.2042  13.1063   H         2 RES2   0.0000
    55 H22      7.5561  12.4443  14.5068   H         2 RES2   0.0000
    56 C20     11.5673  11.6595  14.7628   C.3       2 RES2   0.0000
    57 H23     11.6450  12.5575  15.1709   H         2 RES2   0.0000
    58 H24     11.9749  11.7060  13.8602   H         2 RES2   0.0000
    59 C21     12.3663  10.6747  15.6031   C.3       2 RES2   0.0000
    60 H25     12.0438  10.6980  16.5282   H         2 RES2   0.0000
    61 H26     13.3148  10.9228  15.5823   H         2 RES2   0.0000
    62 H27     12.2578   9.7705  15.2414   H         2 RES2   0.0000
    63 C22      9.4312  11.1632  15.9584   C.3       2 RES2   0.0000
    64 H28      9.8197  10.3692  16.4033   H         2 RES2   0.0000
    65 H29      8.4695  10.9802  15.8111   H         2 RES2   0.0000
    66 C23      9.5573  12.3466  16.8931   C.3       2 RES2   0.0000
    67 H30     10.4985  12.4722  17.1363   H         2 RES2   0.0000
    68 H31      9.0295  12.1791  17.7029   H         2 RES2   0.0000
    69 H32      9.2245  13.1530  16.4481   H         2 RES2   0.0000
    70 N13     13.5641  13.9595  10.0046   N.4       3 RES3   1.0000
    71 C24     14.9319  13.4461  10.4367   C.3       3 RES3   0.0000
    72 H33     14.8073  12.6459  11.0065   H         3 RES3   0.0000
    73 H34     15.4363  13.1654   9.6317   H         3 RES3   0.0000
    74 C25     15.7617  14.4682  11.2034   C.3       3 RES3   0.0000
    75 H35     15.9831  15.2188  10.6128   H         3 RES3   0.0000
    76 H36     16.5886  14.0463  11.5203   H         3 RES3   0.0000
    77 H37     15.2486  14.7954  11.9700   H         3 RES3   0.0000
    78 C26     12.7064  14.1301  11.2450   C.3       3 RES3   0.0000
    79 H38     13.1052  14.8419  11.8067   H         3 RES3   0.0000
    80 H39     12.7372  13.2895  11.7667   H         3 RES3   0.0000
    81 C27     11.2521  14.4821  10.9841   C.3       3 RES3   0.0000
    82 H40     11.2052  15.2498  10.3775   H         3 RES3   0.0000
    83 H41     10.8137  14.7085  11.8307   H         3 RES3   0.0000
    84 H42     10.7976  13.7144  10.5776   H         3 RES3   0.0000
    85 C28     12.9557  12.9840   9.0315   C.3       3 RES3   0.0000
    86 H43     13.5553  12.9064   8.2473   H         3 RES3   0.0000
    87 H44     12.0951  13.3515   8.7130   H         3 RES3   0.0000
    88 C29     12.7094  11.5928   9.5901   C.3       3 RES3   0.0000
    89 H45     13.5685  11.1617   9.7837   H         3 RES3   0.0000
    90 H46     12.2168  11.0593   8.9323   H         3 RES3   0.0000
    91 H47     12.1845  11.6595  10.4143   H         3 RES3   0.0000
    92 C30     13.6770  15.3056   9.3196   C.3       3 RES3   0.0000
    93 H48     14.0083  15.9679   9.9774   H         3 RES3   0.0000
    94 H49     12.7724  15.5925   9.0379   H         3 RES3   0.0000
    95 C31     14.5903  15.3320   8.1096   C.3       3 RES3   0.0000
    96 H50     15.4582  14.9427   8.3481   H         3 RES3   0.0000
    97 H51     14.7164  16.2579   7.8151   H         3 RES3   0.0000
    98 H52     14.1872  14.8109   7.3846   H         3 RES3   0.0000
    99 O1       6.5489  12.6505   3.1706   O.3       4 RES4   0.0000
   100 O2      11.4456  13.6741   5.7681   O.3       5 RES5   0.0000
@<TRIPOS>BOND
     1     1     3    1
     2     2     4    1
     3     3     4    1
     4     4     9    1
     5     5     3    2
     6     6     5    1
     7     7     5    1
     8     8     7    1
     9     9     7    2
    10    10     9    1
    11    11     1    1
    12    12     2    1
    13    13    11    2
    14    14    13    1
    15    15    13    1
    16    16    15    1
    17    17    12    1
    18    18    17    1
    19    19     1    1
    20    20     2    1
    21    21    19    2
    22    22    21    1
    23    23    21    1
    24    24    23    1
    25    25    20    1
    26    26    25    1
    27    27     2    1
    28    28    27    1
    29    29    27    1
    30    30    29    1
    31    31    29    2
    32    32    31    1
    33    33    28    2
    34    34    33    1
    35    35     1    1
    36    36    35    3
    37    37     1    1
    38    38    37    3
    39    39     1    1
    40    40    39    3
    41    11    12    1
    42    15    17    2
    43    19    20    1
    44    23    25    2
    45    31    33    1
    46    41    42    1
    47    42    43    1
    48    44    42    1
    49    45    42    1
    50    46    45    1
    51    47    45    1
    52    48    45    1
    53    49    41    1
    54    50    49    1
    55    51    49    1
    56    52    49    1
    57    53    52    1
    58    54    52    1
    59    55    52    1
    60    56    41    1
    61    57    56    1
    62    58    56    1
    63    59    56    1
    64    60    59    1
    65    61    59    1
    66    62    59    1
    67    63    41    1
    68    64    63    1
    69    65    63    1
    70    66    63    1
    71    67    66    1
    72    68    66    1
    73    69    66    1
    74    70    71    1
    75    71    72    1
    76    73    71    1
    77    74    71    1
    78    75    74    1
    79    76    74    1
    80    77    74    1
    81    78    70    1
    82    79    78    1
    83    80    78    1
    84    81    78    1
    85    82    81    1
    86    83    81    1
    87    84    81    1
    88    85    70    1
    89    86    85    1
    90    87    85    1
    91    88    85    1
    92    89    88    1
    93    90    88    1
    94    91    88    1
    95    92    70    1
    96    93    92    1
    97    94    92    1
    98    95    92    1
    99    96    95    1
   100    97    95    1
   101    98    95    1
@<TRIPOS>SUBSTRUCTURE
     1 RES1        1 GROUP             0 ****  ****    0  
     2 RES2       41 GROUP             0 ****  ****    0  
     3 RES3       70 GROUP             0 ****  ****    0  
     4 RES4       99 GROUP             0 ****  ****    0  
     5 RES5      100 GROUP             0 ****  ****    0  
@<TRIPOS>CRYSIN
   14.6607   15.5088   16.0048   90.0000   90.0000   90.0000    19     1
