@<TRIPOS>MOLECULE
TOLSOD
   102   111     3     0     0
SMALL
USER_CHARGES
****
Generated from the CSD

@<TRIPOS>ATOM
     1 Fe1     10.6237   6.1851   1.9697   Fe        1 RES1   1.0000
     2 O1      11.3435   5.6117   0.4174   O.3       1 RES1   0.0000
     3 O2       9.9508   4.4073   2.1040   O.3       1 RES1   0.0000
     4 N1      12.1412   5.8236   3.1710   N.ar      1 RES1   0.0000
     5 N2      11.2730   8.0157   1.8691   N.ar      1 RES1   0.0000
     6 N3       8.9330   6.7523   1.1895   N.ar      1 RES1   0.0000
     7 N4       9.7422   6.7639   3.6670   N.3       1 RES1   0.0000
     8 N5      10.9218   4.3101   0.0356   N.2       1 RES1   0.0000
     9 C1      13.4191   5.7321   2.8311   C.ar      1 RES1   0.0000
    10 H1      13.6612   5.8352   1.9404   H         1 RES1   0.0000
    11 C2      14.3965   5.4866   3.7712   C.ar      1 RES1   0.0000
    12 H2      15.2866   5.4206   3.5108   H         1 RES1   0.0000
    13 C3      14.0518   5.3407   5.0757   C.ar      1 RES1   0.0000
    14 H3      14.7016   5.1427   5.7116   H         1 RES1   0.0000
    15 C4      12.7291   5.4889   5.4622   C.ar      1 RES1   0.0000
    16 H4      12.4726   5.4241   6.3529   H         1 RES1   0.0000
    17 C5      11.8037   5.7379   4.4536   C.ar      1 RES1   0.0000
    18 C6      10.3560   5.9000   4.7249   C.3       1 RES1   0.0000
    19 H5      10.2303   6.3076   5.5965   H         1 RES1   0.0000
    20 H6       9.9244   5.0315   4.7304   H         1 RES1   0.0000
    21 C7      10.0083   8.2149   3.9109   C.3       1 RES1   0.0000
    22 H7       9.1641   8.6919   3.9438   H         1 RES1   0.0000
    23 H8      10.4399   8.3168   4.7743   H         1 RES1   0.0000
    24 C8      10.8690   8.8182   2.8640   C.ar      1 RES1   0.0000
    25 C9      11.2841  10.1476   2.9161   C.ar      1 RES1   0.0000
    26 H9      10.9924  10.7080   3.5985   H         1 RES1   0.0000
    27 C10     12.1260  10.6096   1.9514   C.ar      1 RES1   0.0000
    28 H10     12.4072  11.4955   1.9733   H         1 RES1   0.0000
    29 C11     12.5654   9.7863   0.9455   C.ar      1 RES1   0.0000
    30 H11     13.1528  10.0920   0.2933   H         1 RES1   0.0000
    31 C12     12.0981   8.4777   0.9373   C.ar      1 RES1   0.0000
    32 H12     12.3738   7.9068   0.2576   H         1 RES1   0.0000
    33 C13      8.3280   6.4860   3.4889   C.3       1 RES1   0.0000
    34 H13      7.8040   6.9851   4.1357   H         1 RES1   0.0000
    35 H14      8.1537   5.5399   3.6149   H         1 RES1   0.0000
    36 C14      7.9544   6.8994   2.0911   C.ar      1 RES1   0.0000
    37 C15      6.7042   7.3579   1.7595   C.ar      1 RES1   0.0000
    38 H15      6.0363   7.4413   2.4008   H         1 RES1   0.0000
    39 C16      6.4733   7.6903   0.4467   C.ar      1 RES1   0.0000
    40 H16      5.6493   8.0400   0.1973   H         1 RES1   0.0000
    41 C17      7.4285   7.5143  -0.4824   C.ar      1 RES1   0.0000
    42 H17      7.2473   7.6880  -1.3786   H         1 RES1   0.0000
    43 C18      8.7018   7.0673  -0.0959   C.ar      1 RES1   0.0000
    44 H18      9.3821   6.9897  -0.7235   H         1 RES1   0.0000
    45 C19     10.2313   3.7832   0.9921   C.2       1 RES1   0.0000
    46 C20      9.6815   2.4029   0.8551   C.ar      1 RES1   0.0000
    47 C21      9.8755   1.6803  -0.3152   C.ar      1 RES1   0.0000
    48 H19     10.3593   2.0497  -1.0168   H         1 RES1   0.0000
    49 C22      9.3311   0.3821  -0.4275   C.ar      1 RES1   0.0000
    50 H20      9.4655  -0.1204  -1.2004   H         1 RES1   0.0000
    51 C23      8.6017  -0.1239   0.6139   C.ar      1 RES1   0.0000
    52 H21      8.2238  -0.9704   0.5317   H         1 RES1   0.0000
    53 C24      8.4149   0.5593   1.7540   C.ar      1 RES1   0.0000
    54 H22      7.9179   0.1911   2.4474   H         1 RES1   0.0000
    55 C25      8.9786   1.8343   1.8856   C.ar      1 RES1   0.0000
    56 H23      8.8758   2.3021   2.6831   H         1 RES1   0.0000
    57 B1      12.0707   1.2298   6.4652   B         2 RES2  -1.0000
    58 C26     12.8726   1.5378   5.0538   C.ar      2 RES2   0.0000
    59 C27     14.2028   1.1765   4.8784   C.ar      2 RES2   0.0000
    60 H24     14.6338   0.7295   5.5718   H         2 RES2   0.0000
    61 C28     14.9221   1.4487   3.7218   C.ar      2 RES2   0.0000
    62 H25     15.8152   1.1974   3.6588   H         2 RES2   0.0000
    63 C29     14.3140   2.0902   2.6694   C.ar      2 RES2   0.0000
    64 H26     14.7881   2.2859   1.8938   H         2 RES2   0.0000
    65 C30     12.9911   2.4353   2.7873   C.ar      2 RES2   0.0000
    66 H27     12.5530   2.8487   2.0802   H         2 RES2   0.0000
    67 C31     12.3093   2.1713   3.9548   C.ar      2 RES2   0.0000
    68 H28     11.4175   2.4318   4.0096   H         2 RES2   0.0000
    69 C32     12.5057  -0.2443   7.0709   C.ar      2 RES2   0.0000
    70 C33     12.5181  -0.5257   8.4056   C.ar      2 RES2   0.0000
    71 H29     12.3636   0.1633   9.0086   H         2 RES2   0.0000
    72 C34     12.7616  -1.8366   8.9044   C.ar      2 RES2   0.0000
    73 H30     12.7273  -2.0057   9.8198   H         2 RES2   0.0000
    74 C35     13.0456  -2.8440   8.0219   C.ar      2 RES2   0.0000
    75 H31     13.2484  -3.6940   8.3399   H         2 RES2   0.0000
    76 C36     13.0334  -2.6124   6.7037   C.ar      2 RES2   0.0000
    77 H32     13.1822  -3.3084   6.1035   H         2 RES2   0.0000
    78 C37     12.7944  -1.3166   6.2350   C.ar      2 RES2   0.0000
    79 H33     12.8305  -1.1649   5.3169   H         2 RES2   0.0000
    80 C38     10.4691   1.2263   6.1967   C.ar      2 RES2   0.0000
    81 C39      9.7140   2.4005   6.0185   C.ar      2 RES2   0.0000
    82 H34     10.1394   3.2169   6.1501   H         2 RES2   0.0000
    83 C40      8.3862   2.4167   5.6650   C.ar      2 RES2   0.0000
    84 H35      7.9429   3.2273   5.5663   H         2 RES2   0.0000
    85 C41      7.7079   1.2275   5.4539   C.ar      2 RES2   0.0000
    86 H36      6.8142   1.2252   5.1991   H         2 RES2   0.0000
    87 C42      8.4034   0.0394   5.6376   C.ar      2 RES2   0.0000
    88 H37      7.9694  -0.7724   5.5115   H         2 RES2   0.0000
    89 C43      9.7331   0.0533   6.0048   C.ar      2 RES2   0.0000
    90 H38     10.1622  -0.7620   6.1281   H         2 RES2   0.0000
    91 C44     12.5019   2.3866   7.5834   C.ar      2 RES2   0.0000
    92 C45     11.6340   2.9969   8.4522   C.ar      2 RES2   0.0000
    93 H39     10.7271   2.8047   8.3810   H         2 RES2   0.0000
    94 C46     12.0462   3.8955   9.4444   C.ar      2 RES2   0.0000
    95 H40     11.4133   4.2742  10.0089   H         2 RES2   0.0000
    96 C47     13.3392   4.2198   9.5869   C.ar      2 RES2   0.0000
    97 H41     13.6098   4.8196  10.2446   H         2 RES2   0.0000
    98 C48     14.2426   3.6500   8.7510   C.ar      2 RES2   0.0000
    99 H42     15.1457   3.8538   8.8387   H         2 RES2   0.0000
   100 C49     13.8260   2.7607   7.7616   C.ar      2 RES2   0.0000
   101 H43     14.4676   2.4017   7.1915   H         2 RES2   0.0000
   102 O3       9.4202   4.5984  -2.4200   O.3       3 RES3   0.0000
@<TRIPOS>BOND
     1     1     2    1
     2     2     8    1
     3     3     1    1
     4     4     1    1
     5     5     1    1
     6     6     1    1
     7     7     1    1
     8     8    45    2
     9     9     4   ar
    10    10     9    1
    11    11     9   ar
    12    12    11    1
    13    13    11   ar
    14    14    13    1
    15    15    13   ar
    16    16    15    1
    17    17     4   ar
    18    18     7    1
    19    19    18    1
    20    20    18    1
    21    21     7    1
    22    22    21    1
    23    23    21    1
    24    24     5   ar
    25    25    24   ar
    26    26    25    1
    27    27    25   ar
    28    28    27    1
    29    29    27   ar
    30    30    29    1
    31    31     5   ar
    32    32    31    1
    33    33     7    1
    34    34    33    1
    35    35    33    1
    36    36     6   ar
    37    37    36   ar
    38    38    37    1
    39    39    37   ar
    40    40    39    1
    41    41    39   ar
    42    42    41    1
    43    43     6   ar
    44    44    43    1
    45    45     3    1
    46    46    45    1
    47    47    46   ar
    48    48    47    1
    49    49    47   ar
    50    50    49    1
    51    51    49   ar
    52    52    51    1
    53    53    51   ar
    54    54    53    1
    55    55    46   ar
    56    56    55    1
    57    15    17   ar
    58    17    18    1
    59    21    24    1
    60    29    31   ar
    61    33    36    1
    62    41    43   ar
    63    53    55   ar
    64    57    58    1
    65    58    59   ar
    66    59    60    1
    67    61    59   ar
    68    62    61    1
    69    63    61   ar
    70    64    63    1
    71    65    63   ar
    72    66    65    1
    73    67    58   ar
    74    68    67    1
    75    69    57    1
    76    70    69   ar
    77    71    70    1
    78    72    70   ar
    79    73    72    1
    80    74    72   ar
    81    75    74    1
    82    76    74   ar
    83    77    76    1
    84    78    69   ar
    85    79    78    1
    86    80    57    1
    87    81    80   ar
    88    82    81    1
    89    83    81   ar
    90    84    83    1
    91    85    83   ar
    92    86    85    1
    93    87    85   ar
    94    88    87    1
    95    89    80   ar
    96    90    89    1
    97    91    57    1
    98    92    91   ar
    99    93    92    1
   100    94    92   ar
   101    95    94    1
   102    96    94   ar
   103    97    96    1
   104    98    96   ar
   105    99    98    1
   106   100    91   ar
   107   101   100    1
   108    65    67   ar
   109    76    78   ar
   110    87    89   ar
   111    98   100   ar
@<TRIPOS>SUBSTRUCTURE
     1 RES1        1 GROUP             0 ****  ****    0  
     2 RES2       57 GROUP             0 ****  ****    0  
     3 RES3      102 GROUP             0 ****  ****    0  
@<TRIPOS>CRYSIN
   13.0520   11.5800   27.7140   90.0000   98.5400   90.0000   231     1
