@<TRIPOS>MOLECULE
TOPKUF
   119   125     6     0     0
SMALL
USER_CHARGES
****
Generated from the CSD

@<TRIPOS>ATOM
     1 Fe1      6.6751   2.0179  15.0145   Fe        1 RES1   2.0000
     2 N1       5.3481   3.1793  14.1262   N.ar      1 RES1   0.0000
     3 N2       5.9721   2.8879  16.5308   N.ar      1 RES1   0.0000
     4 N3       7.8017   1.1778  16.4109   N.ar      1 RES1   0.0000
     5 N4       8.0830   3.2965  14.5018   N.ar      1 RES1   0.0000
     6 N5       7.3710   1.1270  13.5113   N.ar      1 RES1   0.0000
     7 N6       5.4829   0.4388  15.0117   N.ar      1 RES1   0.0000
     8 N7       4.3019   4.5695  19.8998   N.pl3     1 RES1   0.0000
     9 N8       3.2755   5.4569  19.8499   N.2       1 RES1   0.0000
    10 N9      -0.4137   8.6065  21.3156   N.ar      1 RES1   0.0000
    11 N10      8.9111  -0.9585  10.3024   N.pl3     1 RES1   0.0000
    12 N11      9.9445  -0.5142   9.5421   N.2       1 RES1   0.0000
    13 N12     13.4767  -0.3536   5.9094   N.ar      1 RES1   0.0000
    14 C1       5.1692   3.3297  12.8071   C.ar      1 RES1   0.0000
    15 C2       4.2737   4.2419  12.2785   C.ar      1 RES1   0.0000
    16 C3       3.5336   5.0270  13.1336   C.ar      1 RES1   0.0000
    17 C4       3.7002   4.8809  14.4986   C.ar      1 RES1   0.0000
    18 C5       4.6250   3.9643  14.9737   C.ar      1 RES1   0.0000
    19 C6       4.9655   3.7774  16.3938   C.ar      1 RES1   0.0000
    20 C7       4.3805   4.3883  17.4826   C.ar      1 RES1   0.0000
    21 C8       4.8618   4.0670  18.7566   C.ar      1 RES1   0.0000
    22 C9       5.9259   3.1616  18.8892   C.ar      1 RES1   0.0000
    23 C10      6.4540   2.5934  17.7561   C.ar      1 RES1   0.0000
    24 C11      7.5485   1.6023  17.6814   C.ar      1 RES1   0.0000
    25 C12      8.2492   1.1226  18.7691   C.ar      1 RES1   0.0000
    26 C13      9.2445   0.1785  18.5764   C.ar      1 RES1   0.0000
    27 C14      9.4943  -0.2707  17.2929   C.ar      1 RES1   0.0000
    28 C15      8.7591   0.2456  16.2450   C.ar      1 RES1   0.0000
    29 C16      8.3288   4.4834  15.0803   C.ar      1 RES1   0.0000
    30 C17      9.3473   5.3143  14.6552   C.ar      1 RES1   0.0000
    31 C18     10.1321   4.9225  13.5920   C.ar      1 RES1   0.0000
    32 C19      9.8714   3.7221  12.9582   C.ar      1 RES1   0.0000
    33 C20      8.8362   2.9265  13.4220   C.ar      1 RES1   0.0000
    34 C21      8.4129   1.6487  12.8252   C.ar      1 RES1   0.0000
    35 C22      8.9624   1.0107  11.7273   C.ar      1 RES1   0.0000
    36 C23      8.4181  -0.2153  11.3384   C.ar      1 RES1   0.0000
    37 C24      7.3264  -0.7508  12.0500   C.ar      1 RES1   0.0000
    38 C25      6.8333  -0.0489  13.1266   C.ar      1 RES1   0.0000
    39 C26      5.7230  -0.4500  14.0073   C.ar      1 RES1   0.0000
    40 C27      4.9879  -1.6255  13.8705   C.ar      1 RES1   0.0000
    41 C28      3.9907  -1.9071  14.7858   C.ar      1 RES1   0.0000
    42 C29      3.7468  -1.0090  15.8081   C.ar      1 RES1   0.0000
    43 C30      4.5092   0.1421  15.8912   C.ar      1 RES1   0.0000
    44 C31      2.7454   5.7541  20.9763   C.2       1 RES1   0.0000
    45 C32      1.6450   6.7173  21.0570   C.ar      1 RES1   0.0000
    46 C33      1.1776   7.1170  22.3054   C.ar      1 RES1   0.0000
    47 C34      0.1741   8.0558  22.3752   C.ar      1 RES1   0.0000
    48 C35      0.0241   8.1954  20.1105   C.ar      1 RES1   0.0000
    49 C36      1.0454   7.2778  19.9365   C.ar      1 RES1   0.0000
    50 C37     10.3919  -1.3495   8.6887   C.2       1 RES1   0.0000
    51 C38     11.4685  -0.9908   7.7628   C.ar      1 RES1   0.0000
    52 C39     12.1047   0.2324   7.7912   C.ar      1 RES1   0.0000
    53 C40     13.0867   0.5052   6.8551   C.ar      1 RES1   0.0000
    54 C41     12.8519  -1.5328   5.8993   C.ar      1 RES1   0.0000
    55 C42     11.8609  -1.9067   6.7863   C.ar      1 RES1   0.0000
    56 H1       4.6165   4.3208  20.6806   H         1 RES1   0.0000
    57 H2       8.5681  -1.7502  10.1421   H         1 RES1   0.0000
    58 H3       5.6738   2.7898  12.2193   H         1 RES1   0.0000
    59 H4       4.1729   4.3139  11.3452   H         1 RES1   0.0000
    60 H5       2.9203   5.6568  12.8040   H         1 RES1   0.0000
    61 H6       3.2032   5.4114  15.0972   H         1 RES1   0.0000
    62 H7       3.6854   5.0035  17.3825   H         1 RES1   0.0000
    63 H8       6.2723   2.9548  19.7272   H         1 RES1   0.0000
    64 H9       8.0540   1.4315  19.6420   H         1 RES1   0.0000
    65 H10      9.7361  -0.1559  19.3011   H         1 RES1   0.0000
    66 H11     10.1605  -0.9068  17.1307   H         1 RES1   0.0000
    67 H12      8.9212  -0.0618  15.3687   H         1 RES1   0.0000
    68 H13      7.7810   4.7520  15.8048   H         1 RES1   0.0000
    69 H14      9.4978   6.1380  15.0853   H         1 RES1   0.0000
    70 H15     10.8440   5.4714  13.2955   H         1 RES1   0.0000
    71 H16     10.3835   3.4504  12.2212   H         1 RES1   0.0000
    72 H17      9.6749   1.3965  11.2600   H         1 RES1   0.0000
    73 H18      6.9355  -1.5683  11.7931   H         1 RES1   0.0000
    74 H19      5.1653  -2.2147  13.1607   H         1 RES1   0.0000
    75 H20      3.4792  -2.6967  14.7166   H         1 RES1   0.0000
    76 H21      3.0648  -1.1836  16.4370   H         1 RES1   0.0000
    77 H22      4.3474   0.7645  16.5916   H         1 RES1   0.0000
    78 H23      3.0660   5.3584  21.7846   H         1 RES1   0.0000
    79 H24      1.5429   6.7500  23.0947   H         1 RES1   0.0000
    80 H25     -0.1430   8.3361  23.2215   H         1 RES1   0.0000
    81 H26     -0.3874   8.5593  19.3328   H         1 RES1   0.0000
    82 H27      1.3335   7.0336  19.0731   H         1 RES1   0.0000
    83 H28     10.0270  -2.2259   8.6476   H         1 RES1   0.0000
    84 H29     11.8723   0.8618   8.4355   H         1 RES1   0.0000
    85 H30     13.5127   1.3471   6.8856   H         1 RES1   0.0000
    86 H31     13.1211  -2.1500   5.2405   H         1 RES1   0.0000
    87 H32     11.4501  -2.7651   6.7369   H         1 RES1   0.0000
    88 N13     12.0199   3.0343  10.2214   N.1       2 RES2   0.0000
    89 C43     11.8311   3.6531   9.3057   C.1       2 RES2   0.0000
    90 C44     11.5521   4.4318   8.1006   C.3       2 RES2   0.0000
    91 H33     12.1985   5.1500   8.0609   H         2 RES2   0.0000
    92 H34     10.6590   4.7787   8.1937   H         2 RES2   0.0000
    93 H35     11.6209   3.8625   7.3296   H         2 RES2   0.0000
    94 N14      7.1540   4.3399   3.4884   N.1       3 RES3   0.0000
    95 C45      6.6781   3.3757   3.8769   C.1       3 RES3   0.0000
    96 C46      6.0205   2.2007   4.4398   C.3       3 RES3   0.0000
    97 H36      6.3556   1.4456   3.9304   H         3 RES3   0.0000
    98 H37      6.2536   2.0956   5.3812   H         3 RES3   0.0000
    99 H38      5.0585   2.2723   4.3308   H         3 RES3   0.0000
   100 N15      6.3097  -1.6401  18.0524   N.1       4 RES4   0.0000
   101 C47      5.6371  -1.1873  18.8432   C.1       4 RES4   0.0000
   102 C48      4.5560  -0.7928  19.7530   C.3       4 RES4   0.0000
   103 H39      4.8539  -0.1375  20.4031   H         4 RES4   0.0000
   104 H40      4.2316  -1.5819  20.2128   H         4 RES4   0.0000
   105 H41      3.8418  -0.4130  19.2158   H         4 RES4   0.0000
   106 P1       6.4768   7.9651  16.6673   P.3       5 RES5  -1.0000
   107 F1       6.8131   6.4810  17.2293   F         5 RES5   0.0000
   108 F2       6.1814   9.4248  16.1368   F         5 RES5   0.0000
   109 F3       7.4887   8.5223  17.7533   F         5 RES5   0.0000
   110 F4       5.4748   7.3400  15.6272   F         5 RES5   0.0000
   111 F5       5.2989   8.0804  17.7212   F         5 RES5   0.0000
   112 F6       7.6400   7.8071  15.6155   F         5 RES5   0.0000
   113 P2       7.1159   3.5156   9.1402   P.3       6 RES6  -1.0000
   114 F7       5.9746   4.5956   9.3972   F         6 RES6   0.0000
   115 F8       8.1954   2.3830   8.8779   F         6 RES6   0.0000
   116 F9       6.2150   2.4033   9.8624   F         6 RES6   0.0000
   117 F10      7.9731   4.6116   8.4792   F         6 RES6   0.0000
   118 F11      7.7204   3.8361  10.5575   F         6 RES6   0.0000
   119 F12      6.4602   3.1393   7.7553   F         6 RES6   0.0000
@<TRIPOS>BOND
     1     1     2    1
     2     2    14   ar
     3     3     1    1
     4     4     1    1
     5     5     1    1
     6     6     1    1
     7     7     1    1
     8     8     9    1
     9     9    44    2
    10    10    47   ar
    11    11    12    1
    12    12    50    2
    13    13    53   ar
    14    14    15   ar
    15    15    16   ar
    16    16    17   ar
    17    17    18   ar
    18    18     2   ar
    19    19     3   ar
    20    20    19   ar
    21    21     8    1
    22    22    21   ar
    23    23     3   ar
    24    24     4   ar
    25    25    24   ar
    26    26    25   ar
    27    27    26   ar
    28    28     4   ar
    29    29     5   ar
    30    30    29   ar
    31    31    30   ar
    32    32    31   ar
    33    33     5   ar
    34    34     6   ar
    35    35    34   ar
    36    36    11    1
    37    37    36   ar
    38    38     6   ar
    39    39     7   ar
    40    40    39   ar
    41    41    40   ar
    42    42    41   ar
    43    43     7   ar
    44    44    45    1
    45    45    46   ar
    46    46    47   ar
    47    47    80    1
    48    48    10   ar
    49    49    45   ar
    50    50    51    1
    51    51    52   ar
    52    52    53   ar
    53    53    85    1
    54    54    13   ar
    55    55    51   ar
    56    56     8    1
    57    57    11    1
    58    58    14    1
    59    59    15    1
    60    60    16    1
    61    61    17    1
    62    62    20    1
    63    63    22    1
    64    64    25    1
    65    65    26    1
    66    66    27    1
    67    67    28    1
    68    68    29    1
    69    69    30    1
    70    70    31    1
    71    71    32    1
    72    72    35    1
    73    73    37    1
    74    74    40    1
    75    75    41    1
    76    76    42    1
    77    77    43    1
    78    78    44    1
    79    79    46    1
    80    81    48    1
    81    82    49    1
    82    83    50    1
    83    84    52    1
    84    86    54    1
    85    87    55    1
    86    18    19    1
    87    20    21   ar
    88    22    23   ar
    89    23    24    1
    90    27    28   ar
    91    32    33   ar
    92    33    34    1
    93    35    36   ar
    94    37    38   ar
    95    38    39    1
    96    42    43   ar
    97    48    49   ar
    98    54    55   ar
    99    88    89    3
   100    89    90    1
   101    90    91    1
   102    92    90    1
   103    93    90    1
   104    94    95    3
   105    95    96    1
   106    96    97    1
   107    98    96    1
   108    99    96    1
   109   100   101    3
   110   101   102    1
   111   102   103    1
   112   104   102    1
   113   105   102    1
   114   106   107    1
   115   108   106    1
   116   109   106    1
   117   110   106    1
   118   111   106    1
   119   112   106    1
   120   113   114    1
   121   115   113    1
   122   116   113    1
   123   117   113    1
   124   118   113    1
   125   119   113    1
@<TRIPOS>SUBSTRUCTURE
     1 RES1        1 GROUP             0 ****  ****    0  
     2 RES2       88 GROUP             0 ****  ****    0  
     3 RES3       94 GROUP             0 ****  ****    0  
     4 RES4      100 GROUP             0 ****  ****    0  
     5 RES5      106 GROUP             0 ****  ****    0  
     6 RES6      113 GROUP             0 ****  ****    0  
@<TRIPOS>CRYSIN
   10.2902   13.5226   20.1859   89.1662   79.5970   67.9900     2     1
