@<TRIPOS>MOLECULE
TOQPIA
   103   108     1     0     0
SMALL
NO_CHARGES
****
Generated from the CSD

@<TRIPOS>ATOM
     1 C1      -0.4429   8.6642   5.6927   C.2       1 RES1   0.0000
     2 C2      -1.2247   7.6569   5.0565   C.2       1 RES1   0.0000
     3 C3      -0.8960   6.2769   5.1430   C.2       1 RES1   0.0000
     4 H1      -1.4693   5.6739   4.6846   H         1 RES1   0.0000
     5 C4       0.3283   4.3306   5.8162   C.ar      1 RES1   0.0000
     6 C5      -0.4307   3.3782   5.1948   C.ar      1 RES1   0.0000
     7 H2      -1.2009   3.6382   4.7032   H         1 RES1   0.0000
     8 C6      -0.0910   2.0423   5.2727   C.ar      1 RES1   0.0000
     9 H3      -0.6569   1.3904   4.8749   H         1 RES1   0.0000
    10 C7       1.0658   1.6363   5.9250   C.ar      1 RES1   0.0000
    11 H4       1.3295   0.7238   5.9200   H         1 RES1   0.0000
    12 C8       1.8216   2.5796   6.5773   C.ar      1 RES1   0.0000
    13 H5       2.5908   2.3027   7.0603   H         1 RES1   0.0000
    14 C9       1.4877   3.9281   6.5513   C.ar      1 RES1   0.0000
    15 C10      3.1786   4.7468   7.9831   C.2       1 RES1   0.0000
    16 H6       3.4895   3.8496   8.0301   H         1 RES1   0.0000
    17 C11      3.8685   5.7044   8.7565   C.2       1 RES1   0.0000
    18 C12      3.6073   7.0824   8.6490   C.2       1 RES1   0.0000
    19 C13     -0.7899  10.1266   5.6532   C.3       1 RES1   0.0000
    20 H7      -0.0057  10.6546   5.9126   H         1 RES1   0.0000
    21 H8      -1.5257  10.3055   6.2758   H         1 RES1   0.0000
    22 H9      -1.0632  10.3732   4.7439   H         1 RES1   0.0000
    23 C14     -2.4470   8.0271   4.3288   C.2       1 RES1   0.0000
    24 C15     -3.2114   6.9483   3.5962   C.3       1 RES1   0.0000
    25 H10     -3.9667   7.3490   3.1194   H         1 RES1   0.0000
    26 H11     -3.5438   6.2883   4.2411   H         1 RES1   0.0000
    27 H12     -2.6173   6.5067   2.9538   H         1 RES1   0.0000
    28 C16      4.3923   8.1035   9.4026   C.3       1 RES1   0.0000
    29 H13      4.2042   8.9940   9.0394   H         1 RES1   0.0000
    30 H14      5.3493   7.9094   9.3149   H         1 RES1   0.0000
    31 H15      4.1379   8.0774  10.3489   H         1 RES1   0.0000
    32 C17      4.8447   5.1682   9.7275   C.2       1 RES1   0.0000
    33 C18      5.2968   3.7455   9.6274   C.3       1 RES1   0.0000
    34 H16      6.0082   3.5816  10.2810   H         1 RES1   0.0000
    35 H17      5.6366   3.5732   8.7244   H         1 RES1   0.0000
    36 H18      4.5415   3.1484   9.8115   H         1 RES1   0.0000
    37 C19     -1.0925   6.8942   8.4748   C.2       1 RES1   0.0000
    38 H19     -1.6157   7.1079   7.7113   H         1 RES1   0.0000
    39 C20      0.5407   6.3626   9.7362   C.2       1 RES1   0.0000
    40 H20      1.4111   6.1227  10.0327   H         1 RES1   0.0000
    41 C21     -0.5320   6.4795  10.5404   C.2       1 RES1   0.0000
    42 H21     -0.5539   6.3539  11.4818   H         1 RES1   0.0000
    43 C22     -2.9715   7.0861  10.1500   C.3       1 RES1   0.0000
    44 H22     -3.3686   6.2497  10.5021   H         1 RES1   0.0000
    45 H23     -3.5044   7.3663   9.3631   H         1 RES1   0.0000
    46 C23     -3.0593   8.1523  11.2051   C.3       1 RES1   0.0000
    47 H24     -2.5535   8.9474  10.9036   H         1 RES1   0.0000
    48 H25     -2.6338   7.8194  12.0352   H         1 RES1   0.0000
    49 C24     -4.4917   8.5610  11.5114   C.3       1 RES1   0.0000
    50 H26     -4.8503   9.0641  10.7368   H         1 RES1   0.0000
    51 H27     -5.0393   7.7444  11.6164   H         1 RES1   0.0000
    52 C25     -4.6469   9.4166  12.7592   C.3       1 RES1   0.0000
    53 H28     -5.6064   9.6357  12.8691   H         1 RES1   0.0000
    54 H29     -4.3748   8.8769  13.5424   H         1 RES1   0.0000
    55 C26     -3.8616  10.7025  12.7715   C.3       1 RES1   0.0000
    56 H30     -2.8983  10.4880  12.6925   H         1 RES1   0.0000
    57 H31     -4.1152  11.2385  11.9784   H         1 RES1   0.0000
    58 C27     -4.0695  11.5363  14.0008   C.3       1 RES1   0.0000
    59 H32     -3.8047  11.0059  14.7926   H         1 RES1   0.0000
    60 H33     -5.0351  11.7415  14.0860   H         1 RES1   0.0000
    61 C28     -3.2870  12.8446  14.0032   C.3       1 RES1   0.0000
    62 H34     -2.3263  12.6504  14.0057   H         1 RES1   0.0000
    63 H35     -3.5191  13.3629  14.8013   H         1 RES1   0.0000
    64 H36     -3.5136  13.3612  13.2015   H         1 RES1   0.0000
    65 C29      3.3036   7.9124   4.8761   C.2       1 RES1   0.0000
    66 H37      3.1614   8.7776   5.2406   H         1 RES1   0.0000
    67 C30      3.1641   5.8314   4.4660   C.2       1 RES1   0.0000
    68 H38      2.8851   4.9242   4.4981   H         1 RES1   0.0000
    69 C31      4.1243   6.3118   3.6395   C.2       1 RES1   0.0000
    70 H39      4.6320   5.8199   3.0057   H         1 RES1   0.0000
    71 C32      5.1575   8.5992   3.3084   C.3       1 RES1   0.0000
    72 H40      6.0490   8.4669   3.7185   H         1 RES1   0.0000
    73 H41      4.8597   9.5177   3.5234   H         1 RES1   0.0000
    74 C33      5.2806   8.4611   1.8123   C.3       1 RES1   0.0000
    75 H42      5.5332   7.5294   1.5912   H         1 RES1   0.0000
    76 H43      6.0021   9.0562   1.4899   H         1 RES1   0.0000
    77 C34      3.9695   8.8163   1.0921   C.3       1 RES1   0.0000
    78 H44      3.2335   8.2888   1.4911   H         1 RES1   0.0000
    79 H45      3.7714   9.7744   1.2453   H         1 RES1   0.0000
    80 C35      4.0014   8.5613  -0.3817   C.3       1 RES1   0.0000
    81 H46      4.2046   7.6063  -0.5485   H         1 RES1   0.0000
    82 H47      4.7180   9.1056  -0.7968   H         1 RES1   0.0000
    83 C36      2.6271   8.9263  -1.0291   C.3       1 RES1   0.0000
    84 H48      1.9215   8.3552  -0.6350   H         1 RES1   0.0000
    85 H49      2.4088   9.8685  -0.8191   H         1 RES1   0.0000
    86 C37      2.6315   8.7493  -2.4745   C.3       1 RES1   0.0000
    87 H50      2.8445   7.8052  -2.6858   H         1 RES1   0.0000
    88 H51      3.3406   9.3160  -2.8698   H         1 RES1   0.0000
    89 C38      1.2816   9.1156  -3.1046   C.3       1 RES1   0.0000
    90 H52      0.5699   8.5951  -2.6771   H         1 RES1   0.0000
    91 H53      1.3028   8.9138  -4.0632   H         1 RES1   0.0000
    92 H54      1.1099  10.0723  -2.9761   H         1 RES1   0.0000
    93 N1       0.1362   5.7384   5.8039   N.2       1 RES1   0.0000
    94 N2       2.1361   4.9822   7.1962   N.2       1 RES1   0.0000
    95 N3       0.2084   6.6381   8.4242   N.2       1 RES1   0.0000
    96 N4      -1.5953   6.8193   9.7238   N.pl3     1 RES1   0.0000
    97 N5       2.6473   6.8371   5.2529   N.2       1 RES1   0.0000
    98 N6       4.2110   7.6383   3.9026   N.pl3     1 RES1   0.0000
    99 O1       0.6237   8.4050   6.3351   O.2       1 RES1   0.0000
   100 O2       2.7219   7.5955   7.8868   O.2       1 RES1   0.0000
   101 O3      -2.9086   9.1807   4.2695   O.2       1 RES1   0.0000
   102 O4       5.3063   5.8564  10.6294   O.2       1 RES1   0.0000
   103 Fe1      1.4010   6.6822   6.8068   Fe        1 RES1   0.0000
@<TRIPOS>BOND
     1     1     2    1
     2     2     3    2
     3     3     4    1
     4     5     6   ar
     5     6     7    1
     6     8     6   ar
     7     9     8    1
     8    10     8   ar
     9    11    10    1
    10    12    10   ar
    11    13    12    1
    12    14     5   ar
    13    15    16    1
    14    17    15    2
    15    18    17    1
    16    19     1    1
    17    20    19    1
    18    21    19    1
    19    22    19    1
    20    23     2    1
    21    24    23    1
    22    25    24    1
    23    26    24    1
    24    27    24    1
    25    28    18    1
    26    29    28    1
    27    30    28    1
    28    31    28    1
    29    32    17    1
    30    33    32    1
    31    34    33    1
    32    35    33    1
    33    36    33    1
    34    37    38    1
    35    39    40    1
    36    41    39    2
    37    42    41    1
    38    43    44    1
    39    45    43    1
    40    46    43    1
    41    47    46    1
    42    48    46    1
    43    49    46    1
    44    50    49    1
    45    51    49    1
    46    52    49    1
    47    53    52    1
    48    54    52    1
    49    55    52    1
    50    56    55    1
    51    57    55    1
    52    58    55    1
    53    59    58    1
    54    60    58    1
    55    61    58    1
    56    62    61    1
    57    63    61    1
    58    64    61    1
    59    65    66    1
    60    67    68    1
    61    69    67    2
    62    70    69    1
    63    71    72    1
    64    73    71    1
    65    74    71    1
    66    75    74    1
    67    76    74    1
    68    77    74    1
    69    78    77    1
    70    79    77    1
    71    80    77    1
    72    81    80    1
    73    82    80    1
    74    83    80    1
    75    84    83    1
    76    85    83    1
    77    86    83    1
    78    87    86    1
    79    88    86    1
    80    89    86    1
    81    90    89    1
    82    91    89    1
    83    92    89    1
    84    93     3    1
    85    94    14    1
    86    95    37    2
    87    96    37    1
    88    97    65    2
    89    98    65    1
    90    99     1    2
    91   100    18    2
    92   101    23    2
    93   102    32    2
    94   103    93    1
    95     5    93    1
    96    12    14   ar
    97    15    94    1
    98    39    95    1
    99    41    96    1
   100    43    96    1
   101    67    97    1
   102    69    98    1
   103    71    98    1
   104    94   103    1
   105    95   103    1
   106    97   103    1
   107    99   103    1
   108   100   103    1
@<TRIPOS>SUBSTRUCTURE
     1 RES1        1 GROUP             0 ****  ****    0  
@<TRIPOS>CRYSIN
   11.9500   12.6370   13.9270  114.3680   97.6360   99.9300     2     1
