@<TRIPOS>MOLECULE
TORMIY
   119   124     4     0     0
SMALL
USER_CHARGES
****
Generated from the CSD

@<TRIPOS>ATOM
     1 Fe1     15.9375   7.2227   1.4921   Fe        1 RES1   2.0000
     2 C1      17.9490   9.3841   1.9486   C.ar      1 RES1   0.0000
     3 H1      17.3634   9.9628   1.5181   H         1 RES1   0.0000
     4 C2      19.1778   9.8791   2.3896   C.ar      1 RES1   0.0000
     5 H2      19.4026  10.7697   2.2554   H         1 RES1   0.0000
     6 C3      20.0528   9.0198   3.0293   C.ar      1 RES1   0.0000
     7 H3      20.8824   9.3214   3.3221   H         1 RES1   0.0000
     8 C4      19.6780   7.7318   3.2175   C.ar      1 RES1   0.0000
     9 H4      20.2462   7.1374   3.6515   H         1 RES1   0.0000
    10 C5      18.4335   7.3013   2.7608   C.ar      1 RES1   0.0000
    11 C6      17.9333   5.9592   2.9630   C.2       1 RES1   0.0000
    12 H5      18.4353   5.3160   3.4057   H         1 RES1   0.0000
    13 C7      16.9503   3.5347   3.8084   C.3       1 RES1   0.0000
    14 H6      17.0810   4.0785   4.5892   H         1 RES1   0.0000
    15 H7      17.8026   3.2576   3.4633   H         1 RES1   0.0000
    16 H8      16.4326   2.7608   4.0402   H         1 RES1   0.0000
    17 C8      16.2095   4.3452   2.7434   C.3       1 RES1   0.0000
    18 H9      15.2858   4.4550   3.0537   H         1 RES1   0.0000
    19 C9      16.1572   3.5260   1.4536   C.ar      1 RES1   0.0000
    20 C10     15.0051   2.8288   1.1416   C.ar      1 RES1   0.0000
    21 H10     14.2626   2.9073   1.6959   H         1 RES1   0.0000
    22 C11     14.9389   2.0218   0.0296   C.ar      1 RES1   0.0000
    23 H11     14.1459   1.5861  -0.1882   H         1 RES1   0.0000
    24 C12     17.2692   3.3465   0.6641   C.ar      1 RES1   0.0000
    25 H12     18.0571   3.7944   0.8750   H         1 RES1   0.0000
    26 C13     17.2396   2.5151  -0.4375   C.ar      1 RES1   0.0000
    27 H13     18.0013   2.3931  -0.9569   H         1 RES1   0.0000
    28 C14     16.0614   1.8632  -0.7617   C.ar      1 RES1   0.0000
    29 C15     14.9041   0.4636  -2.3007   C.3       1 RES1   0.0000
    30 H14     14.3759   1.0981  -2.7922   H         1 RES1   0.0000
    31 H15     14.4108   0.1656  -1.5321   H         1 RES1   0.0000
    32 H16     15.1062  -0.2876  -2.8619   H         1 RES1   0.0000
    33 N1      16.7533   5.6960   2.4959   N.2       1 RES1   0.0000
    34 N2      17.5880   8.1239   2.1215   N.ar      1 RES1   0.0000
    35 O1      16.1032   1.0754  -1.8807   O.3       1 RES1   0.0000
    36 C1G     15.4810   9.2342  -0.6693   C.ar      1 RES1   0.0000
    37 H1G     15.9115   8.6486  -1.2480   H         1 RES1   0.0000
    38 C2G     15.0400  10.4630  -1.1643   C.ar      1 RES1   0.0000
    39 H2G     15.1742  10.6878  -2.0549   H         1 RES1   0.0000
    40 C3G     14.4003  11.3380  -0.3050   C.ar      1 RES1   0.0000
    41 H3G     14.1075  12.1676  -0.6066   H         1 RES1   0.0000
    42 C4G     14.2121  10.9632   0.9830   C.ar      1 RES1   0.0000
    43 H4G     13.7781  11.5314   1.5774   H         1 RES1   0.0000
    44 C5G     14.6688   9.7187   1.4135   C.ar      1 RES1   0.0000
    45 C6G     14.4666   9.2185   2.7556   C.2       1 RES1   0.0000
    46 H5G     14.0239   9.7205   3.3988   H         1 RES1   0.0000
    47 C7G     13.6212   8.2355   5.1801   C.3       1 RES1   0.0000
    48 H6G     12.8404   8.3662   4.6363   H         1 RES1   0.0000
    49 H7G     13.9663   9.0878   5.4572   H         1 RES1   0.0000
    50 H8G     13.3894   7.7178   5.9540   H         1 RES1   0.0000
    51 C8G     14.6862   7.4947   4.3696   C.3       1 RES1   0.0000
    52 H9G     14.3759   6.5710   4.2598   H         1 RES1   0.0000
    53 C9G     15.9760   7.4424   5.1888   C.ar      1 RES1   0.0000
    54 C10G    16.2880   6.2903   5.8860   C.ar      1 RES1   0.0000
    55 H10G    15.7337   5.5478   5.8075   H         1 RES1   0.0000
    56 C11G    17.4000   6.2241   6.6930   C.ar      1 RES1   0.0000
    57 H11G    17.6178   5.4311   7.1287   H         1 RES1   0.0000
    58 C12G    16.7655   8.5544   5.3683   C.ar      1 RES1   0.0000
    59 H12G    16.5546   9.3423   4.9204   H         1 RES1   0.0000
    60 C13G    17.8671   8.5248   6.1997   C.ar      1 RES1   0.0000
    61 H13G    18.3865   9.2865   6.3217   H         1 RES1   0.0000
    62 C14G    18.1913   7.3466   6.8516   C.ar      1 RES1   0.0000
    63 C15G    19.7303   6.1893   8.2512   C.3       1 RES1   0.0000
    64 H14G    20.2218   5.6611   7.6167   H         1 RES1   0.0000
    65 H15G    18.9617   5.6960   8.5492   H         1 RES1   0.0000
    66 H16G    20.2915   6.3914   9.0024   H         1 RES1   0.0000
    67 N1G     14.9337   8.0385   3.0188   N.2       1 RES1   0.0000
    68 N2G     15.3081   8.8732   0.5909   N.ar      1 RES1   0.0000
    69 O1G     19.3103   7.3884   7.6394   O.3       1 RES1   0.0000
    70 C1J     18.0989   6.7662  -0.5194   C.ar      1 RES1   0.0000
    71 H1J     18.6776   7.1967   0.0662   H         1 RES1   0.0000
    72 C2J     18.5939   6.3252  -1.7482   C.ar      1 RES1   0.0000
    73 H2J     19.4845   6.4594  -1.9730   H         1 RES1   0.0000
    74 C3J     17.7346   5.6855  -2.6232   C.ar      1 RES1   0.0000
    75 H3J     18.0362   5.3927  -3.4528   H         1 RES1   0.0000
    76 C4J     16.4466   5.4973  -2.2484   C.ar      1 RES1   0.0000
    77 H4J     15.8522   5.0633  -2.8166   H         1 RES1   0.0000
    78 C5J     16.0161   5.9540  -1.0039   C.ar      1 RES1   0.0000
    79 C6J     14.6740   5.7518  -0.5037   C.2       1 RES1   0.0000
    80 H5J     14.0308   5.3091  -1.0057   H         1 RES1   0.0000
    81 C7J     12.2495   4.9064   0.4793   C.3       1 RES1   0.0000
    82 H6J     12.7933   4.1256   0.3486   H         1 RES1   0.0000
    83 H7J     11.9724   5.2515  -0.3730   H         1 RES1   0.0000
    84 H8J     11.4756   4.6746   0.9970   H         1 RES1   0.0000
    85 C8J     13.0600   5.9714   1.2201   C.3       1 RES1   0.0000
    86 H9J     13.1698   5.6611   2.1438   H         1 RES1   0.0000
    87 C9J     12.2408   7.2612   1.2724   C.ar      1 RES1   0.0000
    88 C10J    11.5436   7.5732   2.4245   C.ar      1 RES1   0.0000
    89 H10J    11.6221   7.0189   3.1670   H         1 RES1   0.0000
    90 C11J    10.7366   8.6852   2.4907   C.ar      1 RES1   0.0000
    91 H11J    10.3009   8.9030   3.2837   H         1 RES1   0.0000
    92 C12J    12.0613   8.0507   0.1604   C.ar      1 RES1   0.0000
    93 H12J    12.5092   7.8398  -0.6275   H         1 RES1   0.0000
    94 C13J    11.2299   9.1523   0.1900   C.ar      1 RES1   0.0000
    95 H13J    11.1079   9.6717  -0.5717   H         1 RES1   0.0000
    96 C14J    10.5780   9.4765   1.3682   C.ar      1 RES1   0.0000
    97 C15J     9.1784  11.0155   2.5255   C.3       1 RES1   0.0000
    98 H14J     9.8129  11.5070   3.0537   H         1 RES1   0.0000
    99 H15J     8.8804  10.2469   3.0188   H         1 RES1   0.0000
   100 H16J     8.4272  11.5767   2.3234   H         1 RES1   0.0000
   101 N1J     14.4108   6.2189   0.6763   N.2       1 RES1   0.0000
   102 N2J     16.8387   6.5933  -0.1584   N.ar      1 RES1   0.0000
   103 O1J      9.7902  10.5955   1.3264   O.3       1 RES1   0.0000
   104 Cl1      3.6872   5.0276  12.4020   Cl        2 RES2   0.0000
   105 O2       3.6707   6.0272  13.2151   O.2       2 RES2   0.0000
   106 O3       4.4653   4.2495  13.1801   O.3       2 RES2  -1.0000
   107 O2E      4.5003   5.0441  11.4024   O.2       2 RES2   0.0000
   108 O2K      2.6876   4.2145  12.3855   O.2       2 RES2   0.0000
   109 Cl2     12.8650   4.5646  13.2794   Cl        3 RES3   0.0000
   110 O4      12.2495   5.1801  13.8949   O.2       3 RES3   0.0000
   111 O5      13.4260   3.7195  14.1476   O.2       3 RES3   0.0000
   112 O5F     11.9968   4.0036  12.4343   O.3       3 RES3  -1.0000
   113 O5I     13.7101   5.4328  12.7184   O.2       3 RES3   0.0000
   114 C16      0.4357  11.4722  13.3580   C.3       4 RES4   0.0000
   115 H17     -0.1621  11.6186  12.6225   H         4 RES4   0.0000
   116 H18      1.3386  11.6360  13.0757   H         4 RES4   0.0000
   117 H19      0.2126  12.0700  14.0761   H         4 RES4   0.0000
   118 C17      0.3172  10.1527  13.7990   C.1       4 RES4   0.0000
   119 N3       0.1621   9.1105  14.1162   N.1       4 RES4   0.0000
@<TRIPOS>BOND
     1     1    33    1
     2     2     3    1
     3     4     2   ar
     4     5     4    1
     5     6     4   ar
     6     7     6    1
     7     8     6   ar
     8     9     8    1
     9    10     8   ar
    10    11    10    1
    11    12    11    1
    12    13    14    1
    13    15    13    1
    14    16    13    1
    15    17    13    1
    16    18    17    1
    17    19    17    1
    18    20    19   ar
    19    21    20    1
    20    22    20   ar
    21    23    22    1
    22    24    19   ar
    23    25    24    1
    24    26    24   ar
    25    27    26    1
    26    28    22   ar
    27    29    30    1
    28    31    29    1
    29    32    29    1
    30    33    11    2
    31    34     1    1
    32    35    28    1
    33    36    37    1
    34    38    36   ar
    35    39    38    1
    36    40    38   ar
    37    41    40    1
    38    42    40   ar
    39    43    42    1
    40    44    42   ar
    41    45    44    1
    42    46    45    1
    43    47    48    1
    44    49    47    1
    45    50    47    1
    46    51    47    1
    47    52    51    1
    48    53    51    1
    49    54    53   ar
    50    55    54    1
    51    56    54   ar
    52    57    56    1
    53    58    53   ar
    54    59    58    1
    55    60    58   ar
    56    61    60    1
    57    62    56   ar
    58    63    64    1
    59    65    63    1
    60    66    63    1
    61    67     1    1
    62    68     1    1
    63    69    62    1
    64    70    71    1
    65    72    70   ar
    66    73    72    1
    67    74    72   ar
    68    75    74    1
    69    76    74   ar
    70    77    76    1
    71    78    76   ar
    72    79    78    1
    73    80    79    1
    74    81    82    1
    75    83    81    1
    76    84    81    1
    77    85    81    1
    78    86    85    1
    79    87    85    1
    80    88    87   ar
    81    89    88    1
    82    90    88   ar
    83    91    90    1
    84    92    87   ar
    85    93    92    1
    86    94    92   ar
    87    95    94    1
    88    96    90   ar
    89    97    98    1
    90    99    97    1
    91   100    97    1
    92   101     1    1
    93   102     1    1
    94   103    96    1
    95     2    34   ar
    96    10    34   ar
    97    17    33    1
    98    26    28   ar
    99    29    35    1
   100    36    68   ar
   101    44    68   ar
   102    45    67    2
   103    51    67    1
   104    60    62   ar
   105    63    69    1
   106    70   102   ar
   107    78   102   ar
   108    79   101    2
   109    85   101    1
   110    94    96   ar
   111    97   103    1
   112   104   105    2
   113   106   104    1
   114   107   104    2
   115   108   104    2
   116   109   110    2
   117   111   109    2
   118   112   109    1
   119   113   109    2
   120   114   115    1
   121   116   114    1
   122   117   114    1
   123   118   114    1
   124   119   118    3
@<TRIPOS>SUBSTRUCTURE
     1 RES1        1 GROUP             0 ****  ****    0  
     2 RES2      104 GROUP             0 ****  ****    0  
     3 RES3      109 GROUP             0 ****  ****    0  
     4 RES4      114 GROUP             0 ****  ****    0  
@<TRIPOS>CRYSIN
   17.4296   17.4296   17.4296   90.0000   90.0000   90.0000   198     1
