@<TRIPOS>MOLECULE
TOYREH01
   108   122     2     0     0
SMALL
USER_CHARGES
****
Generated from the CSD

@<TRIPOS>ATOM
     1 P1      16.2494  -5.4165   5.6642   P.3       1 RES1   1.0000
     2 C19     14.8407  -5.6394   4.5820   C.ar      1 RES1   0.0000
     3 C20     14.8563  -6.7236   3.6931   C.ar      1 RES1   0.0000
     4 H11     15.5750  -7.3454   3.7208   H         1 RES1   0.0000
     5 C21     13.8423  -6.8941   2.7808   C.ar      1 RES1   0.0000
     6 H12     13.8510  -7.6319   2.1834   H         1 RES1   0.0000
     7 C22     12.8089  -5.9711   2.7438   C.ar      1 RES1   0.0000
     8 H13     12.0974  -6.0931   2.1261   H         1 RES1   0.0000
     9 C23     12.7915  -4.8792   3.5873   C.ar      1 RES1   0.0000
    10 H14     12.0798  -4.2535   3.5434   H         1 RES1   0.0000
    11 C24     13.8280  -4.7015   4.5065   C.ar      1 RES1   0.0000
    12 H15     13.8370  -3.9404   5.0754   H         1 RES1   0.0000
    13 C19A    17.6581  -5.1935   4.5820   C.ar      1 RES1   0.0000
    14 C20A    17.6425  -4.1094   3.6931   C.ar      1 RES1   0.0000
    15 H11A    16.9238  -3.4876   3.7208   H         1 RES1   0.0000
    16 C21A    18.6565  -3.9389   2.7808   C.ar      1 RES1   0.0000
    17 H12A    18.6479  -3.2010   2.1834   H         1 RES1   0.0000
    18 C22A    19.6900  -4.8618   2.7438   C.ar      1 RES1   0.0000
    19 H13A    20.4015  -4.7399   2.1261   H         1 RES1   0.0000
    20 C23A    19.7073  -5.9538   3.5873   C.ar      1 RES1   0.0000
    21 H14A    20.4191  -6.5795   3.5434   H         1 RES1   0.0000
    22 C24A    18.6708  -6.1314   4.5065   C.ar      1 RES1   0.0000
    23 H15A    18.6618  -6.8925   5.0754   H         1 RES1   0.0000
    24 C19F    16.0265  -4.0078   6.7465   C.ar      1 RES1   0.0000
    25 C20F    14.9423  -4.0234   7.6354   C.ar      1 RES1   0.0000
    26 H11F    14.3205  -4.7421   7.6076   H         1 RES1   0.0000
    27 C21F    14.7718  -3.0094   8.5477   C.ar      1 RES1   0.0000
    28 H12F    14.0340  -3.0180   9.1451   H         1 RES1   0.0000
    29 C22F    15.6948  -1.9759   8.5847   C.ar      1 RES1   0.0000
    30 H13F    15.5728  -1.2644   9.2024   H         1 RES1   0.0000
    31 C23F    16.7867  -1.9586   7.7411   C.ar      1 RES1   0.0000
    32 H14F    17.4124  -1.2468   7.7851   H         1 RES1   0.0000
    33 C24F    16.9644  -2.9951   6.8220   C.ar      1 RES1   0.0000
    34 H15F    17.7255  -3.0041   6.2530   H         1 RES1   0.0000
    35 C19G    16.4724  -6.8252   6.7465   C.ar      1 RES1   0.0000
    36 C20G    17.5565  -6.8096   7.6354   C.ar      1 RES1   0.0000
    37 H11G    18.1783  -6.0909   7.6076   H         1 RES1   0.0000
    38 C21G    17.7270  -7.8236   8.5477   C.ar      1 RES1   0.0000
    39 H12G    18.4649  -7.8149   9.1451   H         1 RES1   0.0000
    40 C22G    16.8041  -8.8570   8.5847   C.ar      1 RES1   0.0000
    41 H13G    16.9260  -9.5685   9.2024   H         1 RES1   0.0000
    42 C23G    15.7121  -8.8744   7.7411   C.ar      1 RES1   0.0000
    43 H14G    15.0864  -9.5861   7.7851   H         1 RES1   0.0000
    44 C24G    15.5345  -7.8379   6.8220   C.ar      1 RES1   0.0000
    45 H15G    14.7734  -7.8289   6.2530   H         1 RES1   0.0000
    46 Fe1     10.8330   0.0000   3.7762   Fe        2 RES2   0.0000
    47 N1       9.6006  -0.9704   5.1341   N.2       2 RES2   0.0000
    48 N2      10.5948  -1.5812   2.4469   N.2       2 RES2   0.0000
    49 Cl1     12.7978  -1.1576   4.5993   Cl        2 RES2  -1.0000
    50 C1       9.1915  -0.4602   6.3432   C.2       2 RES2   0.0000
    51 C2       8.2768  -1.4020   6.9791   C.2       2 RES2   0.0000
    52 C3       7.6004  -1.3738   8.1867   C.2       2 RES2   0.0000
    53 H1       7.6769  -0.6338   8.7773   H         2 RES2   0.0000
    54 C4       6.8066  -2.4669   8.5009   C.2       2 RES2   0.0000
    55 H2       6.3325  -2.4726   9.3244   H         2 RES2   0.0000
    56 C5       6.6861  -3.5573   7.6414   C.2       2 RES2   0.0000
    57 H3       6.1426  -4.2946   7.8926   H         2 RES2   0.0000
    58 C6       7.3502  -3.5807   6.4225   C.2       2 RES2   0.0000
    59 H4       7.2539  -4.3144   5.8265   H         2 RES2   0.0000
    60 C7       8.1659  -2.4896   6.0977   C.2       2 RES2   0.0000
    61 C8       8.9996  -2.1848   4.9468   C.2       2 RES2   0.0000
    62 C9       9.1495  -2.9940   3.8320   C.2       2 RES2   0.0000
    63 H5       8.6890  -3.8247   3.8505   H         2 RES2   0.0000
    64 C10      9.8948  -2.7306   2.6924   C.2       2 RES2   0.0000
    65 C11     10.0926  -3.6524   1.5905   C.2       2 RES2   0.0000
    66 C12      9.6669  -4.9704   1.3715   C.2       2 RES2   0.0000
    67 H6       9.0982  -5.4144   1.9899   H         2 RES2   0.0000
    68 C13     10.1102  -5.6035   0.2130   C.2       2 RES2   0.0000
    69 H7       9.8508  -6.5022   0.0478   H         2 RES2   0.0000
    70 C14     10.9170  -4.9567  -0.7001   C.2       2 RES2   0.0000
    71 H8      11.1899  -5.4170  -1.4853   H         2 RES2   0.0000
    72 C15     11.3395  -3.6496  -0.5000   C.2       2 RES2   0.0000
    73 H9      11.8863  -3.2082  -1.1392   H         2 RES2   0.0000
    74 C16     10.9346  -3.0031   0.6722   C.2       2 RES2   0.0000
    75 C17     11.2444  -1.7064   1.2378   C.2       2 RES2   0.0000
    76 C18     12.0904  -0.7665   0.6774   C.2       2 RES2   0.0000
    77 H10     12.4531  -0.9855  -0.1729   H         2 RES2   0.0000
    78 N1D     12.0653   0.9704   2.4182   N.2       2 RES2   0.0000
    79 N2D     11.0711   1.5812   5.1054   N.2       2 RES2   0.0000
    80 C1D     12.4744   0.4602   1.2091   C.2       2 RES2   0.0000
    81 C2D     13.3891   1.4020   0.5732   C.2       2 RES2   0.0000
    82 C3D     14.0655   1.3738  -0.6344   C.2       2 RES2   0.0000
    83 H1D     13.9890   0.6338  -1.2250   H         2 RES2   0.0000
    84 C4D     14.8593   2.4669  -0.9486   C.2       2 RES2   0.0000
    85 H2D     15.3334   2.4726  -1.7721   H         2 RES2   0.0000
    86 C5D     14.9798   3.5573  -0.0891   C.2       2 RES2   0.0000
    87 H3D     15.5233   4.2946  -0.3403   H         2 RES2   0.0000
    88 C6D     14.3157   3.5807   1.1298   C.2       2 RES2   0.0000
    89 H4D     14.4120   4.3144   1.7258   H         2 RES2   0.0000
    90 C7D     13.5000   2.4896   1.4546   C.2       2 RES2   0.0000
    91 C8D     12.6663   2.1848   2.6055   C.2       2 RES2   0.0000
    92 C9D     12.5164   2.9940   3.7203   C.2       2 RES2   0.0000
    93 H5D     12.9769   3.8247   3.7018   H         2 RES2   0.0000
    94 C10D    11.7711   2.7306   4.8599   C.2       2 RES2   0.0000
    95 C11D    11.5733   3.6524   5.9618   C.2       2 RES2   0.0000
    96 C12D    11.9990   4.9704   6.1808   C.2       2 RES2   0.0000
    97 H6D     12.5677   5.4144   5.5624   H         2 RES2   0.0000
    98 C13D    11.5557   5.6035   7.3393   C.2       2 RES2   0.0000
    99 H7D     11.8151   6.5022   7.5045   H         2 RES2   0.0000
   100 C14D    10.7489   4.9567   8.2524   C.2       2 RES2   0.0000
   101 H8D     10.4760   5.4170   9.0376   H         2 RES2   0.0000
   102 C15D    10.3264   3.6496   8.0523   C.2       2 RES2   0.0000
   103 H9D      9.7796   3.2082   8.6915   H         2 RES2   0.0000
   104 C16D    10.7313   3.0031   6.8801   C.2       2 RES2   0.0000
   105 C17D    10.4215   1.7064   6.3145   C.2       2 RES2   0.0000
   106 C18D     9.5755   0.7665   6.8749   C.2       2 RES2   0.0000
   107 H10D     9.2128   0.9855   7.7252   H         2 RES2   0.0000
   108 Cl1D     8.8681   1.1576   2.9530   Cl        2 RES2   0.0000
@<TRIPOS>BOND
     1     1     2    1
     2     2     3   ar
     3     3     4    1
     4     5     3   ar
     5     6     5    1
     6     7     5   ar
     7     8     7    1
     8     9     7   ar
     9    10     9    1
    10    11     2   ar
    11    12    11    1
    12    13     1    1
    13    14    13   ar
    14    15    14    1
    15    16    14   ar
    16    17    16    1
    17    18    16   ar
    18    19    18    1
    19    20    18   ar
    20    21    20    1
    21    22    13   ar
    22    23    22    1
    23    24     1    1
    24    25    24   ar
    25    26    25    1
    26    27    25   ar
    27    28    27    1
    28    29    27   ar
    29    30    29    1
    30    31    29   ar
    31    32    31    1
    32    33    24   ar
    33    34    33    1
    34    35     1    1
    35    36    35   ar
    36    37    36    1
    37    38    36   ar
    38    39    38    1
    39    40    38   ar
    40    41    40    1
    41    42    40   ar
    42    43    42    1
    43    44    35   ar
    44    45    44    1
    45     9    11   ar
    46    20    22   ar
    47    31    33   ar
    48    42    44   ar
    49    46    47    1
    50    47    50    2
    51    48    46    1
    52    49    46    1
    53    50    51    1
    54    51    52    1
    55    52    53    1
    56    54    52    2
    57    55    54    1
    58    56    54    1
    59    57    56    1
    60    58    56    2
    61    59    58    1
    62    60    51    2
    63    61    47    1
    64    62    61    2
    65    63    62    1
    66    64    48    1
    67    65    64    2
    68    66    65    1
    69    67    66    1
    70    68    66    2
    71    69    68    1
    72    70    68    1
    73    71    70    1
    74    72    70    2
    75    73    72    1
    76    74    65    1
    77    75    48    1
    78    76    75    1
    79    77    76    1
    80    78    46    1
    81    79    46    1
    82    80    76    2
    83    81    80    1
    84    82    81    1
    85    83    82    1
    86    84    82    2
    87    85    84    1
    88    86    84    1
    89    87    86    1
    90    88    86    2
    91    89    88    1
    92    90    81    2
    93    91    78    2
    94    92    91    1
    95    93    92    1
    96    94    79    1
    97    95    94    1
    98    96    95    1
    99    97    96    1
   100    98    96    2
   101    99    98    1
   102   100    98    1
   103   101   100    1
   104   102   100    2
   105   103   102    1
   106   104    95    2
   107   105    79    1
   108   106    50    1
   109   107   106    1
   110   108    46    1
   111    58    60    1
   112    60    61    1
   113    62    64    1
   114    72    74    1
   115    74    75    2
   116    78    80    1
   117    88    90    1
   118    90    91    1
   119    92    94    2
   120   102   104    1
   121   104   105    1
   122   105   106    2
@<TRIPOS>SUBSTRUCTURE
     1 RES1        1 GROUP             0 ****  ****    0  
     2 RES2       46 GROUP             0 ****  ****    0  
