@<TRIPOS>MOLECULE
TPPFIM
    62    73     3     0     0
SMALL
USER_CHARGES
****
Generated from the CSD

@<TRIPOS>ATOM
     1 Cl1      0.7676  -6.7773  -4.1438   Cl        1 RES1  -1.0000
     2 C1       3.5286  -9.1358   4.6639   C.2       2 RES2   0.0000
     3 C2       3.6683  -8.6572   6.8418   C.2       2 RES2   0.0000
     4 C3       3.9838  -7.7443   9.0885   C.2       2 RES2   0.0000
     5 C4       3.6778  -5.7709  10.0253   C.2       2 RES2   0.0000
     6 C5       2.4977  -3.7336   9.3621   C.2       2 RES2   0.0000
     7 C6       1.2879  -3.1600   7.6010   C.2       2 RES2   0.0000
     8 C7       1.0770  -4.0287   5.3180   C.2       2 RES2   0.0000
     9 C8       2.0101  -5.6906   4.2254   C.2       2 RES2   0.0000
    10 C9       4.0486  -8.7719   8.1590   C.2       2 RES2   0.0000
    11 C10      4.6912 -10.0700   8.6084   C.ar      2 RES2   0.0000
    12 C11      3.9476 -11.0993   9.1248   C.ar      2 RES2   0.0000
    13 C12      3.8725  -9.6685   5.8398   C.2       2 RES2   0.0000
    14 C13      4.5637 -12.3040   9.5252   C.ar      2 RES2   0.0000
    15 C14      5.9120 -12.4384   9.4111   C.ar      2 RES2   0.0000
    16 C15      6.6782 -11.4206   8.9073   C.ar      2 RES2   0.0000
    17 C16      6.0695 -10.2274   8.4888   C.ar      2 RES2   0.0000
    18 C17      3.2506  -4.4532  10.2699   C.2       2 RES2   0.0000
    19 C18      3.5453  -3.8369  11.5890   C.ar      2 RES2   0.0000
    20 C19      4.5307  -2.8732  11.7067   C.ar      2 RES2   0.0000
    21 C20      4.7581  -2.2520  12.9479   C.ar      2 RES2   0.0000
    22 C21      4.0020  -2.5945  14.0332   C.ar      2 RES2   0.0000
    23 C22      3.0278  -3.5665  13.9263   C.ar      2 RES2   0.0000
    24 C23      4.4979  -7.8164  10.4294   C.2       2 RES2   0.0000
    25 C24      2.7987  -4.1729  12.7051   C.ar      2 RES2   0.0000
    26 C25      0.7385  -3.1207   6.3344   C.2       2 RES2   0.0000
    27 C26     -0.2399  -2.0373   6.0246   C.ar      2 RES2   0.0000
    28 C27     -1.5800  -2.3159   5.9702   C.ar      2 RES2   0.0000
    29 C28     -2.4973  -1.3292   5.6767   C.ar      2 RES2   0.0000
    30 C29     -2.1075  -0.0639   5.4538   C.ar      2 RES2   0.0000
    31 C30     -0.7618   0.2590   5.5209   C.ar      2 RES2   0.0000
    32 C31      0.1856  -0.7375   5.7999   C.ar      2 RES2   0.0000
    33 C32      2.6122  -6.9166   3.9210   C.2       2 RES2   0.0000
    34 C33      2.6986  -7.3296   2.4823   C.ar      2 RES2   0.0000
    35 C34      4.3185  -6.5953  10.9965   C.2       2 RES2   0.0000
    36 C35      3.8092  -6.9690   1.7431   C.ar      2 RES2   0.0000
    37 C36      3.9140  -7.3247   0.4167   C.ar      2 RES2   0.0000
    38 C37      2.8987  -8.0131  -0.1975   C.ar      2 RES2   0.0000
    39 C38      1.8012  -8.3900   0.5255   C.ar      2 RES2   0.0000
    40 C39      1.6991  -8.0393   1.8608   C.ar      2 RES2   0.0000
    41 C40      1.8282  -2.4978   9.6919   C.2       2 RES2   0.0000
    42 C41      0.2699  -6.2970   8.7443   C.2       2 RES2   0.0000
    43 C42     -1.0662  -7.4951   7.5230   C.2       2 RES2   0.0000
    44 C43      0.0808  -7.2870   6.8327   C.2       2 RES2   0.0000
    45 C44      1.0576  -2.1766   8.6265   C.2       2 RES2   0.0000
    46 C45      4.7824  -3.8025   6.5446   C.2       2 RES2   0.0000
    47 C46      6.4895  -4.9072   5.7854   C.2       2 RES2   0.0000
    48 C47      5.5326  -5.7824   6.1605   C.2       2 RES2   0.0000
    49 C48      0.7044  -3.9041   3.9572   C.2       2 RES2   0.0000
    50 C50      1.3022  -4.8990   3.2596   C.2       2 RES2   0.0000
    51 C51      3.0671  -7.7771   4.9175   C.2       2 RES2   0.0000
    52 Fe1      2.6794  -5.8119   7.1589   Fe        2 RES2   1.0000
    53 N1       3.1433  -7.5165   6.2511   N.2       2 RES2   0.0000
    54 N2       3.4679  -6.4839   8.8584   N.2       2 RES2   0.0000
    55 N3       2.1768  -4.1090   8.0793   N.2       2 RES2   0.0000
    56 N4       1.8907  -5.1383   5.4720   N.2       2 RES2   0.0000
    57 N5       0.9138  -6.5216   7.6209   N.2       2 RES2   0.0000
    58 N6      -0.9341  -6.8707   8.7461   N.2       2 RES2   0.0000
    59 N7       4.4504  -5.0875   6.6135   N.2       2 RES2   0.0000
    60 N8       6.0081  -3.6714   6.0264   N.2       2 RES2   0.0000
    61 C49     -1.0296  -4.3745  -6.6207   C.2       3 RES3   0.0000
    62 O1      -0.7760  -5.7513  -6.6986   O.3       3 RES3   0.0000
@<TRIPOS>BOND
     1     2    13    1
     2     3    10    1
     3     4    10    2
     4     5    18    1
     5     6    18    2
     6     7    26    2
     7     8    26    1
     8     9    33    2
     9    10    11    1
    10    11    12   ar
    11    12    14   ar
    12    13     3    2
    13    14    15   ar
    14    15    16   ar
    15    16    17   ar
    16    17    11   ar
    17    18    19    1
    18    19    20   ar
    19    20    21   ar
    20    21    22   ar
    21    22    23   ar
    22    23    25   ar
    23    24     4    1
    24    25    19   ar
    25    26    27    1
    26    27    28   ar
    27    28    29   ar
    28    29    30   ar
    29    30    31   ar
    30    31    32   ar
    31    32    27   ar
    32    33    34    1
    33    34    36   ar
    34    35     5    1
    35    36    37   ar
    36    37    38   ar
    37    38    39   ar
    38    39    40   ar
    39    40    34   ar
    40    41     6    1
    41    42    57    2
    42    43    44    2
    43    44    57    1
    44    45     7    1
    45    46    59    2
    46    47    48    2
    47    48    59    1
    48    49     8    1
    49    50     9    1
    50    51     2    2
    51    52    53    1
    52    53     3    1
    53    54     4    1
    54    55     6    1
    55    56     8    2
    56    57    52    1
    57    58    42    1
    58    59    52    1
    59    60    46    1
    60     5    54    2
    61     7    55    1
    62     9    56    1
    63    24    35    2
    64    33    51    1
    65    41    45    2
    66    43    58    1
    67    47    60    1
    68    49    50    2
    69    51    53    1
    70    52    54    1
    71    52    55    1
    72    52    56    1
    73    61    62    1
@<TRIPOS>SUBSTRUCTURE
     1 RES1        1 GROUP             0 ****  ****    0  
     2 RES2        2 GROUP             0 ****  ****    0  
     3 RES3       61 GROUP             0 ****  ****    0  
@<TRIPOS>CRYSIN
   14.2650   16.3900   18.1210   90.0000   90.8300   90.0000   231     1
