@<TRIPOS>MOLECULE
TPPFEP
    61    74     1     0     0
SMALL
NO_CHARGES
****
Generated from the CSD

@<TRIPOS>ATOM
     1 C1      -4.2415  -2.3266   4.1642   C.2       1 RES1   0.0000
     2 C2      -5.5761  -0.9025   8.4460   C.2       1 RES1   0.0000
     3 C3      -2.7655  -4.7881   3.6561   C.ar      1 RES1   0.0000
     4 C4      -1.9118  -4.0731   2.8137   C.ar      1 RES1   0.0000
     5 C5      -1.7142  -4.4866   1.4970   C.ar      1 RES1   0.0000
     6 C6      -2.3855  -5.5768   1.0046   C.ar      1 RES1   0.0000
     7 C7      -3.2134  -6.3059   1.8297   C.ar      1 RES1   0.0000
     8 C8      -3.3888  -5.9160   3.1546   C.ar      1 RES1   0.0000
     9 C9      -6.3782   0.4477   6.5302   C.ar      1 RES1   0.0000
    10 C10     -7.6244   0.2303   5.9708   C.ar      1 RES1   0.0000
    11 C11     -8.3708   1.2760   5.4511   C.ar      1 RES1   0.0000
    12 C12     -4.9538  -1.3228   4.7187   C.2       1 RES1   0.0000
    13 C13     -7.9064   2.5545   5.5131   C.ar      1 RES1   0.0000
    14 C14     -6.6618   2.7979   6.0643   C.ar      1 RES1   0.0000
    15 C15     -5.9020   1.7462   6.5699   C.ar      1 RES1   0.0000
    16 C16     -6.1947  -4.8308   6.6634   C.3       1 RES1   0.0000
    17 C17     -7.3605  -5.7728   6.5699   C.3       1 RES1   0.0000
    18 C18     -8.5532  -5.2615   7.3867   C.3       1 RES1   0.0000
    19 C19     -8.1055  -5.0463   8.8093   C.3       1 RES1   0.0000
    20 C20     -6.8937  -4.1223   8.9003   C.3       1 RES1   0.0000
    21 C21     -6.1006  -0.6046  10.6108   C.2       1 RES1   0.0000
    22 C22     -6.3127  -0.0956   9.3861   C.2       1 RES1   0.0000
    23 C23     -3.0526  -4.3453   5.0613   C.2       1 RES1   0.0000
    24 C24     -5.5758  -0.6970   7.0656   C.2       1 RES1   0.0000
    25 C25     -3.7592  -3.1576   5.2442   C.2       1 RES1   0.0000
    26 C26     -4.9173  -1.5209   6.1520   C.2       1 RES1   0.0000
    27 C27     -2.6372  -5.1757   6.1057   C.2       1 RES1   0.0000
    28 Fe1     -3.9379  -3.4627   8.2755   Fe        1 RES1   0.0000
    29 N1      -4.9271  -1.9253   9.1064   N.2       1 RES1   0.0000
    30 N2      -4.1753  -2.6450   6.4656   N.2       1 RES1   0.0000
    31 N3      -5.7545  -4.5439   8.0504   N.2       1 RES1   0.0000
    32 C27A    -5.2385  -1.7498  10.4453   C.2       1 RES1   0.0000
    33 C21A    -1.7752  -6.3209   5.9402   C.2       1 RES1   0.0000
    34 N1A     -2.9487  -5.0001   7.4446   N.2       1 RES1   0.0000
    35 N2A     -3.7005  -4.2804  10.0854   N.2       1 RES1   0.0000
    36 N3A     -2.1213  -2.3815   8.5006   N.2       1 RES1   0.0000
    37 C23A    -4.8232  -2.5801  11.4897   C.2       1 RES1   0.0000
    38 C22A    -1.5630  -6.8298   7.1649   C.2       1 RES1   0.0000
    39 C2A     -2.2997  -6.0229   8.1050   C.2       1 RES1   0.0000
    40 C25A    -4.1166  -3.7678  11.3068   C.2       1 RES1   0.0000
    41 C26A    -2.9585  -5.4046  10.3990   C.2       1 RES1   0.0000
    42 C16A    -1.6811  -2.0946   9.8876   C.3       1 RES1   0.0000
    43 C20A    -0.9821  -2.8032   7.6507   C.3       1 RES1   0.0000
    44 C3A     -5.1103  -2.1373  12.8949   C.ar      1 RES1   0.0000
    45 C24A    -2.2999  -6.2285   9.4854   C.2       1 RES1   0.0000
    46 C1A     -3.6342  -4.5989  12.3868   C.2       1 RES1   0.0000
    47 C12A    -2.9219  -5.6027  11.8323   C.2       1 RES1   0.0000
    48 C17A    -0.5153  -1.1527   9.9811   C.3       1 RES1   0.0000
    49 C19A     0.2297  -1.8792   7.7417   C.3       1 RES1   0.0000
    50 C4A     -5.9640  -2.8524  13.7373   C.ar      1 RES1   0.0000
    51 C8A     -4.4870  -1.0094  13.3964   C.ar      1 RES1   0.0000
    52 C9A     -1.4975  -7.3731  10.0208   C.ar      1 RES1   0.0000
    53 C18A     0.6774  -1.6640   9.1643   C.3       1 RES1   0.0000
    54 C5A     -6.1615  -2.4388  15.0540   C.ar      1 RES1   0.0000
    55 C7A     -4.6623  -0.6195  14.7213   C.ar      1 RES1   0.0000
    56 C10A    -0.2514  -7.1558  10.5802   C.ar      1 RES1   0.0000
    57 C15A    -1.9737  -8.6717   9.9811   C.ar      1 RES1   0.0000
    58 C6A     -5.4903  -1.3486  15.5464   C.ar      1 RES1   0.0000
    59 C11A     0.4950  -8.2014  11.0999   C.ar      1 RES1   0.0000
    60 C14A    -1.2139  -9.7233  10.4867   C.ar      1 RES1   0.0000
    61 C13A     0.0307  -9.4800  11.0379   C.ar      1 RES1   0.0000
@<TRIPOS>BOND
     1     1    12    1
     2     2    22    1
     3     3     4   ar
     4     4     5   ar
     5     5     6   ar
     6     6     7   ar
     7     7     8   ar
     8     8     3   ar
     9     9    10   ar
    10    10    11   ar
    11    11    13   ar
    12    12    26    2
    13    13    14   ar
    14    14    15   ar
    15    15     9   ar
    16    16    17    1
    17    17    18    1
    18    18    19    1
    19    19    20    1
    20    20    31    1
    21    21    22    2
    22    23     3    1
    23    24     2    2
    24    25     1    2
    25    26    24    1
    26    27    23    2
    27    28    29    1
    28    29     2    1
    29    30    25    1
    30    31    16    1
    31    32    21    1
    32    33    27    1
    33    34    27    1
    34    35    28    1
    35    36    28    1
    36    37    32    1
    37    38    33    2
    38    39    34    2
    39    40    35    1
    40    41    35    1
    41    42    36    1
    42    43    36    1
    43    44    37    1
    44    45    39    1
    45    46    40    1
    46    47    41    1
    47    48    42    1
    48    49    43    1
    49    50    44   ar
    50    51    44   ar
    51    52    45    1
    52    53    48    1
    53    54    50   ar
    54    55    51   ar
    55    56    52   ar
    56    57    52   ar
    57    58    54   ar
    58    59    56   ar
    59    60    57   ar
    60    61    59   ar
    61     9    24    1
    62    23    25    1
    63    26    30    1
    64    28    34    1
    65    28    30    1
    66    28    31    1
    67    29    32    2
    68    37    40    2
    69    38    39    1
    70    41    45    2
    71    46    47    2
    72    49    53    1
    73    55    58   ar
    74    60    61   ar
@<TRIPOS>SUBSTRUCTURE
     1 RES1        1 GROUP             0 ****  ****    0  
@<TRIPOS>CRYSIN
   11.1130   12.0710    9.7970  105.6700  113.7000  101.0200     2     1
