@<TRIPOS>MOLECULE
TUNVEG
   175   188     3     0     0
SMALL
USER_CHARGES
****
Generated from the CSD

@<TRIPOS>ATOM
     1 Fe1      5.8429  10.6973   5.7057   Fe        1 RES1   2.0000
     2 P1       7.9455  10.5262   6.5733   P.3       1 RES1   0.0000
     3 P2       3.6137  10.8782   5.2331   P.3       1 RES1   0.0000
     4 N1       5.2644   9.4992   7.2781   N.3       1 RES1   0.0000
     5 N2       6.0029   8.9927   4.7388   N.ar      1 RES1   0.0000
     6 N3       5.6606  12.2731   6.7563   N.1       1 RES1   0.0000
     7 N4       6.2969  11.7249   4.1334   N.1       1 RES1   0.0000
     8 C1       5.3470   8.0487   6.8738   C.3       1 RES1   0.0000
     9 H1       6.0580   7.6055   7.4016   H         1 RES1   0.0000
    10 H2       4.4890   7.6036   7.0868   H         1 RES1   0.0000
    11 C2       5.6404   7.8762   5.4132   C.ar      1 RES1   0.0000
    12 C3       5.6258   6.6311   4.8184   C.ar      1 RES1   0.0000
    13 H3       5.3168   5.8768   5.3063   H         1 RES1   0.0000
    14 C4       6.0576   6.4787   3.5168   C.ar      1 RES1   0.0000
    15 H4       6.0678   5.6246   3.1012   H         1 RES1   0.0000
    16 C5       6.4781   7.6099   2.8342   C.ar      1 RES1   0.0000
    17 H5       6.8006   7.5425   1.9431   H         1 RES1   0.0000
    18 C6       6.4209   8.8308   3.4643   C.ar      1 RES1   0.0000
    19 H6       6.6895   9.6012   2.9778   H         1 RES1   0.0000
    20 C7       6.1433   9.7203   8.4775   C.3       1 RES1   0.0000
    21 H7       5.9079   9.0680   9.1841   H         1 RES1   0.0000
    22 H8       5.9897  10.6301   8.8362   H         1 RES1   0.0000
    23 C8       7.6105   9.5616   8.1097   C.3       1 RES1   0.0000
    24 H9       7.8194   8.6055   7.9602   H         1 RES1   0.0000
    25 H10      8.1812   9.8932   8.8476   H         1 RES1   0.0000
    26 C9       3.8427   9.7845   7.6770   C.3       1 RES1   0.0000
    27 H11      3.7791  10.6929   8.0656   H         1 RES1   0.0000
    28 H12      3.5493   9.1330   8.3622   H         1 RES1   0.0000
    29 C10      2.9444   9.6836   6.4491   C.3       1 RES1   0.0000
    30 H13      2.0096   9.9130   6.6828   H         1 RES1   0.0000
    31 H14      2.9622   8.7651   6.0800   H         1 RES1   0.0000
    32 C11      9.2835   9.6282   5.7257   C.ar      1 RES1   0.0000
    33 C12      9.1207   8.2886   5.3783   C.ar      1 RES1   0.0000
    34 H15      8.3378   7.8252   5.6505   H         1 RES1   0.0000
    35 C13     10.0845   7.6261   4.6436   C.ar      1 RES1   0.0000
    36 H16      9.9555   6.7141   4.4088   H         1 RES1   0.0000
    37 C14     11.2362   8.2818   4.2480   C.ar      1 RES1   0.0000
    38 H17     11.8944   7.8281   3.7344   H         1 RES1   0.0000
    39 C15     11.4197   9.6024   4.6078   C.ar      1 RES1   0.0000
    40 H18     12.2132  10.0546   4.3482   H         1 RES1   0.0000
    41 C16     10.4537  10.2749   5.3452   C.ar      1 RES1   0.0000
    42 H19     10.5943  11.1817   5.5911   H         1 RES1   0.0000
    43 C17      5.5525  13.2567   7.3436   C.1       1 RES1   0.0000
    44 C18      5.4407  14.5193   8.0459   C.3       1 RES1   0.0000
    45 H20      6.2405  15.0603   7.8752   H         1 RES1   0.0000
    46 H21      5.3593  14.3525   9.0081   H         1 RES1   0.0000
    47 H22      4.6479  15.0007   7.7295   H         1 RES1   0.0000
    48 C19      6.4623  12.2400   3.1276   C.1       1 RES1   0.0000
    49 C20      6.6523  12.8439   1.8145   C.3       1 RES1   0.0000
    50 H23      7.5432  12.6141   1.4756   H         1 RES1   0.0000
    51 H24      6.5726  13.8178   1.8879   H         1 RES1   0.0000
    52 H25      5.9710  12.5056   1.1971   H         1 RES1   0.0000
    53 C21      8.7118  12.1056   7.0673   C.ar      1 RES1   0.0000
    54 C22      8.6222  13.1994   6.2086   C.ar      1 RES1   0.0000
    55 H26      8.1523  13.1155   5.3872   H         1 RES1   0.0000
    56 C23      9.2128  14.4101   6.5427   C.ar      1 RES1   0.0000
    57 H27      9.1537  15.1485   5.9472   H         1 RES1   0.0000
    58 C24      9.8843  14.5421   7.7385   C.ar      1 RES1   0.0000
    59 H28     10.2743  15.3742   7.9761   H         1 RES1   0.0000
    60 C25      9.9873  13.4627   8.5890   C.ar      1 RES1   0.0000
    61 H29     10.4610  13.5528   9.4078   H         1 RES1   0.0000
    62 C26      9.4072  12.2488   8.2601   C.ar      1 RES1   0.0000
    63 H30      9.4857  11.5111   8.8534   H         1 RES1   0.0000
    64 C27      2.8652  12.4854   5.6604   C.ar      1 RES1   0.0000
    65 C28      1.9386  12.6250   6.6893   C.ar      1 RES1   0.0000
    66 H31      1.6444  11.8556   7.1624   H         1 RES1   0.0000
    67 C29      1.4392  13.8774   7.0340   C.ar      1 RES1   0.0000
    68 H32      0.8245  13.9608   7.7540   H         1 RES1   0.0000
    69 C30      1.8328  14.9945   6.3330   C.ar      1 RES1   0.0000
    70 H33      1.4758  15.8456   6.5566   H         1 RES1   0.0000
    71 C31      2.7503  14.8759   5.2999   C.ar      1 RES1   0.0000
    72 H34      3.0134  15.6449   4.8082   H         1 RES1   0.0000
    73 C32      3.2829  13.6365   4.9856   C.ar      1 RES1   0.0000
    74 H35      3.9402  13.5676   4.3031   H         1 RES1   0.0000
    75 C33      2.8903  10.4321   3.6274   C.ar      1 RES1   0.0000
    76 C34      3.0236   9.1116   3.1703   C.ar      1 RES1   0.0000
    77 H36      3.4927   8.4750   3.6974   H         1 RES1   0.0000
    78 C35      2.4765   8.7287   1.9520   C.ar      1 RES1   0.0000
    79 H37      2.5673   7.8341   1.6473   H         1 RES1   0.0000
    80 C36      1.7951   9.6617   1.1832   C.ar      1 RES1   0.0000
    81 H38      1.4358   9.4064   0.3415   H         1 RES1   0.0000
    82 C37      1.6355  10.9505   1.6294   C.ar      1 RES1   0.0000
    83 H39      1.1446  11.5732   1.1069   H         1 RES1   0.0000
    84 C38      2.1879  11.3496   2.8404   C.ar      1 RES1   0.0000
    85 H40      2.0891  12.2477   3.1337   H         1 RES1   0.0000
    86 C39      3.0128   2.4283   0.0249   C.ar      2 RES2   0.0000
    87 C40      3.0359   2.5400  -1.3671   C.ar      2 RES2   0.0000
    88 H41      3.1951   3.3923  -1.7555   H         2 RES2   0.0000
    89 C41      2.8355   1.4473  -2.2061   C.ar      2 RES2   0.0000
    90 H42      2.8547   1.5658  -3.1485   H         2 RES2   0.0000
    91 C42      2.6083   0.1862  -1.6761   C.ar      2 RES2   0.0000
    92 H43      2.4620  -0.5567  -2.2493   H         2 RES2   0.0000
    93 C43      2.5990   0.0243  -0.3059   C.ar      2 RES2   0.0000
    94 H44      2.4567  -0.8350   0.0731   H         2 RES2   0.0000
    95 C44      2.7977   1.1288   0.5173   C.ar      2 RES2   0.0000
    96 H45      2.7876   0.9982   1.4582   H         2 RES2   0.0000
    97 C45      1.9972   3.8300   2.1430   C.ar      2 RES2   0.0000
    98 C46      2.0462   4.8144   3.1409   C.ar      2 RES2   0.0000
    99 H46      2.8177   5.3653   3.2039   H         2 RES2   0.0000
   100 C47      1.0058   5.0126   4.0403   C.ar      2 RES2   0.0000
   101 H47      1.0838   5.6790   4.7122   H         2 RES2   0.0000
   102 C48     -0.1412   4.2446   3.9639   C.ar      2 RES2   0.0000
   103 H48     -0.8548   4.3821   4.5751   H         2 RES2   0.0000
   104 C49     -0.2325   3.2766   2.9879   C.ar      2 RES2   0.0000
   105 H49     -1.0157   2.7440   2.9217   H         2 RES2   0.0000
   106 C50      0.8216   3.0776   2.0963   C.ar      2 RES2   0.0000
   107 H50      0.7368   2.4040   1.4320   H         2 RES2   0.0000
   108 C51      3.3432   5.1108   0.2830   C.ar      2 RES2   0.0000
   109 C52      2.2352   5.5797  -0.4511   C.ar      2 RES2   0.0000
   110 H51      1.4481   5.0483  -0.4637   H         2 RES2   0.0000
   111 C53      2.2316   6.7664  -1.1523   C.ar      2 RES2   0.0000
   112 H52      1.4586   7.0265  -1.6400   H         2 RES2   0.0000
   113 C54      3.3504   7.5793  -1.1468   C.ar      2 RES2   0.0000
   114 H53      3.3647   8.3887  -1.6438   H         2 RES2   0.0000
   115 C55      4.4486   7.1890  -0.4025   C.ar      2 RES2   0.0000
   116 H54      5.2145   7.7493  -0.3627   H         2 RES2   0.0000
   117 C56      4.4401   5.9809   0.2890   C.ar      2 RES2   0.0000
   118 H55      5.2110   5.7365   0.7865   H         2 RES2   0.0000
   119 C57      4.6638   3.3252   1.8536   C.ar      2 RES2   0.0000
   120 C58      5.8605   3.2100   1.1199   C.ar      2 RES2   0.0000
   121 H56      5.8289   3.3368   0.1790   H         2 RES2   0.0000
   122 C59      7.0815   2.9204   1.7070   C.ar      2 RES2   0.0000
   123 H57      7.8628   2.8661   1.1696   H         2 RES2   0.0000
   124 C60      7.1684   2.7101   3.0710   C.ar      2 RES2   0.0000
   125 H58      8.0071   2.5238   3.4777   H         2 RES2   0.0000
   126 C61      6.0158   2.7754   3.8344   C.ar      2 RES2   0.0000
   127 H59      6.0558   2.6160   4.7701   H         2 RES2   0.0000
   128 C62      4.7931   3.0754   3.2273   C.ar      2 RES2   0.0000
   129 H60      4.0146   3.1118   3.7701   H         2 RES2   0.0000
   130 B1       3.2513   3.6735   1.0810   B         2 RES2  -1.0000
   131 C63      6.7951  16.6803  10.5701   C.ar      3 RES3   0.0000
   132 C64      7.6866  15.6140  10.4752   C.ar      3 RES3   0.0000
   133 H61      8.5142  15.7549  10.0302   H         3 RES3   0.0000
   134 C65      7.4248  14.3557  10.9990   C.ar      3 RES3   0.0000
   135 H62      8.0676  13.6624  10.9076   H         3 RES3   0.0000
   136 C66      6.2322  14.1077  11.6535   C.ar      3 RES3   0.0000
   137 H63      6.0508  13.2513  12.0241   H         3 RES3   0.0000
   138 C67      5.3099  15.1310  11.7566   C.ar      3 RES3   0.0000
   139 H64      4.4821  14.9767  12.1970   H         3 RES3   0.0000
   140 C68      5.5826  16.3833  11.2209   C.ar      3 RES3   0.0000
   141 H65      4.9266  17.0662  11.2969   H         3 RES3   0.0000
   142 C69      8.3961  18.1840   8.9973   C.ar      3 RES3   0.0000
   143 C70      8.3783  18.2543   7.5910   C.ar      3 RES3   0.0000
   144 H66      7.5367  18.3004   7.1518   H         3 RES3   0.0000
   145 C71      9.5293  18.2597   6.8145   C.ar      3 RES3   0.0000
   146 H67      9.4595  18.3072   5.8683   H         3 RES3   0.0000
   147 C72     10.7713  18.1968   7.4074   C.ar      3 RES3   0.0000
   148 H68     11.5608  18.2101   6.8796   H         3 RES3   0.0000
   149 C73     10.8448  18.1137   8.7871   C.ar      3 RES3   0.0000
   150 H69     11.6925  18.0611   9.2132   H         3 RES3   0.0000
   151 C74      9.6878  18.1069   9.5486   C.ar      3 RES3   0.0000
   152 H70      9.7714  18.0473  10.4931   H         3 RES3   0.0000
   153 C75      5.6847  18.6979   9.2809   C.ar      3 RES3   0.0000
   154 C76      5.1622  18.0603   8.1410   C.ar      3 RES3   0.0000
   155 H71      5.6750  17.3724   7.7341   H         3 RES3   0.0000
   156 C77      3.9321  18.3861   7.5797   C.ar      3 RES3   0.0000
   157 H72      3.6319  17.9313   6.8015   H         3 RES3   0.0000
   158 C78      3.1430  19.3733   8.1539   C.ar      3 RES3   0.0000
   159 H73      2.3023  19.6020   7.7756   H         3 RES3   0.0000
   160 C79      3.6041  20.0148   9.2845   C.ar      3 RES3   0.0000
   161 H74      3.0693  20.6812   9.6999   H         3 RES3   0.0000
   162 C80      4.8527  19.6914   9.8231   C.ar      3 RES3   0.0000
   163 H75      5.1518  20.1647  10.5904   H         3 RES3   0.0000
   164 C81      7.4597  19.2304  11.2329   C.ar      3 RES3   0.0000
   165 C82      8.1059  20.4475  10.9643   C.ar      3 RES3   0.0000
   166 H76      8.3076  20.6599  10.0606   H         3 RES3   0.0000
   167 C83      8.4672  21.3558  11.9479   C.ar      3 RES3   0.0000
   168 H77      8.8959  22.1698  11.7114   H         3 RES3   0.0000
   169 C84      8.2003  21.0718  13.2723   C.ar      3 RES3   0.0000
   170 H78      8.4498  21.6820  13.9565   H         3 RES3   0.0000
   171 C85      7.5614  19.8858  13.5864   C.ar      3 RES3   0.0000
   172 H79      7.3741  19.6789  14.4946   H         3 RES3   0.0000
   173 C86      7.1911  18.9868  12.5827   C.ar      3 RES3   0.0000
   174 H80      6.7418  18.1854  12.8253   H         3 RES3   0.0000
   175 B2       7.0814  18.2039   9.9908   B         3 RES3  -1.0000
@<TRIPOS>BOND
     1     1     2    1
     2     2    23    1
     3     3     1    1
     4     4     1    1
     5     5     1    1
     6     6     1    1
     7     7     1    1
     8     8     4    1
     9     9     8    1
    10    10     8    1
    11    11     5   ar
    12    12    11   ar
    13    13    12    1
    14    14    12   ar
    15    15    14    1
    16    16    14   ar
    17    17    16    1
    18    18     5   ar
    19    19    18    1
    20    20     4    1
    21    21    20    1
    22    22    20    1
    23    23    20    1
    24    24    23    1
    25    25    23    1
    26    26     4    1
    27    27    26    1
    28    28    26    1
    29    29     3    1
    30    30    29    1
    31    31    29    1
    32    32     2    1
    33    33    32   ar
    34    34    33    1
    35    35    33   ar
    36    36    35    1
    37    37    35   ar
    38    38    37    1
    39    39    37   ar
    40    40    39    1
    41    41    32   ar
    42    42    41    1
    43    43     6    3
    44    44    43    1
    45    45    44    1
    46    46    44    1
    47    47    44    1
    48    48     7    3
    49    49    48    1
    50    50    49    1
    51    51    49    1
    52    52    49    1
    53    53     2    1
    54    54    53   ar
    55    55    54    1
    56    56    54   ar
    57    57    56    1
    58    58    56   ar
    59    59    58    1
    60    60    58   ar
    61    61    60    1
    62    62    53   ar
    63    63    62    1
    64    64     3    1
    65    65    64   ar
    66    66    65    1
    67    67    65   ar
    68    68    67    1
    69    69    67   ar
    70    70    69    1
    71    71    69   ar
    72    72    71    1
    73    73    64   ar
    74    74    73    1
    75    75     3    1
    76    76    75   ar
    77    77    76    1
    78    78    76   ar
    79    79    78    1
    80    80    78   ar
    81    81    80    1
    82    82    80   ar
    83    83    82    1
    84    84    75   ar
    85    85    84    1
    86     8    11    1
    87    16    18   ar
    88    26    29    1
    89    39    41   ar
    90    60    62   ar
    91    71    73   ar
    92    82    84   ar
    93    86    87   ar
    94    87    88    1
    95    89    87   ar
    96    90    89    1
    97    91    89   ar
    98    92    91    1
    99    93    91   ar
   100    94    93    1
   101    95    86   ar
   102    96    95    1
   103    97    98   ar
   104    98    99    1
   105   100    98   ar
   106   101   100    1
   107   102   100   ar
   108   103   102    1
   109   104   102   ar
   110   105   104    1
   111   106    97   ar
   112   107   106    1
   113   108   109   ar
   114   109   110    1
   115   111   109   ar
   116   112   111    1
   117   113   111   ar
   118   114   113    1
   119   115   113   ar
   120   116   115    1
   121   117   108   ar
   122   118   117    1
   123   119   120   ar
   124   120   121    1
   125   122   120   ar
   126   123   122    1
   127   124   122   ar
   128   125   124    1
   129   126   124   ar
   130   127   126    1
   131   128   119   ar
   132   129   128    1
   133   130    86    1
   134    93    95   ar
   135    97   130    1
   136   104   106   ar
   137   108   130    1
   138   115   117   ar
   139   119   130    1
   140   126   128   ar
   141   131   132   ar
   142   132   133    1
   143   134   132   ar
   144   135   134    1
   145   136   134   ar
   146   137   136    1
   147   138   136   ar
   148   139   138    1
   149   140   131   ar
   150   141   140    1
   151   142   143   ar
   152   143   144    1
   153   145   143   ar
   154   146   145    1
   155   147   145   ar
   156   148   147    1
   157   149   147   ar
   158   150   149    1
   159   151   142   ar
   160   152   151    1
   161   153   154   ar
   162   154   155    1
   163   156   154   ar
   164   157   156    1
   165   158   156   ar
   166   159   158    1
   167   160   158   ar
   168   161   160    1
   169   162   153   ar
   170   163   162    1
   171   164   165   ar
   172   165   166    1
   173   167   165   ar
   174   168   167    1
   175   169   167   ar
   176   170   169    1
   177   171   169   ar
   178   172   171    1
   179   173   164   ar
   180   174   173    1
   181   175   131    1
   182   138   140   ar
   183   142   175    1
   184   149   151   ar
   185   153   175    1
   186   160   162   ar
   187   164   175    1
   188   171   173   ar
@<TRIPOS>SUBSTRUCTURE
     1 RES1        1 GROUP             0 ****  ****    0  
     2 RES2       86 GROUP             0 ****  ****    0  
     3 RES3      131 GROUP             0 ****  ****    0  
@<TRIPOS>CRYSIN
   11.8965   13.2767   23.0967   81.4660   76.0870   85.9510     2     1
