@<TRIPOS>MOLECULE
TUNWAD
   145   152     3     0     0
SMALL
USER_CHARGES
****
Generated from the CSD

@<TRIPOS>ATOM
     1 Fe1      5.5605   8.1782   3.7378   Fe        1 RES1   1.0000
     2 H1       4.2555   8.7845   3.8244   H         1 RES1   0.0000
     3 P1       5.8050  10.4041   3.6654   P.3       1 RES1   0.0000
     4 P2       3.9858   6.6150   4.1301   P.3       1 RES1   0.0000
     5 P3       7.6052   7.2596   3.9042   P.3       1 RES1   0.0000
     6 N1       5.6915   8.4076   5.8316   N.3       1 RES1   0.0000
     7 N2       5.5830   8.0319   0.8292   N.1       1 RES1   0.0000
     8 N3       5.5406   8.0625   1.9515   N.1       1 RES1   0.0000
     9 C1       5.1623   9.7529   6.2427   C.3       1 RES1   0.0000
    10 H2       5.3446   9.8964   7.2051   H         1 RES1   0.0000
    11 H3       4.1812   9.7728   6.1115   H         1 RES1   0.0000
    12 C2       5.7994  10.8726   5.4385   C.3       1 RES1   0.0000
    13 H4       6.7268  11.0252   5.7496   H         1 RES1   0.0000
    14 H5       5.2875  11.7107   5.5640   H         1 RES1   0.0000
    15 C3       4.8934   7.3814   6.5934   C.3       1 RES1   0.0000
    16 H6       4.6773   7.7399   7.4905   H         1 RES1   0.0000
    17 H7       5.4449   6.5685   6.7164   H         1 RES1   0.0000
    18 C4       3.6123   7.0070   5.8897   C.3       1 RES1   0.0000
    19 H8       2.9698   7.7585   5.9381   H         1 RES1   0.0000
    20 H9       3.2039   6.2202   6.3304   H         1 RES1   0.0000
    21 C5       7.1033   8.3078   6.3384   C.3       1 RES1   0.0000
    22 H10      7.0914   8.2046   7.3229   H         1 RES1   0.0000
    23 H11      7.5877   9.1445   6.1250   H         1 RES1   0.0000
    24 C6       7.8353   7.1328   5.7197   C.3       1 RES1   0.0000
    25 H12      7.4623   6.2793   6.0553   H         1 RES1   0.0000
    26 H13      8.7980   7.1678   5.9481   H         1 RES1   0.0000
    27 C7       7.2981  11.3020   3.0222   C.3       1 RES1   0.0000
    28 H14      8.0950  10.8604   3.4343   H         1 RES1   0.0000
    29 C8       7.3635  12.7816   3.4227   C.3       1 RES1   0.0000
    30 H15      7.2313  12.8644   4.3902   H         1 RES1   0.0000
    31 H16      6.6611  13.2784   2.9533   H         1 RES1   0.0000
    32 H17      8.2398  13.1472   3.1802   H         1 RES1   0.0000
    33 C9       7.4503  11.1507   1.5130   C.3       1 RES1   0.0000
    34 H18      7.3336  10.2096   1.2656   H         1 RES1   0.0000
    35 H19      8.3432  11.4511   1.2430   H         1 RES1   0.0000
    36 H20      6.7720  11.6941   1.0601   H         1 RES1   0.0000
    37 C10      4.3799  11.3547   2.9347   C.3       1 RES1   0.0000
    38 H21      4.6827  12.3001   2.8148   H         1 RES1   0.0000
    39 C11      3.1590  11.3813   3.8446   C.3       1 RES1   0.0000
    40 H22      3.3991  11.7920   4.7014   H         1 RES1   0.0000
    41 H23      2.8456  10.4655   3.9976   H         1 RES1   0.0000
    42 H24      2.4467  11.9038   3.4202   H         1 RES1   0.0000
    43 C12      3.9627  10.8345   1.5643   C.3       1 RES1   0.0000
    44 H25      4.7456  10.7991   0.9761   H         1 RES1   0.0000
    45 H26      3.2905  11.4340   1.1781   H         1 RES1   0.0000
    46 H27      3.5834   9.9356   1.6577   H         1 RES1   0.0000
    47 C13      2.3238   6.9303   3.3410   C.3       1 RES1   0.0000
    48 H28      2.0652   7.8543   3.6227   H         1 RES1   0.0000
    49 C14      1.2076   6.0207   3.8510   C.3       1 RES1   0.0000
    50 H29      1.2305   5.9931   4.8303   H         1 RES1   0.0000
    51 H30      1.3352   5.1163   3.4957   H         1 RES1   0.0000
    52 H31      0.3411   6.3691   3.5541   H         1 RES1   0.0000
    53 C15      2.3361   6.9573   1.8111   C.3       1 RES1   0.0000
    54 H32      3.0135   7.5939   1.5010   H         1 RES1   0.0000
    55 H33      1.4547   7.2320   1.4821   H         1 RES1   0.0000
    56 H34      2.5477   6.0631   1.4703   H         1 RES1   0.0000
    57 C16      4.1210   4.7596   4.1414   C.3       1 RES1   0.0000
    58 H35      3.2557   4.4050   4.4956   H         1 RES1   0.0000
    59 C17      5.2207   4.2773   5.0835   C.3       1 RES1   0.0000
    60 H36      5.0388   4.6008   5.9905   H         1 RES1   0.0000
    61 H37      6.0857   4.6241   4.7804   H         1 RES1   0.0000
    62 H38      5.2437   3.2977   5.0844   H         1 RES1   0.0000
    63 C18      4.3024   4.1793   2.7414   C.3       1 RES1   0.0000
    64 H39      3.5013   4.3598   2.2066   H         1 RES1   0.0000
    65 H40      4.4417   3.2113   2.8045   H         1 RES1   0.0000
    66 H41      5.0807   4.5941   2.3141   H         1 RES1   0.0000
    67 C19      8.0876   5.6196   3.2452   C.ar      1 RES1   0.0000
    68 C20      8.9283   4.7661   3.9640   C.ar      1 RES1   0.0000
    69 H42      9.2307   5.0173   4.8288   H         1 RES1   0.0000
    70 C21      9.3233   3.5518   3.4185   C.ar      1 RES1   0.0000
    71 H43      9.8898   2.9730   3.9152   H         1 RES1   0.0000
    72 C22      8.8991   3.1814   2.1628   C.ar      1 RES1   0.0000
    73 H44      9.1760   2.3510   1.7937   H         1 RES1   0.0000
    74 C23      8.0710   4.0162   1.4392   C.ar      1 RES1   0.0000
    75 H45      7.7803   3.7620   0.5712   H         1 RES1   0.0000
    76 C24      7.6632   5.2301   1.9824   C.ar      1 RES1   0.0000
    77 H46      7.0879   5.7985   1.4839   H         1 RES1   0.0000
    78 C25      9.0517   8.2306   3.3224   C.ar      1 RES1   0.0000
    79 C26      9.3054   8.2880   1.9535   C.ar      1 RES1   0.0000
    80 H47      8.7652   7.7879   1.3529   H         1 RES1   0.0000
    81 C27     10.3380   9.0683   1.4610   C.ar      1 RES1   0.0000
    82 H48     10.5044   9.1003   0.5263   H         1 RES1   0.0000
    83 C28     11.1311   9.8040   2.3321   C.ar      1 RES1   0.0000
    84 H49     11.8354  10.3437   1.9927   H         1 RES1   0.0000
    85 C29     10.8966   9.7511   3.6866   C.ar      1 RES1   0.0000
    86 H50     11.4407  10.2520   4.2830   H         1 RES1   0.0000
    87 C30      9.8649   8.9658   4.1815   C.ar      1 RES1   0.0000
    88 H51      9.7114   8.9293   5.1183   H         1 RES1   0.0000
    89 C31      5.0450   6.6919  10.0316   C.ar      2 RES2   0.0000
    90 C32      6.4379   6.6000   9.9611   C.ar      2 RES2   0.0000
    91 H52      6.9528   7.3076  10.3307   H         2 RES2   0.0000
    92 C33      7.1127   5.5323   9.3810   C.ar      2 RES2   0.0000
    93 H53      8.0619   5.5366   9.3429   H         2 RES2   0.0000
    94 C34      6.4075   4.4645   8.8596   C.ar      2 RES2   0.0000
    95 H54      6.8589   3.7375   8.4468   H         2 RES2   0.0000
    96 C35      5.0351   4.4810   8.9537   C.ar      2 RES2   0.0000
    97 H55      4.5320   3.7463   8.6227   H         2 RES2   0.0000
    98 C36      4.3765   5.5641   9.5291   C.ar      2 RES2   0.0000
    99 H56      3.4285   5.5390   9.5844   H         2 RES2   0.0000
   100 C37      4.7255   9.4396  10.0898   C.ar      2 RES2   0.0000
   101 C38      6.0600   9.8592  10.0171   C.ar      2 RES2   0.0000
   102 H57      6.7337   9.2771  10.3483   H         2 RES2   0.0000
   103 C39      6.4500  11.0831   9.4854   C.ar      2 RES2   0.0000
   104 H58      7.3727  11.3038   9.4371   H         2 RES2   0.0000
   105 C40      5.5067  11.9793   9.0275   C.ar      2 RES2   0.0000
   106 H59      5.7681  12.8133   8.6553   H         2 RES2   0.0000
   107 C41      4.1753  11.6351   9.1230   C.ar      2 RES2   0.0000
   108 H60      3.5069  12.2471   8.8382   H         2 RES2   0.0000
   109 C42      3.8054  10.3907   9.6365   C.ar      2 RES2   0.0000
   110 H61      2.8804  10.1789   9.6804   H         2 RES2   0.0000
   111 C43      2.6353   7.8393  10.5627   C.ar      2 RES2   0.0000
   112 C44      2.0498   7.6940   9.2919   C.ar      2 RES2   0.0000
   113 H62      2.6215   7.6327   8.5356   H         2 RES2   0.0000
   114 C45      0.6787   7.6361   9.0883   C.ar      2 RES2   0.0000
   115 H63      0.3325   7.5229   8.2109   H         2 RES2   0.0000
   116 C46     -0.1847   7.7433  10.1654   C.ar      2 RES2   0.0000
   117 H64     -1.1255   7.7126  10.0365   H         2 RES2   0.0000
   118 C47      0.3467   7.8955  11.4298   C.ar      2 RES2   0.0000
   119 H65     -0.2331   7.9724  12.1784   H         2 RES2   0.0000
   120 C48      1.7266   7.9375  11.6178   C.ar      2 RES2   0.0000
   121 H66      2.0631   8.0369  12.5006   H         2 RES2   0.0000
   122 C49      4.6535   7.9492  12.3391   C.ar      2 RES2   0.0000
   123 C50      4.8624   9.0977  13.1112   C.ar      2 RES2   0.0000
   124 H67      4.8245   9.9465  12.6861   H         2 RES2   0.0000
   125 C51      5.1231   9.0455  14.4752   C.ar      2 RES2   0.0000
   126 H68      5.2506   9.8503  14.9635   H         2 RES2   0.0000
   127 C52      5.1981   7.8256  15.1257   C.ar      2 RES2   0.0000
   128 H69      5.3840   7.7844  16.0563   H         2 RES2   0.0000
   129 C53      4.9971   6.6673  14.3956   C.ar      2 RES2   0.0000
   130 H70      5.0388   5.8223  14.8276   H         2 RES2   0.0000
   131 C54      4.7354   6.7361  13.0370   C.ar      2 RES2   0.0000
   132 H71      4.6060   5.9262  12.5575   H         2 RES2   0.0000
   133 B1       4.2672   7.9766  10.7402   B         2 RES2  -1.0000
   134 C55      1.6482   8.0705  15.5888   C.ar      3 RES3   0.0000
   135 H72      2.3138   7.7253  15.0054   H         3 RES3   0.0000
   136 C56      0.3135   7.8192  15.3414   C.ar      3 RES3   0.0000
   137 H73      0.0594   7.3027  14.5855   H         3 RES3   0.0000
   138 C57     -0.6555   8.3208  16.1960   C.ar      3 RES3   0.0000
   139 H74     -1.5737   8.1451  16.0265   H         3 RES3   0.0000
   140 C55A    -0.2895   9.0764  17.2952   C.ar      3 RES3   0.0000
   141 H72A    -0.9550   9.4215  17.8786   H         3 RES3   0.0000
   142 C56A     1.0452   9.3276  17.5426   C.ar      3 RES3   0.0000
   143 H73A     1.2993   9.8441  18.2985   H         3 RES3   0.0000
   144 C57A     2.0142   8.8260  16.6880   C.ar      3 RES3   0.0000
   145 H74A     2.9324   9.0017  16.8575   H         3 RES3   0.0000
@<TRIPOS>BOND
     1     1     2    1
     2     3     1    1
     3     4     1    1
     4     5     1    1
     5     6     1    1
     6     7     8    3
     7     8     1    1
     8     9     6    1
     9    10     9    1
    10    11     9    1
    11    12     3    1
    12    13    12    1
    13    14    12    1
    14    15     6    1
    15    16    15    1
    16    17    15    1
    17    18     4    1
    18    19    18    1
    19    20    18    1
    20    21     6    1
    21    22    21    1
    22    23    21    1
    23    24     5    1
    24    25    24    1
    25    26    24    1
    26    27     3    1
    27    28    27    1
    28    29    27    1
    29    30    29    1
    30    31    29    1
    31    32    29    1
    32    33    27    1
    33    34    33    1
    34    35    33    1
    35    36    33    1
    36    37     3    1
    37    38    37    1
    38    39    37    1
    39    40    39    1
    40    41    39    1
    41    42    39    1
    42    43    37    1
    43    44    43    1
    44    45    43    1
    45    46    43    1
    46    47     4    1
    47    48    47    1
    48    49    47    1
    49    50    49    1
    50    51    49    1
    51    52    49    1
    52    53    47    1
    53    54    53    1
    54    55    53    1
    55    56    53    1
    56    57     4    1
    57    58    57    1
    58    59    57    1
    59    60    59    1
    60    61    59    1
    61    62    59    1
    62    63    57    1
    63    64    63    1
    64    65    63    1
    65    66    63    1
    66    67     5    1
    67    68    67   ar
    68    69    68    1
    69    70    68   ar
    70    71    70    1
    71    72    70   ar
    72    73    72    1
    73    74    72   ar
    74    75    74    1
    75    76    67   ar
    76    77    76    1
    77    78     5    1
    78    79    78   ar
    79    80    79    1
    80    81    79   ar
    81    82    81    1
    82    83    81   ar
    83    84    83    1
    84    85    83   ar
    85    86    85    1
    86    87    78   ar
    87    88    87    1
    88     9    12    1
    89    15    18    1
    90    21    24    1
    91    74    76   ar
    92    85    87   ar
    93    89    90   ar
    94    90    91    1
    95    92    90   ar
    96    93    92    1
    97    94    92   ar
    98    95    94    1
    99    96    94   ar
   100    97    96    1
   101    98    89   ar
   102    99    98    1
   103   100   101   ar
   104   101   102    1
   105   103   101   ar
   106   104   103    1
   107   105   103   ar
   108   106   105    1
   109   107   105   ar
   110   108   107    1
   111   109   100   ar
   112   110   109    1
   113   111   112   ar
   114   112   113    1
   115   114   112   ar
   116   115   114    1
   117   116   114   ar
   118   117   116    1
   119   118   116   ar
   120   119   118    1
   121   120   111   ar
   122   121   120    1
   123   122   123   ar
   124   123   124    1
   125   125   123   ar
   126   126   125    1
   127   127   125   ar
   128   128   127    1
   129   129   127   ar
   130   130   129    1
   131   131   122   ar
   132   132   131    1
   133   133    89    1
   134    96    98   ar
   135   100   133    1
   136   107   109   ar
   137   111   133    1
   138   118   120   ar
   139   122   133    1
   140   129   131   ar
   141   134   135    1
   142   136   134   ar
   143   137   136    1
   144   138   136   ar
   145   139   138    1
   146   140   138   ar
   147   141   140    1
   148   142   140   ar
   149   143   142    1
   150   144   134   ar
   151   145   144    1
   152   142   144   ar
@<TRIPOS>SUBSTRUCTURE
     1 RES1        1 GROUP             0 ****  ****    0  
     2 RES2       89 GROUP             0 ****  ****    0  
     3 RES3      134 GROUP             0 ****  ****    0  
@<TRIPOS>CRYSIN
   11.0959   14.1621   17.6963  106.9560  101.4370   95.5090     2     1
