@<TRIPOS>MOLECULE
TUPXUX
   120   126     2     0     0
SMALL
USER_CHARGES
****
Generated from the CSD

@<TRIPOS>ATOM
     1 Fe1      6.7024  11.8839   4.3053   Fe        1 RES1   1.0000
     2 N1       7.3826  13.1207   5.7007   N.2       1 RES1   0.0000
     3 N2       6.2577  10.5760   5.6838   N.2       1 RES1   0.0000
     4 N3       6.0353  10.6574   2.9054   N.2       1 RES1   0.0000
     5 N4       7.1355  13.2291   2.8980   N.2       1 RES1   0.0000
     6 C1       8.0327  14.3257   5.5100   C.2       1 RES1   0.0000
     7 C2       7.1484  13.0321   7.0415   C.2       1 RES1   0.0000
     8 C3       6.2096  10.7741   7.0412   C.2       1 RES1   0.0000
     9 C4       5.9553   9.2432   5.4914   C.2       1 RES1   0.0000
    10 C5       5.8452   9.3008   3.0528   C.2       1 RES1   0.0000
    11 C6       5.8738  10.9127   1.5652   C.2       1 RES1   0.0000
    12 C7       6.7306  13.2109   1.5878   C.2       1 RES1   0.0000
    13 C8       7.8158  14.4075   3.0609   C.2       1 RES1   0.0000
    14 C9       8.2446  14.9772   6.7845   C.2       1 RES1   0.0000
    15 C10      7.6718  14.2025   7.7320   C.2       1 RES1   0.0000
    16 C11      5.8329   9.5554   7.7144   C.2       1 RES1   0.0000
    17 C12      5.6852   8.6109   6.7531   C.2       1 RES1   0.0000
    18 C13      5.5506   8.7048   1.7630   C.2       1 RES1   0.0000
    19 C14      5.5489   9.6919   0.8544   C.2       1 RES1   0.0000
    20 C15      7.1356  14.4212   0.9235   C.2       1 RES1   0.0000
    21 C16      7.8417  15.1371   1.8236   C.2       1 RES1   0.0000
    22 C17      6.5852  11.9394   7.6687   C.2       1 RES1   0.0000
    23 C18      5.8360   8.6431   4.2509   C.2       1 RES1   0.0000
    24 C19      6.1323  12.1273   0.9720   C.2       1 RES1   0.0000
    25 C20      8.2814  14.8808   4.2791   C.2       1 RES1   0.0000
    26 C21      8.9162  16.3061   6.9699   C.3       1 RES1   0.0000
    27 C22      7.5217  14.4689   9.1915   C.3       1 RES1   0.0000
    28 C23      5.6482   9.3951   9.1878   C.3       1 RES1   0.0000
    29 C24      5.2247   7.1937   6.9083   C.3       1 RES1   0.0000
    30 C25      5.2557   7.2419   1.5608   C.3       1 RES1   0.0000
    31 C26      5.2905   9.6028  -0.6176   C.3       1 RES1   0.0000
    32 C27      6.7926  14.8024  -0.4921   C.3       1 RES1   0.0000
    33 C28      8.4972  16.4742   1.6333   C.3       1 RES1   0.0000
    34 C29      7.9606  17.4684   6.9293   C.3       1 RES1   0.0000
    35 C30      6.1755  15.0170   9.5589   C.3       1 RES1   0.0000
    36 C31      4.2472   9.6953   9.6511   C.3       1 RES1   0.0000
    37 C32      3.7429   7.0340   6.6058   C.3       1 RES1   0.0000
    38 C33      3.8274   6.8989   1.7753   C.3       1 RES1   0.0000
    39 C34      3.9001   9.9076  -1.0282   C.3       1 RES1   0.0000
    40 C35      5.5845  15.6782  -0.5863   C.3       1 RES1   0.0000
    41 C36      7.6491  17.6121   2.1127   C.3       1 RES1   0.0000
    42 C37      5.0804  12.9073   4.5108   C.1       1 RES1   0.0000
    43 N5       4.2892  13.7264   4.6319   N.1       1 RES1   0.0000
    44 C38      3.5524  14.9793   4.7529   C.3       1 RES1   0.0000
    45 C39      2.0935  14.6998   4.5513   C.3       1 RES1   0.0000
    46 C40      3.8293  15.5141   6.1055   C.3       1 RES1   0.0000
    47 C41      4.0669  15.8721   3.6554   C.3       1 RES1   0.0000
    48 C42      8.3840  11.0068   3.9722   C.1       1 RES1   0.0000
    49 N6       9.2798  10.3815   3.6333   N.1       1 RES1   0.0000
    50 C43     10.2350   9.4678   3.0220   C.3       1 RES1   0.0000
    51 C44      9.6923   9.0440   1.7720   C.3       1 RES1   0.0000
    52 C45     11.5326  10.1591   2.8759   C.3       1 RES1   0.0000
    53 C46     10.3862   8.3405   3.9666   C.3       1 RES1   0.0000
    54 H1       6.4447  11.9963   8.6064   H         1 RES1   0.0000
    55 H2       5.7407   7.6980   4.2303   H         1 RES1   0.0000
    56 H3       5.8781  12.2291   0.0622   H         1 RES1   0.0000
    57 H4       8.8223  15.6622   4.2598   H         1 RES1   0.0000
    58 H5       9.5568  16.4189   6.2775   H         1 RES1   0.0000
    59 H6       9.3557  16.3069   7.8120   H         1 RES1   0.0000
    60 H7       8.1843  15.0974   9.4531   H         1 RES1   0.0000
    61 H8       7.6539  13.6538   9.6611   H         1 RES1   0.0000
    62 H9       6.2447   9.9866   9.6316   H         1 RES1   0.0000
    63 H10      5.8563   8.4975   9.4203   H         1 RES1   0.0000
    64 H11      5.3846   6.9166   7.8022   H         1 RES1   0.0000
    65 H12      5.7196   6.6454   6.3119   H         1 RES1   0.0000
    66 H13      5.7809   6.7401   2.1733   H         1 RES1   0.0000
    67 H14      5.4928   7.0072   0.6715   H         1 RES1   0.0000
    68 H15      5.4921   8.7174  -0.8991   H         1 RES1   0.0000
    69 H16      5.8679  10.2158  -1.0563   H         1 RES1   0.0000
    70 H17      6.6306  14.0087  -0.9876   H         1 RES1   0.0000
    71 H18      7.5328  15.2665  -0.8664   H         1 RES1   0.0000
    72 H19      8.6714  16.5965   0.7075   H         1 RES1   0.0000
    73 H20      9.3146  16.4814   2.1160   H         1 RES1   0.0000
    74 H21      8.4405  18.2785   7.0521   H         1 RES1   0.0000
    75 H22      7.5182  17.4850   6.0875   H         1 RES1   0.0000
    76 H23      7.3175  17.3745   7.6221   H         1 RES1   0.0000
    77 H24      6.1376  15.1656  10.4963   H         1 RES1   0.0000
    78 H25      6.0316  15.8379   9.1026   H         1 RES1   0.0000
    79 H26      5.5013  14.3943   9.3106   H         1 RES1   0.0000
    80 H27      4.1911   9.5751  10.5913   H         1 RES1   0.0000
    81 H28      4.0256  10.5917   9.4318   H         1 RES1   0.0000
    82 H29      3.6379   9.1047   9.2221   H         1 RES1   0.0000
    83 H30      3.4934   6.1243   6.7148   H         1 RES1   0.0000
    84 H31      3.2381   7.5747   7.2012   H         1 RES1   0.0000
    85 H32      3.5721   7.3035   5.7108   H         1 RES1   0.0000
    86 H33      3.6997   5.9686   1.6345   H         1 RES1   0.0000
    87 H34      3.5776   7.1230   2.6646   H         1 RES1   0.0000
    88 H35      3.2886   7.3872   1.1628   H         1 RES1   0.0000
    89 H36      3.8236   9.8291  -1.9718   H         1 RES1   0.0000
    90 H37      3.3045   9.2984  -0.6092   H         1 RES1   0.0000
    91 H38      3.6798  10.7953  -0.7665   H         1 RES1   0.0000
    92 H39      5.4141  15.8885  -1.4969   H         1 RES1   0.0000
    93 H40      4.8343  15.2251  -0.2211   H         1 RES1   0.0000
    94 H41      5.7351  16.4815  -0.0999   H         1 RES1   0.0000
    95 H42      8.1073  18.4313   1.9702   H         1 RES1   0.0000
    96 H43      6.8283  17.6204   1.6345   H         1 RES1   0.0000
    97 H44      7.4717  17.5062   3.0413   H         1 RES1   0.0000
    98 H45      1.6017  15.5086   4.6266   H         1 RES1   0.0000
    99 H46      1.9575  14.3272   3.6866   H         1 RES1   0.0000
   100 H47      1.7933  14.0830   5.2097   H         1 RES1   0.0000
   101 H48      3.3644  16.3338   6.2234   H         1 RES1   0.0000
   102 H49      3.5383  14.8895   6.7590   H         1 RES1   0.0000
   103 H50      4.7618  15.6623   6.2021   H         1 RES1   0.0000
   104 H51      3.6170  16.7078   3.6882   H         1 RES1   0.0000
   105 H52      5.0001  16.0100   3.7701   H         1 RES1   0.0000
   106 H53      3.9093  15.4614   2.8120   H         1 RES1   0.0000
   107 H54     10.2945   8.4375   1.3544   H         1 RES1   0.0000
   108 H55      8.8617   8.5956   1.9276   H         1 RES1   0.0000
   109 H56      9.5473   9.7900   1.2136   H         1 RES1   0.0000
   110 H57     12.1627   9.5699   2.4763   H         1 RES1   0.0000
   111 H58     11.4236  10.9250   2.3240   H         1 RES1   0.0000
   112 H59     11.8478  10.4270   3.7291   H         1 RES1   0.0000
   113 H60     11.0061   7.7118   3.6145   H         1 RES1   0.0000
   114 H61     10.7104   8.6675   4.8002   H         1 RES1   0.0000
   115 H62      9.5470   7.9202   4.0976   H         1 RES1   0.0000
   116 Cl1      6.9683   4.3753   4.2663   Cl        2 RES2   0.0000
   117 O1       6.9487   3.3785   3.2845   O.3       2 RES2  -1.0000
   118 O2       7.2719   3.8382   5.5243   O.2       2 RES2   0.0000
   119 O3       7.8053   5.4069   3.9242   O.2       2 RES2   0.0000
   120 O4       5.6438   4.9592   4.3368   O.2       2 RES2   0.0000
@<TRIPOS>BOND
     1     1     2    1
     2     2     6    1
     3     3     1    1
     4     4     1    1
     5     5     1    1
     6     6    14    1
     7     7     2    1
     8     8     3    2
     9     9     3    1
    10    10     4    1
    11    11     4    1
    12    12     5    1
    13    13     5    2
    14    14    15    2
    15    15     7    1
    16    16     8    1
    17    17     9    1
    18    18    10    2
    19    19    11    2
    20    20    12    1
    21    21    13    1
    22    22     7    2
    23    23     9    2
    24    24    11    1
    25    25     6    2
    26    26    14    1
    27    27    15    1
    28    28    16    1
    29    29    17    1
    30    30    18    1
    31    31    19    1
    32    32    20    1
    33    33    21    1
    34    34    26    1
    35    35    27    1
    36    36    28    1
    37    37    29    1
    38    38    30    1
    39    39    31    1
    40    40    32    1
    41    41    33    1
    42    42     1    1
    43    43    42    3
    44    44    43    1
    45    45    44    1
    46    46    44    1
    47    47    44    1
    48    48     1    1
    49    49    48    3
    50    50    49    1
    51    51    50    1
    52    52    50    1
    53    53    50    1
    54    54    22    1
    55    55    23    1
    56    56    24    1
    57    57    25    1
    58    58    26    1
    59    59    26    1
    60    60    27    1
    61    61    27    1
    62    62    28    1
    63    63    28    1
    64    64    29    1
    65    65    29    1
    66    66    30    1
    67    67    30    1
    68    68    31    1
    69    69    31    1
    70    70    32    1
    71    71    32    1
    72    72    33    1
    73    73    33    1
    74    74    34    1
    75    75    34    1
    76    76    34    1
    77    77    35    1
    78    78    35    1
    79    79    35    1
    80    80    36    1
    81    81    36    1
    82    82    36    1
    83    83    37    1
    84    84    37    1
    85    85    37    1
    86    86    38    1
    87    87    38    1
    88    88    38    1
    89    89    39    1
    90    90    39    1
    91    91    39    1
    92    92    40    1
    93    93    40    1
    94    94    40    1
    95    95    41    1
    96    96    41    1
    97    97    41    1
    98    98    45    1
    99    99    45    1
   100   100    45    1
   101   101    46    1
   102   102    46    1
   103   103    46    1
   104   104    47    1
   105   105    47    1
   106   106    47    1
   107   107    51    1
   108   108    51    1
   109   109    51    1
   110   110    52    1
   111   111    52    1
   112   112    52    1
   113   113    53    1
   114   114    53    1
   115   115    53    1
   116     8    22    1
   117    10    23    1
   118    12    24    2
   119    13    25    1
   120    16    17    2
   121    18    19    1
   122    20    21    2
   123   116   117    1
   124   118   116    2
   125   119   116    2
   126   120   116    2
@<TRIPOS>SUBSTRUCTURE
     1 RES1        1 GROUP             0 ****  ****    0  
     2 RES2      116 GROUP             0 ****  ****    0  
@<TRIPOS>CRYSIN
    9.7560   15.0650   17.7530   67.3800   82.2900   74.4300     2     1
