@<TRIPOS>MOLECULE
TUTMUS
   127   136     4     0     0
SMALL
USER_CHARGES
****
Generated from the CSD

@<TRIPOS>ATOM
     1 Fe1      9.8859   5.5932   3.2918   Fe        1 RES1   1.0000
     2 Cl1     10.5787   6.8183   1.4308   Cl        1 RES1   0.0000
     3 P1      10.0299   3.5674   2.2585   P.3       1 RES1   0.0000
     4 P2      10.2668   7.3929   4.5934   P.3       1 RES1   0.0000
     5 P3       7.7545   5.9504   2.9599   P.3       1 RES1   0.0000
     6 N1      11.8397   5.2588   3.6643   N.ar      1 RES1   0.0000
     7 N2      11.6390   3.1901   2.6478   N.pl3     1 RES1   0.0000
     8 N3      11.9560   7.3504   4.6469   N.pl3     1 RES1   0.0000
     9 N4       9.2803   4.5811   4.8986   N.ar      1 RES1   0.0000
    10 N5       7.1068   5.1475   4.2948   N.pl3     1 RES1   0.0000
    11 C1      12.4347   4.1029   3.2859   C.ar      1 RES1   0.0000
    12 C2      13.7798   3.8347   3.5440   C.ar      1 RES1   0.0000
    13 C3      14.5338   4.8061   4.1691   C.ar      1 RES1   0.0000
    14 C4      13.9670   6.0173   4.5190   C.ar      1 RES1   0.0000
    15 C5      12.6058   6.1997   4.2696   C.ar      1 RES1   0.0000
    16 C6       9.9639   3.1513   0.4748   C.ar      1 RES1   0.0000
    17 C7      10.6197   4.0079  -0.4090   C.ar      1 RES1   0.0000
    18 C8      10.6245   3.7484  -1.7751   C.ar      1 RES1   0.0000
    19 C9       9.9806   2.6264  -2.2700   C.ar      1 RES1   0.0000
    20 C10      9.3375   1.7585  -1.3994   C.ar      1 RES1   0.0000
    21 C11      9.3258   2.0179  -0.0327   C.ar      1 RES1   0.0000
    22 C12      9.0676   2.2162   3.0122   C.ar      1 RES1   0.0000
    23 C13      7.7023   2.1056   2.7277   C.ar      1 RES1   0.0000
    24 C14      6.9285   1.1462   3.3648   C.ar      1 RES1   0.0000
    25 C15      7.5034   0.2952   4.2921   C.ar      1 RES1   0.0000
    26 C16      8.8510   0.3933   4.5742   C.ar      1 RES1   0.0000
    27 C17      9.6354   1.3462   3.9296   C.ar      1 RES1   0.0000
    28 C18      9.9515   9.1471   4.2222   C.ar      1 RES1   0.0000
    29 C19     10.6013   9.7284   3.1295   C.ar      1 RES1   0.0000
    30 C20     10.3339  11.0464   2.7769   C.ar      1 RES1   0.0000
    31 C21      9.4207  11.7955   3.5074   C.ar      1 RES1   0.0000
    32 C22      8.7869  11.2340   4.6009   C.ar      1 RES1   0.0000
    33 C23      9.0510   9.9212   4.9617   C.ar      1 RES1   0.0000
    34 C24      9.7370   7.1910   6.3296   C.ar      1 RES1   0.0000
    35 C25      8.3723   7.1981   6.6432   C.ar      1 RES1   0.0000
    36 C26      7.9385   6.8771   7.9216   C.ar      1 RES1   0.0000
    37 C27      8.8573   6.5331   8.9006   C.ar      1 RES1   0.0000
    38 C28     10.2076   6.5311   8.6113   C.ar      1 RES1   0.0000
    39 C29     10.6520   6.8505   7.3331   C.ar      1 RES1   0.0000
    40 C30      7.9568   4.4709   5.1465   C.ar      1 RES1   0.0000
    41 C31      7.4509   3.7334   6.2200   C.ar      1 RES1   0.0000
    42 C32      8.3259   3.1339   7.0912   C.ar      1 RES1   0.0000
    43 C33      9.6985   3.2769   6.8824   C.ar      1 RES1   0.0000
    44 C34     10.1222   3.9898   5.7906   C.ar      1 RES1   0.0000
    45 C35      6.8482   5.2405   1.5419   C.ar      1 RES1   0.0000
    46 C36      5.5637   4.6955   1.7052   C.ar      1 RES1   0.0000
    47 C37      4.9500   4.0491   0.6491   C.ar      1 RES1   0.0000
    48 C38      5.5780   3.9610  -0.5879   C.ar      1 RES1   0.0000
    49 C39      6.8247   4.5369  -0.7656   C.ar      1 RES1   0.0000
    50 C40      7.4626   5.1778   0.2929   C.ar      1 RES1   0.0000
    51 C41      7.0389   7.6239   2.9921   C.ar      1 RES1   0.0000
    52 C42      7.4797   8.5341   2.0266   C.ar      1 RES1   0.0000
    53 C43      6.9735   9.8252   1.9945   C.ar      1 RES1   0.0000
    54 C44      6.0356  10.2249   2.9401   C.ar      1 RES1   0.0000
    55 C45      5.5895   9.3325   3.8939   C.ar      1 RES1   0.0000
    56 C46      6.0722   8.0261   3.9212   C.ar      1 RES1   0.0000
    57 H1      14.1708   2.9947   3.2925   H         1 RES1   0.0000
    58 H2      15.4593   4.6396   4.3625   H         1 RES1   0.0000
    59 H3      14.4935   6.7118   4.9216   H         1 RES1   0.0000
    60 H4      11.0719   4.7843  -0.0712   H         1 RES1   0.0000
    61 H5      11.0745   4.3473  -2.3756   H         1 RES1   0.0000
    62 H6       9.9793   2.4497  -3.2138   H         1 RES1   0.0000
    63 H7       8.8988   0.9760  -1.7413   H         1 RES1   0.0000
    64 H8       8.8770   1.4148   0.5643   H         1 RES1   0.0000
    65 H9       7.2987   2.6969   2.0883   H         1 RES1   0.0000
    66 H10      5.9930   1.0729   3.1621   H         1 RES1   0.0000
    67 H11      6.9656  -0.3627   4.7389   H         1 RES1   0.0000
    68 H12      9.2490  -0.1978   5.2176   H         1 RES1   0.0000
    69 H13     10.5744   1.4010   4.1219   H         1 RES1   0.0000
    70 H14     11.2343   9.2160   2.6211   H         1 RES1   0.0000
    71 H15     10.7825  11.4404   2.0252   H         1 RES1   0.0000
    72 H16      9.2297  12.7014   3.2537   H         1 RES1   0.0000
    73 H17      8.1625  11.7544   5.1116   H         1 RES1   0.0000
    74 H18      8.6119   9.5402   5.7256   H         1 RES1   0.0000
    75 H19      7.7304   7.4270   5.9669   H         1 RES1   0.0000
    76 H20      7.0011   6.8934   8.1283   H         1 RES1   0.0000
    77 H21      8.5548   6.2962   9.7802   H         1 RES1   0.0000
    78 H22     10.8426   6.3081   9.2958   H         1 RES1   0.0000
    79 H23     11.5918   6.8376   7.1375   H         1 RES1   0.0000
    80 H24      6.5032   3.6470   6.3465   H         1 RES1   0.0000
    81 H25      7.9980   2.6226   7.8347   H         1 RES1   0.0000
    82 H26     10.3312   2.8854   7.4889   H         1 RES1   0.0000
    83 H27     11.0673   4.0772   5.6467   H         1 RES1   0.0000
    84 H28      5.1127   4.7723   2.5491   H         1 RES1   0.0000
    85 H29      4.0820   3.6574   0.7708   H         1 RES1   0.0000
    86 H30      5.1497   3.5034  -1.3152   H         1 RES1   0.0000
    87 H31      7.2519   4.4941  -1.6241   H         1 RES1   0.0000
    88 H32      8.3260   5.5765   0.1623   H         1 RES1   0.0000
    89 H33      8.1372   8.2637   1.3816   H         1 RES1   0.0000
    90 H34      7.2700  10.4415   1.3208   H         1 RES1   0.0000
    91 H35      5.6977  11.1234   2.9296   H         1 RES1   0.0000
    92 H36      4.9413   9.6142   4.5436   H         1 RES1   0.0000
    93 H37      5.7433   7.4041   4.5742   H         1 RES1   0.0000
    94 H38     11.9606   2.4090   2.4401   H         1 RES1   0.0000
    95 H39     12.4071   8.0465   4.9091   H         1 RES1   0.0000
    96 H40      6.2499   5.1596   4.4443   H         1 RES1   0.0000
    97 O1      13.8759   9.0169   6.0694   O.3       2 RES2   0.0000
    98 C47     13.7607  10.3473   5.5487   C.3       2 RES2   0.0000
    99 C48     12.6311  11.0047   6.3338   C.3       2 RES2   0.0000
   100 C49     12.5312  10.1535   7.6176   C.3       2 RES2   0.0000
   101 C50     13.6905   9.1746   7.4850   C.3       2 RES2   0.0000
   102 H41     13.5238  10.3079   4.6193   H         2 RES2   0.0000
   103 H42     14.5790  10.8242   5.7055   H         2 RES2   0.0000
   104 H43     11.8124  10.9326   5.8375   H         2 RES2   0.0000
   105 H44     12.8814  11.9026   6.5636   H         2 RES2   0.0000
   106 H45     12.6715  10.7136   8.3847   H         2 RES2   0.0000
   107 H46     11.7022   9.6696   7.6173   H         2 RES2   0.0000
   108 H47     14.4808   9.5604   7.8702   H         2 RES2   0.0000
   109 H48     13.4431   8.3313   7.8714   H         2 RES2   0.0000
   110 O2      13.2329   1.0312   1.7517   O.3       3 RES3   0.0000
   111 C51     12.6618  -0.2731   1.5293   C.3       3 RES3   0.0000
   112 C52     12.5932  -0.4737   0.0273   C.3       3 RES3   0.0000
   113 C53     12.9062   0.8878  -0.5600   C.3       3 RES3   0.0000
   114 C54     13.8037   1.4637   0.5009   C.3       3 RES3   0.0000
   115 H49     11.7753  -0.3011   1.8968   H         3 RES3   0.0000
   116 H50     13.2316  -0.9421   1.9159   H         3 RES3   0.0000
   117 H51     11.7026  -0.7321  -0.2205   H         3 RES3   0.0000
   118 H52     13.2675  -1.1014  -0.2427   H         3 RES3   0.0000
   119 H53     13.4026   0.7785  -1.3743   H         3 RES3   0.0000
   120 H54     12.1000   1.4063  -0.6131   H         3 RES3   0.0000
   121 H55     14.6858   1.0966   0.4076   H         3 RES3   0.0000
   122 H56     13.7811   2.4223   0.4532   H         3 RES3   0.0000
   123 B1       3.7517   4.0718   5.3263   B         4 RES4  -1.0000
   124 F1       2.5608   4.1625   4.6322   F         4 RES4   0.0000
   125 F2       4.6364   3.2205   4.6604   F         4 RES4   0.0000
   126 F3       3.5326   3.6137   6.5946   F         4 RES4   0.0000
   127 F4       4.3543   5.3321   5.3710   F         4 RES4   0.0000
@<TRIPOS>BOND
     1     1     2    1
     2     3     1    1
     3     4     1    1
     4     5     1    1
     5     6     1    1
     6     7     3    1
     7     8     4    1
     8     9     1    1
     9    10     5    1
    10    11     6   ar
    11    12    11   ar
    12    13    12   ar
    13    14    13   ar
    14    15     6   ar
    15    16     3    1
    16    17    16   ar
    17    18    17   ar
    18    19    18   ar
    19    20    19   ar
    20    21    16   ar
    21    22     3    1
    22    23    22   ar
    23    24    23   ar
    24    25    24   ar
    25    26    25   ar
    26    27    22   ar
    27    28     4    1
    28    29    28   ar
    29    30    29   ar
    30    31    30   ar
    31    32    31   ar
    32    33    28   ar
    33    34     4    1
    34    35    34   ar
    35    36    35   ar
    36    37    36   ar
    37    38    37   ar
    38    39    34   ar
    39    40     9   ar
    40    41    40   ar
    41    42    41   ar
    42    43    42   ar
    43    44     9   ar
    44    45     5    1
    45    46    45   ar
    46    47    46   ar
    47    48    47   ar
    48    49    48   ar
    49    50    45   ar
    50    51     5    1
    51    52    51   ar
    52    53    52   ar
    53    54    53   ar
    54    55    54   ar
    55    56    51   ar
    56    57    12    1
    57    58    13    1
    58    59    14    1
    59    60    17    1
    60    61    18    1
    61    62    19    1
    62    63    20    1
    63    64    21    1
    64    65    23    1
    65    66    24    1
    66    67    25    1
    67    68    26    1
    68    69    27    1
    69    70    29    1
    70    71    30    1
    71    72    31    1
    72    73    32    1
    73    74    33    1
    74    75    35    1
    75    76    36    1
    76    77    37    1
    77    78    38    1
    78    79    39    1
    79    80    41    1
    80    81    42    1
    81    82    43    1
    82    83    44    1
    83    84    46    1
    84    85    47    1
    85    86    48    1
    86    87    49    1
    87    88    50    1
    88    89    52    1
    89    90    53    1
    90    91    54    1
    91    92    55    1
    92    93    56    1
    93    94     7    1
    94    95     8    1
    95    96    10    1
    96     7    11    1
    97     8    15    1
    98    10    40    1
    99    14    15   ar
   100    20    21   ar
   101    26    27   ar
   102    32    33   ar
   103    38    39   ar
   104    43    44   ar
   105    49    50   ar
   106    55    56   ar
   107    97    98    1
   108    98    99    1
   109    99   100    1
   110   100   101    1
   111   101    97    1
   112   102    98    1
   113   103    98    1
   114   104    99    1
   115   105    99    1
   116   106   100    1
   117   107   100    1
   118   108   101    1
   119   109   101    1
   120   110   111    1
   121   111   112    1
   122   112   113    1
   123   113   114    1
   124   114   110    1
   125   115   111    1
   126   116   111    1
   127   117   112    1
   128   118   112    1
   129   119   113    1
   130   120   113    1
   131   121   114    1
   132   122   114    1
   133   123   124    1
   134   125   123    1
   135   126   123    1
   136   127   123    1
@<TRIPOS>SUBSTRUCTURE
     1 RES1        1 GROUP             0 ****  ****    0  
     2 RES2       97 GROUP             0 ****  ****    0  
     3 RES3      110 GROUP             0 ****  ****    0  
     4 RES4      123 GROUP             0 ****  ****    0  
@<TRIPOS>CRYSIN
   17.9705   18.5536   30.0107   90.0000   90.0000   90.0000    61     1
