@<TRIPOS>MOLECULE
UBOXIS
    96    95     4     0     0
SMALL
USER_CHARGES
****
Generated from the CSD

@<TRIPOS>ATOM
     1 Fe1      5.1043   3.3164   9.9245   Fe        1 RES1   0.0000
     2 S1       3.7865   5.2591   9.9665   S.3       1 RES1  -1.0000
     3 S2       6.6191   4.6931  11.0764   S.3       1 RES1  -1.0000
     4 C1       4.1751   2.8020  11.5428   C.1       1 RES1   0.0000
     5 C2       6.2059   1.8905  10.0285   C.1       1 RES1   0.0000
     6 C3       3.9119   2.3831   8.9865   C.1       1 RES1   0.0000
     7 C4       7.4368   3.9959  12.4516   C.ar      1 RES1   0.0000
     8 C5       6.0074   3.9186   8.3312   C.1       1 RES1   0.0000
     9 C6       7.1750   2.7527  13.0398   C.ar      1 RES1   0.0000
    10 H1       6.5152   2.1884  12.6531   H         1 RES1   0.0000
    11 C7       8.4307   4.7746  13.0432   C.ar      1 RES1   0.0000
    12 H2       8.6428   5.6219  12.6693   H         1 RES1   0.0000
    13 C8       7.8400   2.3273  14.1535   C.ar      1 RES1   0.0000
    14 H3       7.6295   1.4809  14.5333   H         1 RES1   0.0000
    15 C13      8.8181   3.1152  14.7347   C.ar      1 RES1   0.0000
    16 H12      9.2776   2.8184  15.5116   H         1 RES1   0.0000
    17 C14      9.1173   4.3339  14.1709   C.ar      1 RES1   0.0000
    18 H13      9.7957   4.8785  14.5529   H         1 RES1   0.0000
    19 N2       3.5723   2.4942  12.4690   N.1       1 RES1   0.0000
    20 O1       3.1651   1.7573   8.4192   O.2       1 RES1   0.0000
    21 C19      2.7112   5.5338   8.6183   C.ar      1 RES1   0.0000
    22 C20      1.6955   6.4767   8.8163   C.ar      1 RES1   0.0000
    23 H26      1.5816   6.8699   9.6742   H         1 RES1   0.0000
    24 C21      2.8240   4.9558   7.3517   C.ar      1 RES1   0.0000
    25 H27      3.4950   4.3022   7.1931   H         1 RES1   0.0000
    26 C28      1.0168   6.2608   6.5193   C.ar      1 RES1   0.0000
    27 H42      0.4601   6.5206   5.7946   H         1 RES1   0.0000
    28 C29      0.8468   6.8451   7.7731   C.ar      1 RES1   0.0000
    29 H43      0.1618   7.4879   7.9156   H         1 RES1   0.0000
    30 C32      1.9766   5.3200   6.3329   C.ar      1 RES1   0.0000
    31 H50      2.0657   4.9053   5.4820   H         1 RES1   0.0000
    32 O2       6.8891   0.9691  10.0713   O.2       1 RES1   0.0000
    33 N4       6.5059   4.3139   7.4617   N.1       1 RES1   0.0000
    34 N1      -0.4567   2.2526  10.3665   N.4       2 RES2   1.0000
    35 C9       0.7439   3.1447  10.5622   C.3       2 RES2   0.0000
    36 H4       1.4778   2.6064  10.9512   H         2 RES2   0.0000
    37 H5       1.0470   3.4663   9.6765   H         2 RES2   0.0000
    38 C10     -1.5930   3.0074   9.7170   C.3       2 RES2   0.0000
    39 H6      -2.3622   2.3915   9.6140   H         2 RES2   0.0000
    40 H7      -1.8732   3.7380  10.3237   H         2 RES2   0.0000
    41 C11     -0.9860   1.7340  11.6910   C.3       2 RES2   0.0000
    42 H8      -1.3221   2.5019  12.2178   H         2 RES2   0.0000
    43 H9      -1.7544   1.1375  11.5115   H         2 RES2   0.0000
    44 C12      0.0032   1.0969   9.4936   C.3       2 RES2   0.0000
    45 H10      0.4203   1.4659   8.6762   H         2 RES2   0.0000
    46 H11      0.6982   0.5882   9.9821   H         2 RES2   0.0000
    47 C15      0.0201   0.9796  12.5338   C.3       2 RES2   0.0000
    48 H14      0.3178   0.1821  12.0487   H         2 RES2   0.0000
    49 H15     -0.3969   0.7136  13.3790   H         2 RES2   0.0000
    50 H16      0.7908   1.5555  12.7168   H         2 RES2   0.0000
    51 C16     -1.1006   0.1373   9.0849   C.3       2 RES2   0.0000
    52 H17     -1.6263  -0.1105   9.8733   H         2 RES2   0.0000
    53 H18     -0.7050  -0.6658   8.6901   H         2 RES2   0.0000
    54 H19     -1.6835   0.5702   8.4273   H         2 RES2   0.0000
    55 C17      0.5009   4.3294  11.4444   C.3       2 RES2   0.0000
    56 H20     -0.2453   4.8546  11.0866   H         2 RES2   0.0000
    57 H21      1.3072   4.8844  11.4745   H         2 RES2   0.0000
    58 H22      0.2803   4.0246  12.3486   H         2 RES2   0.0000
    59 C18     -1.2659   3.5988   8.3729   C.3       2 RES2   0.0000
    60 H23     -0.5364   4.2455   8.4690   H         2 RES2   0.0000
    61 H24     -2.0582   4.0515   8.0140   H         2 RES2   0.0000
    62 H25     -0.9907   2.8841   7.7604   H         2 RES2   0.0000
    63 N3       6.0191   9.0296   9.0733   N.4       3 RES3   1.0000
    64 C22      5.6959   8.9478   7.6087   C.3       3 RES3   0.0000
    65 H28      6.5446   8.9478   7.0982   H         3 RES3   0.0000
    66 H29      5.1930   9.7599   7.3506   H         3 RES3   0.0000
    67 C23      6.8196  10.3132   9.2377   C.3       3 RES3   0.0000
    68 H30      7.6208  10.2615   8.6600   H         3 RES3   0.0000
    69 H31      6.2681  11.0706   8.9159   H         3 RES3   0.0000
    70 C24      4.7505   9.0550   9.8953   C.3       3 RES3   0.0000
    71 H32      4.3028   8.1776   9.8038   H         3 RES3   0.0000
    72 H33      4.9997   9.1628  10.8470   H         3 RES3   0.0000
    73 C25      7.2642  10.6117  10.6490   C.3       3 RES3   0.0000
    74 H34      6.4834  10.6317  11.2406   H         3 RES3   0.0000
    75 H35      7.7158  11.4826  10.6722   H         3 RES3   0.0000
    76 H36      7.8836   9.9152  10.9500   H         3 RES3   0.0000
    77 C26      6.8036   7.8106   9.5341   C.3       3 RES3   0.0000
    78 H37      6.9848   7.9059  10.5031   H         3 RES3   0.0000
    79 H38      6.2330   7.0102   9.4160   H         3 RES3   0.0000
    80 C27      4.8875   7.7285   7.1977   C.3       3 RES3   0.0000
    81 H39      5.3602   6.9146   7.4721   H         3 RES3   0.0000
    82 H40      4.7697   7.7267   6.2252   H         3 RES3   0.0000
    83 H41      4.0096   7.7566   7.6331   H         3 RES3   0.0000
    84 C30      8.0995   7.5709   8.8348   C.3       3 RES3   0.0000
    85 H44      7.9417   7.4909   7.8704   H         3 RES3   0.0000
    86 H45      8.5030   6.7415   9.1694   H         3 RES3   0.0000
    87 H46      8.7066   8.3209   9.0050   H         3 RES3   0.0000
    88 C31      3.7675  10.1230   9.5410   C.3       3 RES3   0.0000
    89 H47      4.2159  10.9960   9.5491   H         3 RES3   0.0000
    90 H48      3.0372  10.1242  10.1940   H         3 RES3   0.0000
    91 H49      3.4072   9.9510   8.6461   H         3 RES3   0.0000
    92 O3       7.9222   0.3702  17.2690   O.3       4 RES4   0.0000
    93 C33      9.8308  -1.1077  17.8815   C.3       4 RES4   0.0000
    94 C34      8.5443  -1.6600  18.0725   C.3       4 RES4   0.0000
    95 C35      7.5938  -1.0061  16.9055   C.3       4 RES4   0.0000
    96 C36      9.4251   0.0000  17.0433   C.3       4 RES4   0.0000
@<TRIPOS>BOND
     1     1     2    1
     2     2    21    1
     3     3     1    1
     4     4     1    1
     5     5     1    1
     6     6     1    1
     7     7     3    1
     8     8     1    1
     9     9     7   ar
    10    10     9    1
    11    11     7   ar
    12    12    11    1
    13    13     9   ar
    14    14    13    1
    15    15    13   ar
    16    16    15    1
    17    17    11   ar
    18    18    17    1
    19    19     4    3
    20    20     6    3
    21    21    22   ar
    22    22    23    1
    23    24    21   ar
    24    25    24    1
    25    26    27    1
    26    28    22   ar
    27    29    28    1
    28    30    24   ar
    29    31    30    1
    30    32     5    3
    31    33     8    3
    32    15    17   ar
    33    26    28   ar
    34    26    30   ar
    35    34    35    1
    36    35    36    1
    37    37    35    1
    38    38    34    1
    39    39    38    1
    40    40    38    1
    41    41    34    1
    42    42    41    1
    43    43    41    1
    44    44    34    1
    45    45    44    1
    46    46    44    1
    47    47    41    1
    48    48    47    1
    49    49    47    1
    50    50    47    1
    51    51    44    1
    52    52    51    1
    53    53    51    1
    54    54    51    1
    55    55    35    1
    56    56    55    1
    57    57    55    1
    58    58    55    1
    59    59    38    1
    60    60    59    1
    61    61    59    1
    62    62    59    1
    63    63    64    1
    64    64    65    1
    65    66    64    1
    66    67    63    1
    67    68    67    1
    68    69    67    1
    69    70    63    1
    70    71    70    1
    71    72    70    1
    72    73    67    1
    73    74    73    1
    74    75    73    1
    75    76    73    1
    76    77    63    1
    77    78    77    1
    78    79    77    1
    79    80    64    1
    80    81    80    1
    81    82    80    1
    82    83    80    1
    83    84    77    1
    84    85    84    1
    85    86    84    1
    86    87    84    1
    87    88    70    1
    88    89    88    1
    89    90    88    1
    90    91    88    1
    91    92    95    1
    92    93    94    1
    93    94    95    1
    94    96    92    1
    95    93    96    1
@<TRIPOS>SUBSTRUCTURE
     1 RES1        1 GROUP             0 ****  ****    0  
     2 RES2       34 GROUP             0 ****  ****    0  
     3 RES3       63 GROUP             0 ****  ****    0  
     4 RES4       92 GROUP             0 ****  ****    0  
@<TRIPOS>CRYSIN
   11.3330   29.8560   12.1620   90.0000  107.8350   90.0000    14     1
