@<TRIPOS>MOLECULE
UCENIZ
    70    78     2     0     0
SMALL
USER_CHARGES
****
Generated from the CSD

@<TRIPOS>ATOM
     1 Fe1      7.0088  -7.1171   5.8476   Fe        1 RES1   1.0000
     2 S1       4.5071 -10.8173   7.2849   S.2       1 RES1   0.0000
     3 P1       6.4560  -8.2573   2.7086   P.3       1 RES1   0.0000
     4 P2       4.3645  -5.3359   6.9703   P.3       1 RES1   0.0000
     5 O1       5.2198  -6.3133   6.2300   O.2       1 RES1   0.0000
     6 O2       6.2589  -7.6851   4.0781   O.2       1 RES1   0.0000
     7 N1       6.3417  -8.8556   6.6464   N.2       1 RES1   0.0000
     8 C1       5.5757  -9.8064   2.5355   C.ar      1 RES1   0.0000
     9 C2       4.6143 -10.1538   3.4840   C.ar      1 RES1   0.0000
    10 C3       3.9408 -11.3645   3.3495   C.ar      1 RES1   0.0000
    11 C4       4.1974 -12.1957   2.3192   C.ar      1 RES1   0.0000
    12 C5       5.1398 -11.8790   1.3894   C.ar      1 RES1   0.0000
    13 C6       5.8495 -10.6813   1.4946   C.ar      1 RES1   0.0000
    14 C7       5.8865  -7.1117   1.4572   C.ar      1 RES1   0.0000
    15 C8       6.0143  -5.7901   1.6631   C.ar      1 RES1   0.0000
    16 C9       5.5413  -4.8792   0.6807   C.ar      1 RES1   0.0000
    17 C10      4.9964  -5.2925  -0.4163   C.ar      1 RES1   0.0000
    18 C11      4.8520  -6.6209  -0.6538   C.ar      1 RES1   0.0000
    19 C12      5.2816  -7.5201   0.2912   C.ar      1 RES1   0.0000
    20 C13      2.9531  -6.1710   7.6954   C.ar      1 RES1   0.0000
    21 C14      2.6657  -7.4751   7.3025   C.ar      1 RES1   0.0000
    22 C15      1.5927  -8.1339   7.8790   C.ar      1 RES1   0.0000
    23 C16      1.2694  -7.5344   8.7924   C.ar      1 RES1   0.0000
    24 C17      1.0743  -6.2655   9.1994   C.ar      1 RES1   0.0000
    25 C18      2.1611  -5.5638   8.6685   C.ar      1 RES1   0.0000
    26 C19      3.8176  -4.0129   5.9037   C.ar      1 RES1   0.0000
    27 C20      2.6875  -3.2634   6.1692   C.ar      1 RES1   0.0000
    28 C21      2.3131  -2.2474   5.3353   C.ar      1 RES1   0.0000
    29 C22      3.0317  -1.9629   4.2500   C.ar      1 RES1   0.0000
    30 C23      4.0778  -2.7467   3.9144   C.ar      1 RES1   0.0000
    31 C24      4.4637  -3.7937   4.7588   C.ar      1 RES1   0.0000
    32 C25      8.1845  -8.6154   2.3788   C.3       1 RES1   0.0000
    33 C26      5.2604  -4.5749   8.3258   C.3       1 RES1   0.0000
    34 C27      5.5858  -9.6768   6.9282   C.1       1 RES1   0.0000
    35 C25A     5.8332  -5.6189   9.3164   C.3       1 RES1   0.0000
    36 P1A      7.5616  -5.9770   8.9866   P.3       1 RES1   0.0000
    37 O2A      7.7588  -6.5492   7.6171   O.2       1 RES1   0.0000
    38 O1A      8.7979  -7.9209   5.4652   O.2       1 RES1   0.0000
    39 P2A      9.6531  -8.8984   4.7248   P.3       1 RES1   0.0000
    40 C13A    11.0645  -8.0633   3.9997   C.ar      1 RES1   0.0000
    41 C14A    11.3519  -6.7592   4.3927   C.ar      1 RES1   0.0000
    42 C15A    12.4249  -6.1004   3.8161   C.ar      1 RES1   0.0000
    43 C16A    12.7483  -6.6999   2.9027   C.ar      1 RES1   0.0000
    44 C17A    12.9433  -7.9688   2.4957   C.ar      1 RES1   0.0000
    45 C18A    11.8565  -8.6704   3.0267   C.ar      1 RES1   0.0000
    46 C19A    10.2001 -10.2214   5.7914   C.ar      1 RES1   0.0000
    47 C20A    11.3301 -10.9709   5.5260   C.ar      1 RES1   0.0000
    48 C21A    11.7045 -11.9869   6.3598   C.ar      1 RES1   0.0000
    49 C22A    10.9859 -12.2714   7.4451   C.ar      1 RES1   0.0000
    50 C23A     9.9399 -11.4875   7.7808   C.ar      1 RES1   0.0000
    51 C24A     9.5539 -10.4406   6.9364   C.ar      1 RES1   0.0000
    52 C26A     8.7572  -9.6594   3.3694   C.3       1 RES1   0.0000
    53 N1A      7.6760  -5.3786   5.0488   N.2       1 RES1   0.0000
    54 C27A     8.4319  -4.5575   4.7670   C.1       1 RES1   0.0000
    55 S1A      9.5105  -3.4170   4.4102   S.2       1 RES1   0.0000
    56 C1A      8.4419  -4.4279   9.1597   C.ar      1 RES1   0.0000
    57 C2A      9.4033  -4.0805   8.2112   C.ar      1 RES1   0.0000
    58 C3A     10.0769  -2.8698   8.3457   C.ar      1 RES1   0.0000
    59 C4A      9.8203  -2.0386   9.3760   C.ar      1 RES1   0.0000
    60 C5A      8.8778  -2.3553  10.3058   C.ar      1 RES1   0.0000
    61 C6A      8.1682  -3.5529  10.2005   C.ar      1 RES1   0.0000
    62 C7A      8.1311  -7.1226  10.2380   C.ar      1 RES1   0.0000
    63 C8A      8.0033  -8.4442  10.0321   C.ar      1 RES1   0.0000
    64 C9A      8.4763  -9.3551  11.0145   C.ar      1 RES1   0.0000
    65 C10A     9.0212  -8.9418  12.1115   C.ar      1 RES1   0.0000
    66 C11A     9.1656  -7.6133  12.3489   C.ar      1 RES1   0.0000
    67 C12A     8.7360  -6.7141  11.4040   C.ar      1 RES1   0.0000
    68 I1       2.5670  -1.5204   9.8158   I         2 RES2   0.0000
    69 I2       4.2923  -2.9319  11.6952   I         2 RES2  -1.0000
    70 I1A      6.0176  -4.3434  13.5746   I         2 RES2   0.0000
@<TRIPOS>BOND
     1     1     5    1
     2     2    34    2
     3     3     6    2
     4     4     5    2
     5     6     1    1
     6     7     1    1
     7     8     3    1
     8     9     8   ar
     9    10     9   ar
    10    11    10   ar
    11    12    11   ar
    12    13     8   ar
    13    14     3    1
    14    15    14   ar
    15    16    15   ar
    16    17    16   ar
    17    18    17   ar
    18    19    14   ar
    19    20     4    1
    20    21    20   ar
    21    22    21   ar
    22    23    22   ar
    23    24    23   ar
    24    25    20   ar
    25    26     4    1
    26    27    26   ar
    27    28    27   ar
    28    29    28   ar
    29    30    29   ar
    30    31    26   ar
    31    32     3    1
    32    33     4    1
    33    34     7    2
    34    35    33    1
    35    36    35    1
    36    37     1    1
    37    38     1    1
    38    39    38    2
    39    40    39    1
    40    41    40   ar
    41    42    41   ar
    42    43    42   ar
    43    44    43   ar
    44    45    40   ar
    45    46    39    1
    46    47    46   ar
    47    48    47   ar
    48    49    48   ar
    49    50    49   ar
    50    51    46   ar
    51    52    32    1
    52    53     1    1
    53    54    53    2
    54    55    54    2
    55    56    36    1
    56    57    56   ar
    57    58    57   ar
    58    59    58   ar
    59    60    59   ar
    60    61    56   ar
    61    62    36    1
    62    63    62   ar
    63    64    63   ar
    64    65    64   ar
    65    66    65   ar
    66    67    62   ar
    67    12    13   ar
    68    18    19   ar
    69    24    25   ar
    70    30    31   ar
    71    36    37    2
    72    39    52    1
    73    44    45   ar
    74    50    51   ar
    75    60    61   ar
    76    66    67   ar
    77    68    69    1
    78    69    70    1
@<TRIPOS>SUBSTRUCTURE
     1 RES1        1 GROUP             0 ****  ****    0  
     2 RES2       68 GROUP             0 ****  ****    0  
@<TRIPOS>CRYSIN
   11.0710   12.0540   12.1210  101.0200   95.8870  110.3400     2     1
