@<TRIPOS>MOLECULE
UCODIA
   135   132     5     0     0
SMALL
USER_CHARGES
****
Generated from the CSD

@<TRIPOS>ATOM
     1 C1      11.5256  11.7180  14.6499   C.1       1 RES1   0.0000
     2 C2      10.4595  11.8483  12.1448   C.1       1 RES1   0.0000
     3 C3      13.0909  11.8565  12.4938   C.1       1 RES1   0.0000
     4 C4      11.9876  14.0545  11.6419   C.1       1 RES1   0.0000
     5 C5      13.0397  13.9220  14.1413   C.1       1 RES1   0.0000
     6 Fe1     11.6540  12.9579  13.1758   Fe        1 RES1   0.0000
     7 N1      10.5184  13.9567  13.7534   N.2       1 RES1  -2.0000
     8 N2      11.3440  11.0424  15.5504   N.1       1 RES1   0.0000
     9 N3       9.7283  11.1924  11.5449   N.1       1 RES1   0.0000
    10 N4      13.9236  11.1863  12.1061   N.1       1 RES1   0.0000
    11 N5      12.2001  14.6886  10.7053   N.1       1 RES1   0.0000
    12 N6      13.7492  14.5243  14.7648   N.1       1 RES1   0.0000
    13 O1       9.7884  14.6079  14.2555   O.2       1 RES1   0.0000
    14 C6       2.8686  10.0808   7.9528   C.3       2 RES2   0.0000
    15 C7       3.4243   9.9439   6.5277   C.3       2 RES2   0.0000
    16 H1       4.3917   9.9405   6.5940   H         2 RES2   0.0000
    17 H2       3.1782  10.7482   6.0429   H         2 RES2   0.0000
    18 C8       3.0210   8.7444   5.6566   C.3       2 RES2   0.0000
    19 H3       2.0474   8.6342   5.6901   H         2 RES2   0.0000
    20 C9       3.8971   7.5812  10.7673   C.3       2 RES2   0.0000
    21 H4       3.9542   7.5874  11.7362   H         2 RES2   0.0000
    22 H5       4.7896   7.6584  10.3966   H         2 RES2   0.0000
    23 H6       2.1630   8.3648  10.0455   H         2 RES2   0.0000
    24 H7       3.0612   9.4534  10.7023   H         2 RES2   0.0000
    25 C10      3.0086   8.6782  10.2714   C.3       2 RES2   0.0000
    26 C11      1.3537   9.8961   7.9434   C.3       2 RES2   0.0000
    27 H8       1.0504   9.6998   8.8327   H         2 RES2   0.0000
    28 H9       1.1231   9.1704   7.3581   H         2 RES2   0.0000
    29 H10      0.9353  10.7029   7.6329   H         2 RES2   0.0000
    30 C12      3.3457  11.3247   8.5920   C.3       2 RES2   0.0000
    31 H11      4.3059  11.3264   8.6132   H         2 RES2   0.0000
    32 H12      3.0061  11.3748   9.4894   H         2 RES2   0.0000
    33 H13      3.0358  12.0815   8.0897   H         2 RES2   0.0000
    34 C13      3.4409   8.9723   4.2435   C.3       2 RES2   0.0000
    35 H14      3.0268   8.3179   3.6774   H         2 RES2   0.0000
    36 H15      4.3955   8.8954   4.1765   H         2 RES2   0.0000
    37 H16      3.1707   9.8517   3.9668   H         2 RES2   0.0000
    38 N7       3.4370   9.1152   8.9399   N.4       2 RES2   1.0000
    39 H17      3.2475   8.3543   8.4961   H         2 RES2   0.0000
    40 H18      4.3312   9.2159   8.9367   H         2 RES2   0.0000
    41 N8       3.6766   7.4345   5.9813   N.3       2 RES2   0.0000
    42 H19      4.5694   7.4839   5.8803   H         2 RES2   0.0000
    43 C6A      4.0209   3.7079   8.3046   C.3       2 RES2   0.0000
    44 C7A      3.4652   3.8448   9.7297   C.3       2 RES2   0.0000
    45 H1A      2.4978   3.8482   9.6634   H         2 RES2   0.0000
    46 H2A      3.7113   3.0405  10.2145   H         2 RES2   0.0000
    47 C8A      3.8684   5.0443  10.6008   C.3       2 RES2   0.0000
    48 H3A      4.8421   5.1545  10.5673   H         2 RES2   0.0000
    49 C9A      2.9924   6.2075   5.4901   C.3       2 RES2   0.0000
    50 H4A      2.9353   6.2013   4.5212   H         2 RES2   0.0000
    51 H5A      2.0998   6.1303   5.8608   H         2 RES2   0.0000
    52 H6A      4.7265   5.4239   6.2120   H         2 RES2   0.0000
    53 H7A      3.8283   4.3352   5.5552   H         2 RES2   0.0000
    54 C10A     3.8808   5.1105   5.9860   C.3       2 RES2   0.0000
    55 C11A     5.5357   3.8926   8.3140   C.3       2 RES2   0.0000
    56 H8A      5.8391   4.0889   7.4248   H         2 RES2   0.0000
    57 H9A      5.7664   4.6183   8.8993   H         2 RES2   0.0000
    58 H10A     5.9542   3.0858   8.6246   H         2 RES2   0.0000
    59 C12A     3.5437   2.4639   7.6654   C.3       2 RES2   0.0000
    60 H11A     2.5835   2.4623   7.6442   H         2 RES2   0.0000
    61 H12A     3.8833   2.4139   6.7680   H         2 RES2   0.0000
    62 H13A     3.8537   1.7072   8.1677   H         2 RES2   0.0000
    63 C13A     3.4485   4.8163  12.0139   C.3       2 RES2   0.0000
    64 H14A     3.8627   5.4708  12.5800   H         2 RES2   0.0000
    65 H15A     2.4939   4.8932  12.0809   H         2 RES2   0.0000
    66 H16A     3.7188   3.9370  12.2906   H         2 RES2   0.0000
    67 N7A      3.4524   4.6735   7.3175   N.4       2 RES2   1.0000
    68 H17A     3.6419   5.4344   7.7613   H         2 RES2   0.0000
    69 H18A     2.5582   4.5728   7.3207   H         2 RES2   0.0000
    70 N8A      3.2128   6.3542  10.2761   N.3       2 RES2   0.0000
    71 H19A     2.3201   6.3048  10.3771   H         2 RES2   0.0000
    72 C14     15.5955  16.7392  16.8345   C.3       3 RES3   0.0000
    73 C15     16.1362  17.9907  17.5481   C.3       3 RES3   0.0000
    74 H20     16.3972  18.6330  16.8703   H         3 RES3   0.0000
    75 H21     16.9398  17.7374  18.0295   H         3 RES3   0.0000
    76 C16     15.1927  18.7015  18.5380   C.3       3 RES3   0.0000
    77 H22     14.8630  18.0614  19.2033   H         3 RES3   0.0000
    78 C17     13.5670  17.9964  13.8220   C.3       3 RES3   0.0000
    79 H23     13.4517  17.1859  13.3018   H         3 RES3   0.0000
    80 H24     13.7528  18.7267  13.2108   H         3 RES3   0.0000
    81 H25     15.5342  17.6547  14.2529   H         3 RES3   0.0000
    82 H26     14.8677  18.7006  15.2169   H         3 RES3   0.0000
    83 C18     14.7029  17.8315  14.7793   C.3       3 RES3   0.0000
    84 C19     16.7494  16.1359  16.0306   C.3       3 RES3   0.0000
    85 H27     16.4111  15.4474  15.4527   H         3 RES3   0.0000
    86 H28     17.3957  15.7583  16.6313   H         3 RES3   0.0000
    87 H29     17.1646  16.8211  15.5031   H         3 RES3   0.0000
    88 C20     15.1292  15.7090  17.8594   C.3       3 RES3   0.0000
    89 H30     15.0885  14.8427  17.4475   H         3 RES3   0.0000
    90 H31     14.2590  15.9501  18.1839   H         3 RES3   0.0000
    91 H32     15.7489  15.6849  18.5936   H         3 RES3   0.0000
    92 C21     15.9027  19.8599  19.2390   C.3       3 RES3   0.0000
    93 H33     16.0561  20.5686  18.6082   H         3 RES3   0.0000
    94 H34     16.7430  19.5558  19.5886   H         3 RES3   0.0000
    95 H35     15.3538  20.1839  19.9560   H         3 RES3   0.0000
    96 N9      14.4777  16.7847  15.8250   N.4       3 RES3   1.0000
    97 H36     14.1018  16.0099  15.5632   H         3 RES3   0.0000
    98 H37     13.8688  17.2222  16.3241   H         3 RES3   0.0000
    99 N10     14.0370  19.4360  17.9183   N.3       3 RES3   0.0000
   100 H38     14.3127  20.0917  17.3678   H         3 RES3   0.0000
   101 C14A    10.7647  20.9825  15.6803   C.3       3 RES3   0.0000
   102 C15A    10.2240  19.7310  14.9667   C.3       3 RES3   0.0000
   103 H20A     9.9630  19.0886  15.6445   H         3 RES3   0.0000
   104 H21A     9.4204  19.9842  14.4854   H         3 RES3   0.0000
   105 C16A    11.1675  19.0201  13.9768   C.3       3 RES3   0.0000
   106 H22A    11.4972  19.6602  13.3116   H         3 RES3   0.0000
   107 C17A    12.7932  19.7253  18.6928   C.3       3 RES3   0.0000
   108 H23A    12.9085  20.5358  19.2130   H         3 RES3   0.0000
   109 H24A    12.6074  18.9950  19.3040   H         3 RES3   0.0000
   110 H25A    10.8260  20.0669  18.2619   H         3 RES3   0.0000
   111 H26A    11.4925  19.0210  17.2979   H         3 RES3   0.0000
   112 C18A    11.6573  19.8901  17.7355   C.3       3 RES3   0.0000
   113 C19A     9.6108  21.5857  16.4842   C.3       3 RES3   0.0000
   114 H27A     9.9491  22.2742  17.0622   H         3 RES3   0.0000
   115 H28A     8.9645  21.9633  15.8835   H         3 RES3   0.0000
   116 H29A     9.1956  20.9005  17.0118   H         3 RES3   0.0000
   117 C20A    11.2310  22.0126  14.6554   C.3       3 RES3   0.0000
   118 H30A    11.2717  22.8790  15.0674   H         3 RES3   0.0000
   119 H31A    12.1012  21.7715  14.3309   H         3 RES3   0.0000
   120 H32A    10.6113  22.0367  13.9212   H         3 RES3   0.0000
   121 C21A    10.4575  17.8617  13.2758   C.3       3 RES3   0.0000
   122 H33A    10.3041  17.1530  13.9066   H         3 RES3   0.0000
   123 H34A     9.6172  18.1658  12.9263   H         3 RES3   0.0000
   124 H35A    11.0064  17.5377  12.5588   H         3 RES3   0.0000
   125 N9A     11.8825  20.9369  16.6899   N.4       3 RES3   1.0000
   126 H36A    12.2584  21.7118  16.9516   H         3 RES3   0.0000
   127 H37A    12.4914  20.4994  16.1908   H         3 RES3   0.0000
   128 N10A    12.3232  18.2856  14.5966   N.3       3 RES3   0.0000
   129 H38A    12.0475  17.6299  15.1470   H         3 RES3   0.0000
   130 O2       7.2487  10.2231  10.5382   O.3       4 RES4   0.0000
   131 H39      8.0772  10.3013  10.7104   H         4 RES4   0.0000
   132 H40      6.8201  10.1002  11.2615   H         4 RES4   0.0000
   133 O3       6.2619   8.8527   8.5247   O.3       5 RES5   0.0000
   134 H41      6.5786   9.2892   9.1822   H         5 RES5   0.0000
   135 H42      6.8975   8.5995   8.0198   H         5 RES5   0.0000
@<TRIPOS>BOND
     1     1     6    1
     2     2     6    1
     3     3     6    1
     4     4     6    1
     5     5     6    1
     6     6     7    2
     7     7    13    2
     8     8     1    3
     9     9     2    3
    10    10     3    3
    11    11     4    3
    12    12     5    3
    13    14    15    1
    14    15    16    1
    15    17    15    1
    16    18    15    1
    17    19    18    1
    18    20    21    1
    19    22    20    1
    20    23    25    1
    21    24    25    1
    22    25    20    1
    23    26    14    1
    24    27    26    1
    25    28    26    1
    26    29    26    1
    27    30    14    1
    28    31    30    1
    29    32    30    1
    30    33    30    1
    31    34    18    1
    32    35    34    1
    33    36    34    1
    34    37    34    1
    35    38    14    1
    36    39    38    1
    37    40    38    1
    38    41    18    1
    39    42    41    1
    40    43    44    1
    41    44    45    1
    42    46    44    1
    43    47    44    1
    44    48    47    1
    45    49    41    1
    46    50    49    1
    47    51    49    1
    48    52    54    1
    49    53    54    1
    50    54    49    1
    51    55    43    1
    52    56    55    1
    53    57    55    1
    54    58    55    1
    55    59    43    1
    56    60    59    1
    57    61    59    1
    58    62    59    1
    59    63    47    1
    60    64    63    1
    61    65    63    1
    62    66    63    1
    63    67    43    1
    64    68    67    1
    65    69    67    1
    66    70    20    1
    67    71    70    1
    68    25    38    1
    69    47    70    1
    70    54    67    1
    71    72    73    1
    72    73    74    1
    73    75    73    1
    74    76    73    1
    75    77    76    1
    76    78    79    1
    77    80    78    1
    78    81    83    1
    79    82    83    1
    80    83    78    1
    81    84    72    1
    82    85    84    1
    83    86    84    1
    84    87    84    1
    85    88    72    1
    86    89    88    1
    87    90    88    1
    88    91    88    1
    89    92    76    1
    90    93    92    1
    91    94    92    1
    92    95    92    1
    93    96    72    1
    94    97    96    1
    95    98    96    1
    96    99    76    1
    97   100    99    1
    98   101   102    1
    99   102   103    1
   100   104   102    1
   101   105   102    1
   102   106   105    1
   103   107    99    1
   104   108   107    1
   105   109   107    1
   106   110   112    1
   107   111   112    1
   108   112   107    1
   109   113   101    1
   110   114   113    1
   111   115   113    1
   112   116   113    1
   113   117   101    1
   114   118   117    1
   115   119   117    1
   116   120   117    1
   117   121   105    1
   118   122   121    1
   119   123   121    1
   120   124   121    1
   121   125   101    1
   122   126   125    1
   123   127   125    1
   124   128    78    1
   125   129   128    1
   126    83    96    1
   127   105   128    1
   128   112   125    1
   129   130   131    1
   130   132   130    1
   131   133   134    1
   132   135   133    1
@<TRIPOS>SUBSTRUCTURE
     1 RES1        1 GROUP             0 ****  ****    0  
     2 RES2       14 GROUP             0 ****  ****    0  
     3 RES3       72 GROUP             0 ****  ****    0  
     4 RES4      130 GROUP             0 ****  ****    0  
     5 RES5      133 GROUP             0 ****  ****    0  
@<TRIPOS>CRYSIN
    8.9527   10.7737   16.9770   74.5250   78.9260   70.3180     2     1
