@<TRIPOS>MOLECULE
UCOQEK
   100   100     2     0     0
SMALL
USER_CHARGES
****
Generated from the CSD

@<TRIPOS>ATOM
     1 Fe1      5.4799   0.0000   0.0000   Fe        1 RES1   2.0000
     2 O1       3.6382   1.0691   0.0587   O.3       1 RES1   0.0000
     3 H1       3.4606   1.4020   0.8286   H         1 RES1   0.0000
     4 H2       3.6128   1.7445  -0.4719   H         1 RES1   0.0000
     5 C1       6.4178   5.0189   1.9426   C.2       1 RES1   0.0000
     6 C2       6.2923   6.1766   2.6904   C.2       1 RES1   0.0000
     7 C3       5.3883   5.1386   2.8585   C.2       1 RES1   0.0000
     8 C4       7.0641   4.2509   0.9580   C.2       1 RES1  -1.0000
     9 C5       6.7229   2.8914   0.8075   C.1       1 RES1   0.0000
    10 N1       6.4620   1.7713   0.7295   N.1       1 RES1   0.0000
    11 C6       8.0804   4.8120   0.1470   C.1       1 RES1   0.0000
    12 N2       8.8958   5.2927  -0.5077   N.1       1 RES1   0.0000
    13 C7       6.7026   7.4791   3.0206   C.2       1 RES1   0.0000
    14 C8       6.0673   8.1596   4.0808   C.1       1 RES1   0.0000
    15 N3       5.5290   8.6933   4.9510   N.1       1 RES1   0.0000
    16 C9       7.7585   8.1201   2.3175   C.1       1 RES1   0.0000
    17 N4       8.6013   8.6336   1.7211   N.1       1 RES1   0.0000
    18 C10      4.2237   4.6489   3.4546   C.2       1 RES1  -1.0000
    19 C11      3.6419   3.4371   2.9997   C.1       1 RES1   0.0000
    20 N5       3.2109   2.4508   2.5813   N.1       1 RES1   0.0000
    21 C12      3.5654   5.4673   4.4032   C.1       1 RES1   0.0000
    22 N6       3.0937   6.2050   5.1510   N.1       1 RES1   0.0000
    23 Fe1A     5.0535   9.4096   6.9394   Fe        1 RES1   2.0000
    24 Fe1A     5.9063  -9.4096  -6.9394   Fe        1 RES1   2.0000
    25 O1B      7.3216  -1.0691  -0.0587   O.3       1 RES1   0.0000
    26 H1B      7.4992  -1.4020  -0.8286   H         1 RES1   0.0000
    27 H2B      7.3470  -1.7445   0.4719   H         1 RES1   0.0000
    28 C1B      4.5420  -5.0189  -1.9426   C.2       1 RES1   0.0000
    29 C2B      4.6675  -6.1766  -2.6904   C.2       1 RES1   0.0000
    30 C3B      5.5715  -5.1386  -2.8585   C.2       1 RES1   0.0000
    31 C4B      3.8957  -4.2509  -0.9580   C.2       1 RES1  -1.0000
    32 C5B      4.2369  -2.8914  -0.8075   C.1       1 RES1   0.0000
    33 N1B      4.4978  -1.7713  -0.7295   N.1       1 RES1   0.0000
    34 C6B      2.8794  -4.8120  -0.1470   C.1       1 RES1   0.0000
    35 N2B      2.0640  -5.2927   0.5077   N.1       1 RES1   0.0000
    36 C7B      4.2572  -7.4791  -3.0206   C.2       1 RES1  -1.0000
    37 C8B      4.8925  -8.1596  -4.0808   C.1       1 RES1   0.0000
    38 N3B      5.4308  -8.6933  -4.9510   N.1       1 RES1   0.0000
    39 N3A      5.0044  -0.7163   1.9884   N.3       1 RES1   0.0000
    40 N3C      5.9554   0.7163  -1.9884   N.3       1 RES1   0.0000
    41 C9B      3.2013  -8.1201  -2.3175   C.1       1 RES1   0.0000
    42 N4B      2.3585  -8.6336  -1.7211   N.1       1 RES1   0.0000
    43 C10B     6.7361  -4.6489  -3.4546   C.2       1 RES1   0.0000
    44 C11B     7.3179  -3.4371  -2.9997   C.1       1 RES1   0.0000
    45 N5B      7.7489  -2.4508  -2.5813   N.1       1 RES1   0.0000
    46 C12B     7.3944  -5.4673  -4.4032   C.1       1 RES1   0.0000
    47 N6B      7.8661  -6.2050  -5.1510   N.1       1 RES1   0.0000
    48 N7       8.9393   0.2834   4.1574   N.4       2 RES2   1.0000
    49 C13      9.2408  -0.3173   2.7923   C.3       2 RES2   0.0000
    50 H3       8.7425  -1.1687   2.7133   H         2 RES2   0.0000
    51 H4       8.8875   0.2973   2.1012   H         2 RES2   0.0000
    52 C14     10.6991  -0.5934   2.4774   C.3       2 RES2   0.0000
    53 H5      11.1224  -1.0633   3.2393   H         2 RES2   0.0000
    54 H6      11.1780   0.2616   2.3358   H         2 RES2   0.0000
    55 C15     10.7973  -1.4538   1.2215   C.3       2 RES2   0.0000
    56 H7      10.3292  -2.3110   1.3795   H         2 RES2   0.0000
    57 H8      10.3398  -0.9918   0.4760   H         2 RES2   0.0000
    58 C16     12.2401  -1.7402   0.8197   C.3       2 RES2   0.0000
    59 H9      12.7053  -0.8958   0.6481   H         2 RES2   0.0000
    60 H10     12.2504  -2.2884   0.0083   H         2 RES2   0.0000
    61 H11     12.6919  -2.2207   1.5447   H         2 RES2   0.0000
    62 C17      9.7347   1.5545   4.3954   C.3       2 RES2   0.0000
    63 H12      9.5631   1.8556   5.3225   H         2 RES2   0.0000
    64 H13     10.6969   1.3324   4.3316   H         2 RES2   0.0000
    65 C18      9.4581   2.7163   3.4641   C.3       2 RES2   0.0000
    66 H14      8.5365   3.0487   3.6043   H         2 RES2   0.0000
    67 H15      9.5422   2.4220   2.5232   H         2 RES2   0.0000
    68 C19     10.4625   3.8284   3.7520   C.3       2 RES2   0.0000
    69 H16     10.5343   3.9558   4.7313   H         2 RES2   0.0000
    70 H17     11.3527   3.5568   3.4156   H         2 RES2   0.0000
    71 C20     10.0664   5.1459   3.1055   C.3       2 RES2   0.0000
    72 H18     10.0155   5.0303   2.1332   H         2 RES2   0.0000
    73 H19     10.7361   5.8283   3.3198   H         2 RES2   0.0000
    74 H20      9.1917   5.4274   3.4475   H         2 RES2   0.0000
    75 C21      7.4423   0.5467   4.1595   C.3       2 RES2   0.0000
    76 H21      7.2330   1.1423   3.3975   H         2 RES2   0.0000
    77 H22      6.9779  -0.3124   3.9985   H         2 RES2   0.0000
    78 C22      6.8652   1.1670   5.4152   C.3       2 RES2   0.0000
    79 H23      7.2862   2.0475   5.5806   H         2 RES2   0.0000
    80 H24      7.0491   0.5834   6.1941   H         2 RES2   0.0000
    81 C23      5.3689   1.3365   5.2389   C.3       2 RES2   0.0000
    82 H25      5.2022   1.7935   4.3774   H         2 RES2   0.0000
    83 H26      4.9530   0.4404   5.1865   H         2 RES2   0.0000
    84 C24      4.6915   2.1173   6.3367   C.3       2 RES2   0.0000
    85 H27      4.8481   1.6749   7.1975   H         2 RES2   0.0000
    86 H28      3.7281   2.1586   6.1608   H         2 RES2   0.0000
    87 H29      5.0581   3.0261   6.3662   H         2 RES2   0.0000
    88 C25      9.3254  -0.6572   5.2884   C.3       2 RES2   0.0000
    89 H30     10.3059  -0.7923   5.2559   H         2 RES2   0.0000
    90 H31      9.1191  -0.2089   6.1455   H         2 RES2   0.0000
    91 C26      8.6616  -2.0206   5.2978   C.3       2 RES2   0.0000
    92 H32      8.8624  -2.4992   4.4551   H         2 RES2   0.0000
    93 H33      7.6795  -1.9158   5.3697   H         2 RES2   0.0000
    94 C27      9.1876  -2.8219   6.4872   C.3       2 RES2   0.0000
    95 H34     10.1771  -2.8323   6.4592   H         2 RES2   0.0000
    96 H35      8.9139  -2.3731   7.3266   H         2 RES2   0.0000
    97 C28      8.6745  -4.2507   6.4958   C.3       2 RES2   0.0000
    98 H36      7.6957  -4.2456   6.5508   H         2 RES2   0.0000
    99 H37      9.0423  -4.7255   7.2697   H         2 RES2   0.0000
   100 H38      8.9542  -4.7029   5.6722   H         2 RES2   0.0000
@<TRIPOS>BOND
     1     1     2    1
     2     2     3    1
     3     4     2    1
     4     5     6    1
     5     6     7    1
     6     7     5    2
     7     8     5    1
     8     9     8    1
     9    10     1    1
    10    11     8    1
    11    12    11    3
    12    13     6    2
    13    14    13    1
    14    15    14    3
    15    16    13    1
    16    17    16    3
    17    18     7    1
    18    19    18    1
    19    20    19    3
    20    21    18    1
    21    22    21    3
    22    23    15   un
    23    24    38   un
    24    25     1    1
    25    26    25    1
    26    27    25    1
    27    28    29    2
    28    29    30    1
    29    30    28    1
    30    31    28    1
    31    32    31    1
    32    33     1    1
    33    34    31    1
    34    35    34    3
    35    36    29    1
    36    37    36    1
    37    38    37    3
    38    39     1   un
    39    40     1   un
    40    41    36    1
    41    42    41    3
    42    43    30    2
    43    44    43    1
    44    45    44    3
    45    46    43    1
    46    47    46    3
    47     9    10    3
    48    32    33    3
    49    48    49    1
    50    49    50    1
    51    51    49    1
    52    52    49    1
    53    53    52    1
    54    54    52    1
    55    55    52    1
    56    56    55    1
    57    57    55    1
    58    58    55    1
    59    59    58    1
    60    60    58    1
    61    61    58    1
    62    62    48    1
    63    63    62    1
    64    64    62    1
    65    65    62    1
    66    66    65    1
    67    67    65    1
    68    68    65    1
    69    69    68    1
    70    70    68    1
    71    71    68    1
    72    72    71    1
    73    73    71    1
    74    74    71    1
    75    75    48    1
    76    76    75    1
    77    77    75    1
    78    78    75    1
    79    79    78    1
    80    80    78    1
    81    81    78    1
    82    82    81    1
    83    83    81    1
    84    84    81    1
    85    85    84    1
    86    86    84    1
    87    87    84    1
    88    88    48    1
    89    89    88    1
    90    90    88    1
    91    91    88    1
    92    92    91    1
    93    93    91    1
    94    94    91    1
    95    95    94    1
    96    96    94    1
    97    97    94    1
    98    98    97    1
    99    99    97    1
   100   100    97    1
@<TRIPOS>SUBSTRUCTURE
     1 RES1        1 GROUP             0 ****  ****    0  
     2 RES2       48 GROUP             0 ****  ****    0  
@<TRIPOS>CRYSIN
   10.9598   18.8191   13.9049   90.0000   93.5160   90.0000    14     1
