@<TRIPOS>MOLECULE
UCUSOE
   110   119     1     0     0
SMALL
NO_CHARGES
****
Generated from the CSD

@<TRIPOS>ATOM
     1 Fe1     19.6094   1.9447   4.3098   Fe        1 RES1   0.0000
     2 C1      10.5945  -6.1129  -4.8952   C.2       1 RES1   0.0000
     3 C2      11.0484  -4.8398  -4.2856   C.ar      1 RES1   0.0000
     4 C3      12.1459  -4.7695  -3.4814   C.ar      1 RES1   0.0000
     5 H1      12.6258  -5.5413  -3.2845   H         1 RES1   0.0000
     6 C4      10.3476  -3.6880  -4.5561   C.ar      1 RES1   0.0000
     7 H2       9.5946  -3.7268  -5.1006   H         1 RES1   0.0000
     8 C5      10.7430  -2.4849  -4.0354   C.ar      1 RES1   0.0000
     9 H3      10.2542  -1.7148  -4.2166   H         1 RES1   0.0000
    10 C6      12.5467  -3.5634  -2.9601   C.ar      1 RES1   0.0000
    11 H4      13.2932  -3.5288  -2.4065   H         1 RES1   0.0000
    12 C7      11.8678  -2.4194  -3.2418   C.ar      1 RES1   0.0000
    13 C8      12.3178  -1.1032  -2.7324   C.ar      1 RES1   0.0000
    14 C9      12.1934   1.1410  -2.8077   C.ar      1 RES1   0.0000
    15 C10     13.6503   0.1439  -1.4353   C.ar      1 RES1   0.0000
    16 C11     11.5959   2.3412  -3.4034   C.ar      1 RES1   0.0000
    17 C12     10.3102   2.2641  -3.8915   C.ar      1 RES1   0.0000
    18 H5       9.8265   1.4740  -3.8098   H         1 RES1   0.0000
    19 C13      9.7459   3.3573  -4.4989   C.ar      1 RES1   0.0000
    20 H6       8.8651   3.3119  -4.7940   H         1 RES1   0.0000
    21 C14     10.4557   4.5137  -4.6778   C.ar      1 RES1   0.0000
    22 C15      9.8583   5.6402  -5.4541   C.2       1 RES1   0.0000
    23 C16     11.7391   4.5987  -4.1906   C.ar      1 RES1   0.0000
    24 H7      12.2273   5.3825  -4.3013   H         1 RES1   0.0000
    25 C17     12.3001   3.5253  -3.5400   C.ar      1 RES1   0.0000
    26 H8      13.1587   3.5952  -3.1893   H         1 RES1   0.0000
    27 C18     14.6733   0.2161  -0.3808   C.ar      1 RES1   0.0000
    28 C19     15.2301  -0.9419   0.1201   C.ar      1 RES1   0.0000
    29 H9      14.9518  -1.7673  -0.2058   H         1 RES1   0.0000
    30 C20     16.1874  -0.8833   1.0920   C.ar      1 RES1   0.0000
    31 H10     16.5592  -1.6706   1.4192   H         1 RES1   0.0000
    32 C21     16.6096   0.3300   1.5946   C.ar      1 RES1   0.0000
    33 C22     15.0993   1.4420   0.1153   C.ar      1 RES1   0.0000
    34 H11     14.7349   2.2306  -0.2168   H         1 RES1   0.0000
    35 C23     16.0580   1.4878   1.0957   C.ar      1 RES1   0.0000
    36 H12     16.3383   2.3106   1.4267   H         1 RES1   0.0000
    37 C24     17.6787   0.3499   2.6464   C.2       1 RES1   0.0000
    38 C25     22.2114   1.5591   2.6349   C.2       1 RES1   0.0000
    39 H13     22.6721   1.2173   3.3670   H         1 RES1   0.0000
    40 C26     20.6700   2.2785   1.3738   C.2       1 RES1   0.0000
    41 H14     19.8277   2.5267   1.0678   H         1 RES1   0.0000
    42 C27     21.7891   2.3372   0.6575   C.2       1 RES1   0.0000
    43 H15     21.8781   2.6415  -0.2170   H         1 RES1   0.0000
    44 C28     24.1615   1.8271   1.1927   C.ar      1 RES1   0.0000
    45 C29     24.9088   0.7564   1.5790   C.ar      1 RES1   0.0000
    46 H16     24.4994   0.0324   1.9952   H         1 RES1   0.0000
    47 C30     26.2494   0.7404   1.3598   C.ar      1 RES1   0.0000
    48 H17     26.7521   0.0004   1.6141   H         1 RES1   0.0000
    49 C31     26.8688   1.8222   0.7586   C.ar      1 RES1   0.0000
    50 C32     26.0967   2.8962   0.3771   C.ar      1 RES1   0.0000
    51 H18     26.4998   3.6307  -0.0267   H         1 RES1   0.0000
    52 C33     24.7515   2.8975   0.5829   C.ar      1 RES1   0.0000
    53 H19     24.2370   3.6226   0.3101   H         1 RES1   0.0000
    54 C34     29.0146   0.7591   2.5267   C.ar      1 RES1   0.0000
    55 H20     28.3670   1.2132   3.0160   H         1 RES1   0.0000
    56 C35     29.8209  -0.1520   3.1562   C.ar      1 RES1   0.0000
    57 H21     29.7154  -0.3211   4.0647   H         1 RES1   0.0000
    58 C36     30.7784  -0.8089   2.4427   C.ar      1 RES1   0.0000
    59 C37     30.9957  -0.4782   1.1415   C.ar      1 RES1   0.0000
    60 H22     31.7000  -0.8686   0.6761   H         1 RES1   0.0000
    61 C38     29.1484   1.0126   1.1802   C.ar      1 RES1   0.0000
    62 C39     30.1809   0.4286   0.5126   C.ar      1 RES1   0.0000
    63 H23     30.3354   0.6464  -0.3782   H         1 RES1   0.0000
    64 C40     31.0943  -3.0285   3.4933   C.2       1 RES1   0.0000
    65 H24     30.1915  -3.2469   3.5396   H         1 RES1   0.0000
    66 C41     33.1837  -3.1109   3.6359   C.2       1 RES1   0.0000
    67 H25     34.0422  -3.4172   3.8202   H         1 RES1   0.0000
    68 C42     32.9007  -1.9148   3.1192   C.2       1 RES1   0.0000
    69 H26     33.5094  -1.2593   2.8653   H         1 RES1   0.0000
    70 C43     28.6896   2.6123  -0.5945   C.ar      1 RES1   0.0000
    71 C44     29.4471   3.7191  -0.3886   C.ar      1 RES1   0.0000
    72 H27     29.7251   3.9377   0.4715   H         1 RES1   0.0000
    73 C45     29.8023   4.5140  -1.4440   C.ar      1 RES1   0.0000
    74 H28     30.3200   5.2740  -1.3049   H         1 RES1   0.0000
    75 C46     29.3935   4.1848  -2.6951   C.ar      1 RES1   0.0000
    76 C47     28.6602   3.0587  -2.9159   C.ar      1 RES1   0.0000
    77 H29     28.3993   2.8324  -3.7795   H         1 RES1   0.0000
    78 C48     28.3090   2.2607  -1.8587   C.ar      1 RES1   0.0000
    79 H30     27.8153   1.4855  -2.0008   H         1 RES1   0.0000
    80 C49     30.6790   4.8496  -4.6755   C.2       1 RES1   0.0000
    81 H31     31.2592   4.1228  -4.6681   H         1 RES1   0.0000
    82 C50     29.0883   6.1811  -4.1528   C.2       1 RES1   0.0000
    83 H32     28.3577   6.5696  -3.7282   H         1 RES1   0.0000
    84 C51     29.7144   6.6402  -5.2346   C.2       1 RES1   0.0000
    85 H33     29.4941   7.4189  -5.6929   H         1 RES1   0.0000
    86 N1      13.2850  -1.0780  -1.8289   N.ar      1 RES1   0.0000
    87 N2      11.7235  -0.0248  -3.2267   N.ar      1 RES1   0.0000
    88 N3      13.1669   1.2901  -1.9138   N.ar      1 RES1   0.0000
    89 N4      20.9373   1.8006   2.6198   N.2       1 RES1   0.0000
    90 N5      22.7771   1.8645   1.4639   N.pl3     1 RES1   0.0000
    91 N6      28.2427   1.8523   0.5209   N.pl3     1 RES1   0.0000
    92 N7      31.5507  -1.8444   3.0377   N.pl3     1 RES1   0.0000
    93 N8      32.0380  -3.8265   3.8586   N.2       1 RES1   0.0000
    94 N9      29.7216   5.0375  -3.7899   N.pl3     1 RES1   0.0000
    95 N10     30.7164   5.8026  -5.5625   N.2       1 RES1   0.0000
    96 O1      18.0689   1.4842   3.0139   O.co2     1 RES1   0.0000
    97 O2      18.0981  -0.7318   3.0434   O.co2     1 RES1   0.0000
    98 O3      11.2856  -7.1498  -4.5277   O.3       1 RES1   0.0000
    99 O4       9.6664  -6.1615  -5.6495   O.2       1 RES1   0.0000
   100 O5      10.5496   6.6230  -5.7378   O.co2     1 RES1   0.0000
   101 O6       8.6817   5.4805  -5.8051   O.co2     1 RES1   0.0000
   102 O7      19.8657  -0.1595   4.8501   O.3       1 RES1   0.0000
   103 H34     11.0462  -7.8431  -4.9614   H         1 RES1   0.0000
   104 H35     20.6285  -0.5077   4.7920   H         1 RES1   0.0000
   105 Fe1B    32.0754  -5.9888   4.3098   Fe        1 RES1   0.0000
   106 Fe1G     7.2212   5.9888  -7.1324   Fe        1 RES1   0.0000
   107 Fe1G    32.1532   5.9888  -7.1324   Fe        1 RES1   0.0000
   108 N8B     19.5720   4.1070   3.8586   N.3       1 RES1   0.0000
   109 N10G    18.1726   2.1309   5.8797   N.3       1 RES1   0.0000
   110 O6G     21.0698   2.4530   5.6371   O.2       1 RES1   0.0000
@<TRIPOS>BOND
     1     1    89    1
     2     2     3    1
     3     3     4   ar
     4     4     5    1
     5     6     3   ar
     6     7     6    1
     7     8     6   ar
     8     9     8    1
     9    10     4   ar
    10    11    10    1
    11    12     8   ar
    12    13    12    1
    13    14    16    1
    14    15    27    1
    15    16    17   ar
    16    17    18    1
    17    19    17   ar
    18    20    19    1
    19    21    19   ar
    20    22    21    1
    21    23    21   ar
    22    24    23    1
    23    25    16   ar
    24    26    25    1
    25    27    28   ar
    26    28    29    1
    27    30    28   ar
    28    31    30    1
    29    32    30   ar
    30    33    27   ar
    31    34    33    1
    32    35    32   ar
    33    36    35    1
    34    37    32    1
    35    38    39    1
    36    40    41    1
    37    42    40    2
    38    43    42    1
    39    44    45   ar
    40    45    46    1
    41    47    45   ar
    42    48    47    1
    43    49    47   ar
    44    50    49   ar
    45    51    50    1
    46    52    44   ar
    47    53    52    1
    48    54    55    1
    49    56    54   ar
    50    57    56    1
    51    58    56   ar
    52    59    58   ar
    53    60    59    1
    54    61    54   ar
    55    62    59   ar
    56    63    62    1
    57    64    65    1
    58    66    67    1
    59    68    66    2
    60    69    68    1
    61    70    71   ar
    62    71    72    1
    63    73    71   ar
    64    74    73    1
    65    75    73   ar
    66    76    75   ar
    67    77    76    1
    68    78    70   ar
    69    79    78    1
    70    80    81    1
    71    82    83    1
    72    84    82    2
    73    85    84    1
    74    86    13   ar
    75    87    13   ar
    76    88    14   ar
    77    89    38    2
    78    90    38    1
    79    91    49    1
    80    92    58    1
    81    93    64    2
    82    94    75    1
    83    95    80    2
    84    96     1    1
    85    97    37    2
    86    98     2    1
    87    99     2    2
    88   100    22    2
    89   101    22    1
    90   102     1    1
    91   103    98    1
    92   104   102    1
    93   105    93   un
    94   106   101   un
    95   107    95   un
    96   108     1   un
    97   109     1   un
    98   110     1   un
    99    10    12   ar
   100    14    87   ar
   101    15    86   ar
   102    15    88   ar
   103    23    25   ar
   104    33    35   ar
   105    37    96    1
   106    40    89    1
   107    42    90    1
   108    44    90    1
   109    50    52   ar
   110    61    62   ar
   111    61    91    1
   112    64    92    1
   113    66    93    1
   114    68    92    1
   115    70    91    1
   116    76    78   ar
   117    80    94    1
   118    82    94    1
   119    84    95    1
@<TRIPOS>SUBSTRUCTURE
     1 RES1        1 GROUP             0 ****  ****    0  
@<TRIPOS>CRYSIN
   24.9320   15.8670   22.8850   90.0000   90.3900   90.0000    15     1
