@<TRIPOS>MOLECULE
UDUQAL
   112   121     1     0     0
SMALL
NO_CHARGES
****
Generated from the CSD

@<TRIPOS>ATOM
     1 Sn1      3.6736   4.7660  15.2029   Sn        1 RES1   0.0000
     2 C1       4.1782   6.5662  14.0974   C.ar      1 RES1   0.0000
     3 C2       4.1206   6.5058  12.7211   C.ar      1 RES1   0.0000
     4 H1       3.8803   5.7024  12.3214   H         1 RES1   0.0000
     5 C3       4.4041   7.5819  11.9198   C.ar      1 RES1   0.0000
     6 H2       4.3681   7.5084  10.9924   H         1 RES1   0.0000
     7 C4       4.7459   8.7740  12.5242   C.ar      1 RES1   0.0000
     8 H3       4.9349   9.5203  12.0005   H         1 RES1   0.0000
     9 C5       4.8090   8.8671  13.8887   C.ar      1 RES1   0.0000
    10 H4       5.0156   9.6787  14.2923   H         1 RES1   0.0000
    11 C6       4.5622   7.7501  14.6684   C.ar      1 RES1   0.0000
    12 H5       4.6604   7.8040  15.5898   H         1 RES1   0.0000
    13 C7       2.4282   5.3611  16.8696   C.ar      1 RES1   0.0000
    14 C8       2.1215   6.6822  17.1453   C.ar      1 RES1   0.0000
    15 H6       2.4891   7.3517  16.6137   H         1 RES1   0.0000
    16 C9       1.2837   7.0349  18.1888   C.ar      1 RES1   0.0000
    17 H7       1.0798   7.9281  18.3483   H         1 RES1   0.0000
    18 C10      0.7665   6.0584  18.9744   C.ar      1 RES1   0.0000
    19 H8       0.2116   6.2919  19.6852   H         1 RES1   0.0000
    20 C11      1.0379   4.7471  18.7480   C.ar      1 RES1   0.0000
    21 H9       0.6798   4.0890  19.2973   H         1 RES1   0.0000
    22 C12      1.8577   4.4041  17.6848   C.ar      1 RES1   0.0000
    23 H10      2.0288   3.5060  17.5174   H         1 RES1   0.0000
    24 C13      2.1818   3.9322  13.8867   C.ar      1 RES1   0.0000
    25 C14      2.3943   3.1043  12.7999   C.ar      1 RES1   0.0000
    26 H11      3.2637   2.8463  12.5971   H         1 RES1   0.0000
    27 C15      1.3627   2.6454  12.0064   C.ar      1 RES1   0.0000
    28 H12      1.5357   2.0772  11.2897   H         1 RES1   0.0000
    29 C16      0.0724   3.0390  12.2860   C.ar      1 RES1   0.0000
    30 H13     -0.6280   2.7336  11.7564   H         1 RES1   0.0000
    31 C17     -0.1792   3.8620  13.3197   C.ar      1 RES1   0.0000
    32 H14     -1.0493   4.1380  13.4929   H         1 RES1   0.0000
    33 C18      0.8599   4.2947  14.1230   C.ar      1 RES1   0.0000
    34 H15      0.6695   4.8467  14.8456   H         1 RES1   0.0000
    35 Fe1      5.6808   3.2000  15.8434   Fe        1 RES1   0.0000
    36 P1       6.6205   4.9600  16.6562   P.3       1 RES1   0.0000
    37 P2       7.4448   1.9455  15.8048   P.3       1 RES1   0.0000
    38 O1       4.3848   2.5785  18.3936   O.2       1 RES1   0.0000
    39 C19      4.9286   2.7875  17.3894   C.1       1 RES1   0.0000
    40 O2       4.1727   1.1153  14.4715   O.2       1 RES1   0.0000
    41 C20      4.7361   1.9628  14.9913   C.1       1 RES1   0.0000
    42 O3       7.2489   5.8150  15.4518   O.3       1 RES1   0.0000
    43 C21      6.4330   3.9796  14.1151   C.ar      1 RES1   0.0000
    44 C22      6.3456   3.4668  12.8176   C.ar      1 RES1   0.0000
    45 H16      5.9344   2.6422  12.6936   H         1 RES1   0.0000
    46 C23      6.8387   4.1265  11.7131   C.ar      1 RES1   0.0000
    47 H17      6.7234   3.7640  10.8645   H         1 RES1   0.0000
    48 C24      7.4967   5.3105  11.8686   C.ar      1 RES1   0.0000
    49 H18      7.8511   5.7465  11.1263   H         1 RES1   0.0000
    50 C25      7.6363   5.8657  13.1307   C.ar      1 RES1   0.0000
    51 H19      8.0711   6.6789  13.2488   H         1 RES1   0.0000
    52 C26      7.1141   5.1847  14.1939   C.ar      1 RES1   0.0000
    53 O4       5.6423   5.9669  17.4038   O.3       1 RES1   0.0000
    54 C27      5.9102   6.9549  18.3660   C.ar      1 RES1   0.0000
    55 C28      4.9884   7.0675  19.3662   C.ar      1 RES1   0.0000
    56 H20      4.2390   6.5172  19.3839   H         1 RES1   0.0000
    57 C29      5.1868   8.0098  20.3467   C.ar      1 RES1   0.0000
    58 H21      4.5757   8.0800  21.0457   H         1 RES1   0.0000
    59 C30      6.2429   8.8230  20.3113   C.ar      1 RES1   0.0000
    60 H22      6.3625   9.4484  20.9886   H         1 RES1   0.0000
    61 C31      7.1602   8.7495  19.2835   C.ar      1 RES1   0.0000
    62 H23      7.8764   9.3406  19.2500   H         1 RES1   0.0000
    63 C32      6.9988   7.7860  18.3030   C.ar      1 RES1   0.0000
    64 H24      7.6189   7.7028  17.6139   H         1 RES1   0.0000
    65 O5       7.9298   4.9855  17.5885   O.3       1 RES1   0.0000
    66 C33      8.1606   4.3111  18.7775   C.ar      1 RES1   0.0000
    67 C34      9.4665   3.8963  18.9961   C.ar      1 RES1   0.0000
    68 H25     10.1185   4.0302  18.3443   H         1 RES1   0.0000
    69 C35      9.7870   3.2807  20.1932   C.ar      1 RES1   0.0000
    70 H26     10.6590   2.9933  20.3408   H         1 RES1   0.0000
    71 C36      8.8405   3.0880  21.1619   C.ar      1 RES1   0.0000
    72 H27      9.0683   2.6765  21.9652   H         1 RES1   0.0000
    73 C37      7.5548   3.5044  20.9472   C.ar      1 RES1   0.0000
    74 H28      6.9098   3.3656  21.6009   H         1 RES1   0.0000
    75 C38      7.2056   4.1363  19.7482   C.ar      1 RES1   0.0000
    76 H29      6.3343   4.4335  19.6123   H         1 RES1   0.0000
    77 O6       7.8006   0.8753  16.9622   O.3       1 RES1   0.0000
    78 C39      6.8374   0.3103  17.8029   C.ar      1 RES1   0.0000
    79 C40      5.8207  -0.4523  17.2693   C.ar      1 RES1   0.0000
    80 H30      5.7661  -0.6205  16.3557   H         1 RES1   0.0000
    81 C41      4.8765  -0.9586  18.1632   C.ar      1 RES1   0.0000
    82 H31      4.1710  -1.4680  17.8344   H         1 RES1   0.0000
    83 C42      4.9591  -0.7283  19.5021   C.ar      1 RES1   0.0000
    84 H32      4.3155  -1.0680  20.0790   H         1 RES1   0.0000
    85 C43      6.0095   0.0147  19.9864   C.ar      1 RES1   0.0000
    86 H33      6.0782   0.1551  20.9039   H         1 RES1   0.0000
    87 C44      6.9762   0.5601  19.1398   C.ar      1 RES1   0.0000
    88 H34      7.6795   1.0712  19.4706   H         1 RES1   0.0000
    89 O7       7.5362   1.0402  14.4853   O.3       1 RES1   0.0000
    90 C45      7.8634  -0.3168  14.2943   C.ar      1 RES1   0.0000
    91 C46      9.0621  -0.8345  14.6782   C.ar      1 RES1   0.0000
    92 H35      9.6722  -0.3119  15.1468   H         1 RES1   0.0000
    93 C47      9.3649  -2.1588  14.3593   C.ar      1 RES1   0.0000
    94 H36     10.1889  -2.5197  14.5936   H         1 RES1   0.0000
    95 C48      8.4532  -2.9132  13.7076   C.ar      1 RES1   0.0000
    96 H37      8.6420  -3.8016  13.5107   H         1 RES1   0.0000
    97 C49      7.2434  -2.3727  13.3335   C.ar      1 RES1   0.0000
    98 H38      6.6245  -2.8904  12.8727   H         1 RES1   0.0000
    99 C50      6.9485  -1.0663  13.6426   C.ar      1 RES1   0.0000
   100 H39      6.1274  -0.7005  13.4043   H         1 RES1   0.0000
   101 O8       8.8019   2.7793  15.7690   O.3       1 RES1   0.0000
   102 C51     10.0488   2.3188  15.3043   C.ar      1 RES1   0.0000
   103 C52     10.9647   1.8469  16.2160   C.ar      1 RES1   0.0000
   104 H40     10.7668   1.8126  17.1236   H         1 RES1   0.0000
   105 C53     12.1885   1.4256  15.7375   C.ar      1 RES1   0.0000
   106 H41     12.8276   1.1055  16.3341   H         1 RES1   0.0000
   107 C54     12.4782   1.4713  14.4105   C.ar      1 RES1   0.0000
   108 H42     13.3071   1.1774  14.1092   H         1 RES1   0.0000
   109 C55     11.5755   1.9416  13.5284   C.ar      1 RES1   0.0000
   110 H43     11.7850   1.9661  12.6227   H         1 RES1   0.0000
   111 C56     10.3157   2.3939  13.9675   C.ar      1 RES1   0.0000
   112 H44      9.6896   2.7320  13.3689   H         1 RES1   0.0000
@<TRIPOS>BOND
     1     1     2    1
     2     2     3   ar
     3     3     4    1
     4     5     3   ar
     5     6     5    1
     6     7     5   ar
     7     8     7    1
     8     9     7   ar
     9    10     9    1
    10    11     2   ar
    11    12    11    1
    12    13     1    1
    13    14    13   ar
    14    15    14    1
    15    16    14   ar
    16    17    16    1
    17    18    16   ar
    18    19    18    1
    19    20    18   ar
    20    21    20    1
    21    22    13   ar
    22    23    22    1
    23    24     1    1
    24    25    24   ar
    25    26    25    1
    26    27    25   ar
    27    28    27    1
    28    29    27   ar
    29    30    29    1
    30    31    29   ar
    31    32    31    1
    32    33    24   ar
    33    34    33    1
    34    35     1    1
    35    36    35    1
    36    37    35    1
    37    38    39    3
    38    39    35    1
    39    40    41    3
    40    41    35    1
    41    42    36    1
    42    43    35    1
    43    44    43   ar
    44    45    44    1
    45    46    44   ar
    46    47    46    1
    47    48    46   ar
    48    49    48    1
    49    50    48   ar
    50    51    50    1
    51    52    42    1
    52    53    36    1
    53    54    53    1
    54    55    54   ar
    55    56    55    1
    56    57    55   ar
    57    58    57    1
    58    59    57   ar
    59    60    59    1
    60    61    59   ar
    61    62    61    1
    62    63    54   ar
    63    64    63    1
    64    65    36    1
    65    66    65    1
    66    67    66   ar
    67    68    67    1
    68    69    67   ar
    69    70    69    1
    70    71    69   ar
    71    72    71    1
    72    73    71   ar
    73    74    73    1
    74    75    66   ar
    75    76    75    1
    76    77    37    1
    77    78    77    1
    78    79    78   ar
    79    80    79    1
    80    81    79   ar
    81    82    81    1
    82    83    81   ar
    83    84    83    1
    84    85    83   ar
    85    86    85    1
    86    87    78   ar
    87    88    87    1
    88    89    37    1
    89    90    89    1
    90    91    90   ar
    91    92    91    1
    92    93    91   ar
    93    94    93    1
    94    95    93   ar
    95    96    95    1
    96    97    95   ar
    97    98    97    1
    98    99    90   ar
    99   100    99    1
   100   101    37    1
   101   102   101    1
   102   103   102   ar
   103   104   103    1
   104   105   103   ar
   105   106   105    1
   106   107   105   ar
   107   108   107    1
   108   109   107   ar
   109   110   109    1
   110   111   102   ar
   111   112   111    1
   112     9    11   ar
   113    20    22   ar
   114    31    33   ar
   115    43    52   ar
   116    50    52   ar
   117    61    63   ar
   118    73    75   ar
   119    85    87   ar
   120    97    99   ar
   121   109   111   ar
@<TRIPOS>SUBSTRUCTURE
     1 RES1        1 GROUP             0 ****  ****    0  
@<TRIPOS>CRYSIN
   15.4221   16.3298   20.7980   90.0000  108.7940   90.0000    14     1
