@<TRIPOS>MOLECULE
UFEBUD
   226   243     3     0     0
SMALL
NO_CHARGES
****
Generated from the CSD

@<TRIPOS>ATOM
     1 Fe1     17.3031   0.0000   0.0000   Fe        1 RES1   0.0000
     2 S1      24.0945   3.1651   0.6516   S.3       1 RES1   0.0000
     3 S2      28.9438   1.6521  -1.6527   S.3       1 RES1   0.0000
     4 S3      20.4384  -5.6512  -3.8914   S.3       1 RES1   0.0000
     5 S4      17.7619 -10.2181  -7.0117   S.3       1 RES1   0.0000
     6 S5      18.9811  -2.7072   3.4911   S.2       1 RES1   0.0000
     7 F1      23.6951   5.4473  -4.0545   F         1 RES1   0.0000
     8 F2      24.5880   7.0115  -2.8481   F         1 RES1   0.0000
     9 F3      28.1382   5.3574  -4.8455   F         1 RES1   0.0000
    10 F4      25.6763   5.2788  -5.6355   F         1 RES1   0.0000
    11 F5      27.7579   6.8852  -3.3631   F         1 RES1   0.0000
    12 N1      17.9976  -1.9148  -0.8849   N.ar      1 RES1   0.0000
    13 F6      25.8355   7.3631  -5.1215   F         1 RES1   0.0000
    14 F7      18.3295 -12.4094  -2.8927   F         1 RES1   0.0000
    15 N2      19.2863   0.9337  -0.2637   N.ar      1 RES1   0.0000
    16 F8      18.3790 -11.2061  -0.6298   F         1 RES1   0.0000
    17 C1      24.7818   4.1707  -1.5791   C.2       1 RES1   0.0000
    18 C2      23.0162   2.9740  -0.6810   C.2       1 RES1   0.0000
    19 C3      29.1248   4.1614  -1.9936   C.2       1 RES1   0.0000
    20 H1      29.4498   5.0317  -2.0372   H         1 RES1   0.0000
    21 F9      20.4920 -12.2727  -3.1137   F         1 RES1   0.0000
    22 C4      26.8412   4.7504  -2.9382   C.2       1 RES1   0.0000
    23 C5      20.8720   2.1387  -1.5952   C.ar      1 RES1   0.0000
    24 H2      21.0924   2.4986  -2.4242   H         1 RES1   0.0000
    25 C6      19.2361  -3.1301  -2.5361   C.ar      1 RES1   0.0000
    26 H3      19.7428  -3.1007  -3.3147   H         1 RES1   0.0000
    27 F10     19.8400  -9.1841  -0.1375   F         1 RES1   0.0000
    28 C7      21.7458   2.2601  -0.5292   C.ar      1 RES1   0.0000
    29 F11     21.5548 -10.0140  -1.1438   F         1 RES1   0.0000
    30 C8      25.5327   4.8490  -2.6423   C.2       1 RES1   0.0000
    31 C9      23.5200   3.5769  -1.7821   C.2       1 RES1   0.0000
    32 H4      23.0753   3.5990  -2.5987   H         1 RES1   0.0000
    33 C10     27.7977   3.7921  -2.4137   C.2       1 RES1   0.0000
    34 N3      17.8758  -0.7319   1.8741   N.2       1 RES1   0.0000
    35 C11     29.8585   3.1152  -1.5270   C.2       1 RES1   0.0000
    36 F12     20.3055 -12.1928  -0.5548   F         1 RES1   0.0000
    37 C12     27.2232   5.7816  -3.9502   C.3       1 RES1   0.0000
    38 C13     19.5005  -5.5941  -2.4346   C.2       1 RES1   0.0000
    39 C14     24.8735   5.8706  -3.5101   C.3       1 RES1   0.0000
    40 C15     25.2285   4.0427  -0.2969   C.2       1 RES1   0.0000
    41 C16     18.7174  -1.9615  -1.9936   C.ar      1 RES1   0.0000
    42 H5      18.8880  -1.1628  -2.4374   H         1 RES1   0.0000
    43 C17     31.2213   3.1180  -1.0072   C.ar      1 RES1   0.0000
    44 C18     18.9901  -4.3368  -1.9044   C.ar      1 RES1   0.0000
    45 C19     27.5693   2.4494  -2.2923   C.2       1 RES1   0.0000
    46 C20     19.7455  -9.3063  -2.5171   C.2       1 RES1   0.0000
    47 C21     18.3367  -1.5434   2.5721   C.1       1 RES1   0.0000
    48 C22     19.3099  -6.8627  -1.9689   C.2       1 RES1   0.0000
    49 H6      18.8361  -7.0493  -1.1912   H         1 RES1   0.0000
    50 C23     19.8971  -7.8725  -2.7760   C.2       1 RES1   0.0000
    51 C24     26.4616   4.5611   0.3519   C.3       1 RES1   0.0000
    52 H7      26.4737   4.2912   1.2737   H         1 RES1   0.0000
    53 H8      26.4737   5.5197   0.2978   H         1 RES1   0.0000
    54 H9      27.2315   4.2046  -0.0967   H         1 RES1   0.0000
    55 C25     20.1408   1.0486   0.7379   C.ar      1 RES1   0.0000
    56 H10     19.9020   0.6679   1.5535   H         1 RES1   0.0000
    57 C26     25.8933   6.1457  -4.6273   C.3       1 RES1   0.0000
    58 C27     17.4034  -8.7657  -6.1676   C.2       1 RES1   0.0000
    59 C28     17.7671  -3.1038  -0.2912   C.ar      1 RES1   0.0000
    60 H11     17.2581  -3.1076   0.4884   H         1 RES1   0.0000
    61 C29     19.6770   1.4849  -1.4207   C.ar      1 RES1   0.0000
    62 H12     19.1026   1.4223  -2.1501   H         1 RES1   0.0000
    63 C30     31.8584   4.3258  -0.7274   C.ar      1 RES1   0.0000
    64 H13     31.3912   5.1217  -0.8223   H         1 RES1   0.0000
    65 C31     19.5905 -11.2747  -1.2358   C.3       1 RES1   0.0000
    66 C32     20.5560  -7.3676  -3.8449   C.2       1 RES1   0.0000
    67 C33     19.2410 -10.2503  -3.3394   C.2       1 RES1   0.0000
    68 C34     18.5766 -10.9113  -5.6934   C.2       1 RES1   0.0000
    69 C35     20.1996  -9.9043  -1.2320   C.3       1 RES1   0.0000
    70 C36     18.2267  -4.2984  -0.7530   C.ar      1 RES1   0.0000
    71 H14     18.0263  -5.0836  -0.2978   H         1 RES1   0.0000
    72 C37     26.3515   1.6601  -2.6556   C.3       1 RES1   0.0000
    73 H15     26.4944   0.7336  -2.4441   H         1 RES1   0.0000
    74 H16     26.1795   1.7511  -3.5964   H         1 RES1   0.0000
    75 H17     25.5981   1.9899  -2.1605   H         1 RES1   0.0000
    76 C38     21.3537   1.6853   0.6610   C.ar      1 RES1   0.0000
    77 H18     21.9091   1.7303   1.4065   H         1 RES1   0.0000
    78 C39     18.6077 -10.0333  -4.6235   C.2       1 RES1   0.0000
    79 C40     16.6628  -7.6583  -6.7945   C.ar      1 RES1   0.0000
    80 C41     33.2357   1.9829  -0.3509   C.ar      1 RES1   0.0000
    81 H19     33.6994   1.1870  -0.2143   H         1 RES1   0.0000
    82 C42     33.1630   4.3569  -0.3168   C.ar      1 RES1   0.0000
    83 H20     33.5783   5.1736  -0.1660   H         1 RES1   0.0000
    84 C43     17.9294  -8.8280  -4.9327   C.2       1 RES1   0.0000
    85 H21     17.8567  -8.1290  -4.3238   H         1 RES1   0.0000
    86 C44     31.9310   1.9518  -0.7777   C.ar      1 RES1   0.0000
    87 H22     31.5192   1.1282  -0.9162   H         1 RES1   0.0000
    88 C45     33.8586   3.1941  -0.1233   C.ar      1 RES1   0.0000
    89 H23     34.7445   3.2184   0.1584   H         1 RES1   0.0000
    90 C46     19.3794 -11.6034  -2.6869   C.3       1 RES1   0.0000
    91 C47     16.8947  -6.3468  -6.4388   C.ar      1 RES1   0.0000
    92 H24     17.5488  -6.1633  -5.8053   H         1 RES1   0.0000
    93 C48     15.7077  -7.9040  -7.7533   C.ar      1 RES1   0.0000
    94 H25     15.5347  -8.7796  -8.0170   H         1 RES1   0.0000
    95 C49     16.1957  -5.2982  -6.9880   C.ar      1 RES1   0.0000
    96 H26     16.3618  -4.4261  -6.7186   H         1 RES1   0.0000
    97 C50     15.2198  -5.5750  -7.9620   C.ar      1 RES1   0.0000
    98 H27     14.7318  -4.8864  -8.3508   H         1 RES1   0.0000
    99 C51     21.3001  -8.0840  -4.9251   C.3       1 RES1   0.0000
   100 H28     21.6634  -7.4438  -5.5397   H         1 RES1   0.0000
   101 H29     20.6979  -8.6723  -5.3918   H         1 RES1   0.0000
   102 H30     22.0095  -8.5996  -4.5372   H         1 RES1   0.0000
   103 C52     19.2133 -12.2713  -5.8717   C.3       1 RES1   0.0000
   104 H31     18.9849 -12.6208  -6.7366   H         1 RES1   0.0000
   105 H32     18.8915 -12.8665  -5.1907   H         1 RES1   0.0000
   106 H33     20.1684 -12.1883  -5.8015   H         1 RES1   0.0000
   107 C53     15.0052  -6.8728  -8.3271   C.ar      1 RES1   0.0000
   108 H34     14.3719  -7.0631  -8.9796   H         1 RES1   0.0000
   109 S1D     10.5116  -3.1651  -0.6516   S.3       1 RES1   0.0000
   110 S2D      5.6623  -1.6521   1.6527   S.3       1 RES1   0.0000
   111 S3D     14.1677   5.6512   3.8914   S.3       1 RES1   0.0000
   112 S4D     16.8442  10.2181   7.0117   S.3       1 RES1   0.0000
   113 S5D     15.6250   2.7072  -3.4911   S.2       1 RES1   0.0000
   114 F1D     10.9110  -5.4473   4.0545   F         1 RES1   0.0000
   115 F2D     10.0181  -7.0115   2.8481   F         1 RES1   0.0000
   116 F3D      6.4679  -5.3574   4.8455   F         1 RES1   0.0000
   117 F4D      8.9298  -5.2788   5.6355   F         1 RES1   0.0000
   118 F5D      6.8482  -6.8852   3.3631   F         1 RES1   0.0000
   119 N1D     16.6085   1.9148   0.8849   N.ar      1 RES1   0.0000
   120 F6D      8.7706  -7.3631   5.1215   F         1 RES1   0.0000
   121 F7D     16.2766  12.4094   2.8927   F         1 RES1   0.0000
   122 N2D     15.3198  -0.9337   0.2637   N.ar      1 RES1   0.0000
   123 F8D     16.2271  11.2061   0.6298   F         1 RES1   0.0000
   124 C1D      9.8243  -4.1707   1.5791   C.2       1 RES1   0.0000
   125 C2D     11.5899  -2.9740   0.6810   C.2       1 RES1   0.0000
   126 C3D      5.4813  -4.1614   1.9936   C.2       1 RES1   0.0000
   127 H1D      5.1563  -5.0317   2.0372   H         1 RES1   0.0000
   128 F9D     14.1141  12.2727   3.1137   F         1 RES1   0.0000
   129 C4D      7.7649  -4.7504   2.9382   C.2       1 RES1   0.0000
   130 C5D     13.7341  -2.1387   1.5952   C.ar      1 RES1   0.0000
   131 H2D     13.5137  -2.4986   2.4242   H         1 RES1   0.0000
   132 C6D     15.3700   3.1301   2.5361   C.ar      1 RES1   0.0000
   133 H3D     14.8633   3.1007   3.3147   H         1 RES1   0.0000
   134 F10D    14.7661   9.1841   0.1375   F         1 RES1   0.0000
   135 C7D     12.8603  -2.2601   0.5292   C.ar      1 RES1   0.0000
   136 F11D    13.0513  10.0140   1.1438   F         1 RES1   0.0000
   137 C8D      9.0734  -4.8490   2.6423   C.2       1 RES1   0.0000
   138 C9D     11.0861  -3.5769   1.7821   C.2       1 RES1   0.0000
   139 H4D     11.5308  -3.5990   2.5987   H         1 RES1   0.0000
   140 C10D     6.8084  -3.7921   2.4137   C.2       1 RES1   0.0000
   141 N3D     16.7303   0.7319  -1.8741   N.2       1 RES1   0.0000
   142 C11D     4.7476  -3.1152   1.5270   C.2       1 RES1   0.0000
   143 F12D    14.3006  12.1928   0.5548   F         1 RES1   0.0000
   144 C12D     7.3829  -5.7816   3.9502   C.3       1 RES1   0.0000
   145 C13D    15.1056   5.5941   2.4346   C.2       1 RES1   0.0000
   146 C14D     9.7326  -5.8706   3.5101   C.3       1 RES1   0.0000
   147 C15D     9.3776  -4.0427   0.2969   C.2       1 RES1   0.0000
   148 C16D    15.8887   1.9615   1.9936   C.ar      1 RES1   0.0000
   149 H5D     15.7181   1.1628   2.4374   H         1 RES1   0.0000
   150 C17D     3.3848  -3.1180   1.0072   C.ar      1 RES1   0.0000
   151 C18D    15.6160   4.3368   1.9044   C.ar      1 RES1   0.0000
   152 C19D     7.0368  -2.4494   2.2923   C.2       1 RES1   0.0000
   153 C20D    14.8606   9.3063   2.5171   C.2       1 RES1   0.0000
   154 C21D    16.2694   1.5434  -2.5721   C.1       1 RES1   0.0000
   155 C22D    15.2962   6.8627   1.9689   C.2       1 RES1   0.0000
   156 H6D     15.7700   7.0493   1.1912   H         1 RES1   0.0000
   157 C23D    14.7090   7.8725   2.7760   C.2       1 RES1   0.0000
   158 C24D     8.1445  -4.5611  -0.3519   C.3       1 RES1   0.0000
   159 H7D      8.1324  -4.2912  -1.2737   H         1 RES1   0.0000
   160 H8D      8.1324  -5.5197  -0.2978   H         1 RES1   0.0000
   161 H9D      7.3746  -4.2046   0.0967   H         1 RES1   0.0000
   162 C25D    14.4653  -1.0486  -0.7379   C.ar      1 RES1   0.0000
   163 H10D    14.7041  -0.6679  -1.5535   H         1 RES1   0.0000
   164 C26D     8.7128  -6.1457   4.6273   C.3       1 RES1   0.0000
   165 C27D    17.2027   8.7657   6.1676   C.2       1 RES1   0.0000
   166 C28D    16.8390   3.1038   0.2912   C.ar      1 RES1   0.0000
   167 H11D    17.3480   3.1076  -0.4884   H         1 RES1   0.0000
   168 C29D    14.9291  -1.4849   1.4207   C.ar      1 RES1   0.0000
   169 H12D    15.5035  -1.4223   2.1501   H         1 RES1   0.0000
   170 C30D     2.7477  -4.3258   0.7274   C.ar      1 RES1   0.0000
   171 H13D     3.2149  -5.1217   0.8223   H         1 RES1   0.0000
   172 C31D    15.0156  11.2747   1.2358   C.3       1 RES1   0.0000
   173 C32D    14.0501   7.3676   3.8449   C.2       1 RES1   0.0000
   174 C33D    15.3651  10.2503   3.3394   C.2       1 RES1   0.0000
   175 C34D    16.0295  10.9113   5.6934   C.2       1 RES1   0.0000
   176 C35D    14.4065   9.9043   1.2320   C.3       1 RES1   0.0000
   177 C36D    16.3794   4.2984   0.7530   C.ar      1 RES1   0.0000
   178 H14D    16.5798   5.0836   0.2978   H         1 RES1   0.0000
   179 C37D     8.2546  -1.6601   2.6556   C.3       1 RES1   0.0000
   180 H15D     8.1117  -0.7336   2.4441   H         1 RES1   0.0000
   181 H16D     8.4266  -1.7511   3.5964   H         1 RES1   0.0000
   182 H17D     9.0080  -1.9899   2.1605   H         1 RES1   0.0000
   183 C38D    13.2524  -1.6853  -0.6610   C.ar      1 RES1   0.0000
   184 H18D    12.6970  -1.7303  -1.4065   H         1 RES1   0.0000
   185 C39D    15.9984  10.0333   4.6235   C.2       1 RES1   0.0000
   186 C40D    17.9433   7.6583   6.7945   C.ar      1 RES1   0.0000
   187 C41D     1.3704  -1.9829   0.3509   C.ar      1 RES1   0.0000
   188 H19D     0.9067  -1.1870   0.2143   H         1 RES1   0.0000
   189 C42D     1.4431  -4.3569   0.3168   C.ar      1 RES1   0.0000
   190 H20D     1.0278  -5.1736   0.1660   H         1 RES1   0.0000
   191 C43D    16.6767   8.8280   4.9327   C.2       1 RES1   0.0000
   192 H21D    16.7494   8.1290   4.3238   H         1 RES1   0.0000
   193 C44D     2.6751  -1.9518   0.7777   C.ar      1 RES1   0.0000
   194 H22D     3.0869  -1.1282   0.9162   H         1 RES1   0.0000
   195 C45D     0.7475  -3.1941   0.1233   C.ar      1 RES1   0.0000
   196 H23D    -0.1384  -3.2184  -0.1584   H         1 RES1   0.0000
   197 C46D    15.2267  11.6034   2.6869   C.3       1 RES1   0.0000
   198 C47D    17.7114   6.3468   6.4388   C.ar      1 RES1   0.0000
   199 H24D    17.0573   6.1633   5.8053   H         1 RES1   0.0000
   200 C48D    18.8984   7.9040   7.7533   C.ar      1 RES1   0.0000
   201 H25D    19.0714   8.7796   8.0170   H         1 RES1   0.0000
   202 C49D    18.4104   5.2982   6.9880   C.ar      1 RES1   0.0000
   203 H26D    18.2443   4.4261   6.7186   H         1 RES1   0.0000
   204 C50D    19.3863   5.5750   7.9620   C.ar      1 RES1   0.0000
   205 H27D    19.8743   4.8864   8.3508   H         1 RES1   0.0000
   206 C51D    13.3060   8.0840   4.9251   C.3       1 RES1   0.0000
   207 H28D    12.9427   7.4438   5.5397   H         1 RES1   0.0000
   208 H29D    13.9082   8.6723   5.3918   H         1 RES1   0.0000
   209 H30D    12.5966   8.5996   4.5372   H         1 RES1   0.0000
   210 C52D    15.3928  12.2713   5.8717   C.3       1 RES1   0.0000
   211 H31D    15.6212  12.6208   6.7366   H         1 RES1   0.0000
   212 H32D    15.7146  12.8665   5.1907   H         1 RES1   0.0000
   213 H33D    14.4377  12.1883   5.8015   H         1 RES1   0.0000
   214 C53D    19.6009   6.8728   8.3271   C.ar      1 RES1   0.0000
   215 H34D    20.2342   7.0631   8.9796   H         1 RES1   0.0000
   216 Cl1     20.1269  28.0586   1.6038   Cl        2 RES2   0.0000
   217 C54     21.0163  29.5363   1.3847   C.3       2 RES2   0.0000
   218 H35     20.5595  30.2700   1.8257   H         2 RES2   0.0000
   219 H36     21.0993  29.7439   0.4439   H         2 RES2   0.0000
   220 Cl2     22.6255  29.2941   2.1093   Cl        2 RES2   0.0000
   221 O1      23.4975  27.8614  -1.5270   O.3       3 RES3   0.0000
   222 H37     22.9923  28.0102  -2.1548   H         3 RES3   0.0000
   223 C55     22.9785  28.4462  -0.3509   C.3       3 RES3   0.0000
   224 H38     23.6187  29.0726   0.0104   H         3 RES3   0.0000
   225 H39     22.7985  27.7714   0.3025   H         3 RES3   0.0000
   226 H40     22.1652  28.9203  -0.5548   H         3 RES3   0.0000
@<TRIPOS>BOND
     1     1    12    1
     2     2    18    1
     3     3    35    1
     4     4    38    1
     5     5    58    1
     6     6    47    2
     7     7    39    1
     8     8    39    1
     9     9    37    1
    10    10    57    1
    11    11    37    1
    12    12    41   ar
    13    13    57    1
    14    14    90    1
    15    15     1    1
    16    16    65    1
    17    17    30    1
    18    18    28    1
    19    19    20    1
    20    21    90    1
    21    22    30    2
    22    23    24    1
    23    25    26    1
    24    27    69    1
    25    28    23   ar
    26    29    69    1
    27    30    39    1
    28    31    17    1
    29    32    31    1
    30    33    19    1
    31    34     1    1
    32    35    19    2
    33    36    65    1
    34    37    22    1
    35    38    44    1
    36    39    57    1
    37    40     2    1
    38    41    25   ar
    39    42    41    1
    40    43    35    1
    41    44    25   ar
    42    45     3    1
    43    46    50    1
    44    47    34    2
    45    48    38    2
    46    49    48    1
    47    50    48    1
    48    51    40    1
    49    52    51    1
    50    53    51    1
    51    54    51    1
    52    55    15   ar
    53    56    55    1
    54    57    37    1
    55    58    79    1
    56    59    12   ar
    57    60    59    1
    58    61    15   ar
    59    62    61    1
    60    63    43   ar
    61    64    63    1
    62    65    69    1
    63    66     4    1
    64    67    46    2
    65    68     5    1
    66    69    46    1
    67    70    44   ar
    68    71    70    1
    69    72    45    1
    70    73    72    1
    71    74    72    1
    72    75    72    1
    73    76    28   ar
    74    77    76    1
    75    78    67    1
    76    79    91   ar
    77    80    81    1
    78    82    63   ar
    79    83    82    1
    80    84    58    2
    81    85    84    1
    82    86    43   ar
    83    87    86    1
    84    88    80   ar
    85    89    88    1
    86    90    65    1
    87    91    92    1
    88    93    79   ar
    89    94    93    1
    90    95    91   ar
    91    96    95    1
    92    97    95   ar
    93    98    97    1
    94    99    66    1
    95   100    99    1
    96   101    99    1
    97   102    99    1
    98   103    68    1
    99   104   103    1
   100   105   103    1
   101   106   103    1
   102   107    93   ar
   103   108   107    1
   104   109   125    1
   105   110   142    1
   106   111   145    1
   107   112   165    1
   108   113   154    2
   109   114   146    1
   110   115   146    1
   111   116   144    1
   112   117   164    1
   113   118   144    1
   114   119     1    1
   115   120   164    1
   116   121   197    1
   117   122     1    1
   118   123   172    1
   119   124   137    1
   120   125   135    1
   121   126   127    1
   122   128   197    1
   123   129   137    2
   124   130   131    1
   125   132   133    1
   126   134   176    1
   127   135   130   ar
   128   136   176    1
   129   137   146    1
   130   138   124    1
   131   139   138    1
   132   140   126    1
   133   141     1    1
   134   142   126    2
   135   143   172    1
   136   144   129    1
   137   145   151    1
   138   146   164    1
   139   147   109    1
   140   148   119   ar
   141   149   148    1
   142   150   142    1
   143   151   132   ar
   144   152   110    1
   145   153   157    1
   146   154   141    2
   147   155   145    2
   148   156   155    1
   149   157   155    1
   150   158   147    1
   151   159   158    1
   152   160   158    1
   153   161   158    1
   154   162   122   ar
   155   163   162    1
   156   164   144    1
   157   165   186    1
   158   166   119   ar
   159   167   166    1
   160   168   122   ar
   161   169   168    1
   162   170   150   ar
   163   171   170    1
   164   172   176    1
   165   173   111    1
   166   174   153    2
   167   175   112    1
   168   176   153    1
   169   177   151   ar
   170   178   177    1
   171   179   152    1
   172   180   179    1
   173   181   179    1
   174   182   179    1
   175   183   135   ar
   176   184   183    1
   177   185   174    1
   178   186   198   ar
   179   187   188    1
   180   189   170   ar
   181   190   189    1
   182   191   165    2
   183   192   191    1
   184   193   150   ar
   185   194   193    1
   186   195   187   ar
   187   196   195    1
   188   197   172    1
   189   198   199    1
   190   200   186   ar
   191   201   200    1
   192   202   198   ar
   193   203   202    1
   194   204   202   ar
   195   205   204    1
   196   206   173    1
   197   207   206    1
   198   208   206    1
   199   209   206    1
   200   210   175    1
   201   211   210    1
   202   212   210    1
   203   213   210    1
   204   214   200   ar
   205   215   214    1
   206    17    40    2
   207    18    31    2
   208    22    33    1
   209    23    61   ar
   210    33    45    2
   211    50    66    2
   212    55    76   ar
   213    59    70   ar
   214    67    90    1
   215    68    78    2
   216    78    84    1
   217    80    86   ar
   218    82    88   ar
   219    97   107   ar
   220   124   147    2
   221   125   138    2
   222   129   140    1
   223   130   168   ar
   224   132   148   ar
   225   140   152    2
   226   157   173    2
   227   162   183   ar
   228   166   177   ar
   229   174   197    1
   230   175   185    2
   231   185   191    1
   232   187   193   ar
   233   189   195   ar
   234   204   214   ar
   235   216   217    1
   236   217   218    1
   237   219   217    1
   238   220   217    1
   239   221   222    1
   240   223   221    1
   241   224   223    1
   242   225   223    1
   243   226   223    1
@<TRIPOS>SUBSTRUCTURE
     1 RES1        1 GROUP             0 ****  ****    0  
     2 RES2      216 GROUP             0 ****  ****    0  
     3 RES3      221 GROUP             0 ****  ****    0  
