@<TRIPOS>MOLECULE
UFEBIU
   154   156     4     0     0
SMALL
USER_CHARGES
****
Generated from the CSD

@<TRIPOS>ATOM
     1 Fe1      9.5979  12.7780   7.2239   Fe        1 RES1  -3.0000
     2 C1       8.2088  11.6100   7.9036   C.1       1 RES1   0.0000
     3 C2      10.2394  13.1318   9.0192   C.1       1 RES1   0.0000
     4 C3       8.4097  14.3005   7.3949   C.1       1 RES1   0.0000
     5 C4      10.9554  13.9490   6.4810   C.1       1 RES1   0.0000
     6 C5       8.9248  12.3908   5.4344   C.1       1 RES1   0.0000
     7 C6      10.8347  11.3019   7.1296   C.1       1 RES1   0.0000
     8 N1       7.3650  10.9366   8.3051   N.1       1 RES1   0.0000
     9 N2      10.6112  13.3881  10.0875   N.1       1 RES1   0.0000
    10 N3       7.7315  15.1973   7.4930   N.1       1 RES1   0.0000
    11 N4      11.7294  14.6710   6.0213   N.1       1 RES1   0.0000
    12 N5       8.5475  12.1346   4.3733   N.1       1 RES1   0.0000
    13 N6      11.6033  10.4501   7.0696   N.1       1 RES1   0.0000
    14 P1       4.7041   0.3111   6.2337   P.3       2 RES2   1.0000
    15 C7       3.3648  -0.6371   8.3778   C.3       2 RES2   0.0000
    16 H1       4.2500  -1.0059   8.5831   H         2 RES2   0.0000
    17 C8       2.8115   0.0225   9.6333   C.3       2 RES2   0.0000
    18 H2       2.7145  -0.6371  10.3256   H         2 RES2   0.0000
    19 H3       3.4158   0.7081   9.9277   H         2 RES2   0.0000
    20 H4       1.9558   0.4120   9.4407   H         2 RES2   0.0000
    21 C9       2.4681  -1.7573   7.9581   C.3       2 RES2   0.0000
    22 H5       2.3944  -2.3909   8.6740   H         2 RES2   0.0000
    23 H6       1.5988  -1.4075   7.7473   H         2 RES2   0.0000
    24 H7       2.8361  -2.1901   7.1841   H         2 RES2   0.0000
    25 C10      6.7163   1.3452   7.6983   C.3       2 RES2   0.0000
    26 H8       6.0810   2.0897   7.6892   H         2 RES2   0.0000
    27 C11      6.9231   0.9124   9.0555   C.3       2 RES2   0.0000
    28 H9       6.0858   0.6337   9.4335   H         2 RES2   0.0000
    29 H10      7.5411   0.1783   9.0664   H         2 RES2   0.0000
    30 H11      7.2816   1.6395   9.5715   H         2 RES2   0.0000
    31 C12      8.0125   1.7902   7.0787   C.3       2 RES2   0.0000
    32 H12      7.8539   2.0724   6.1757   H         2 RES2   0.0000
    33 H13      8.3748   2.5208   7.5856   H         2 RES2   0.0000
    34 H14      8.6365   1.0595   7.0805   H         2 RES2   0.0000
    35 N7       3.5172   0.3688   7.3131   N.3       2 RES2   0.0000
    36 H15      2.9478   1.0128   7.2677   H         2 RES2   0.0000
    37 C13      4.5431  -1.0751   5.1055   C.ar      2 RES2   0.0000
    38 C14      3.3735  -1.1652   4.3842   C.ar      2 RES2   0.0000
    39 H16      2.7085  -0.5211   4.4914   H         2 RES2   0.0000
    40 C15      3.1875  -2.2247   3.4921   C.ar      2 RES2   0.0000
    41 H17      2.4108  -2.2559   2.9834   H         2 RES2   0.0000
    42 C16      4.0628  -3.1596   3.3577   C.ar      2 RES2   0.0000
    43 H18      3.9015  -3.8729   2.7817   H         2 RES2   0.0000
    44 C17      5.2403  -3.1007   4.0699   C.ar      2 RES2   0.0000
    45 H19      5.8726  -3.7742   3.9682   H         2 RES2   0.0000
    46 C18      5.4919  -2.0654   4.9275   C.ar      2 RES2   0.0000
    47 H20      6.2981  -2.0273   5.3908   H         2 RES2   0.0000
    48 N8       6.1702   0.2095   6.8770   N.3       2 RES2   0.0000
    49 H21      6.6464  -0.4951   6.7499   H         2 RES2   0.0000
    50 C19      4.6025   1.8421   5.2782   C.ar      2 RES2   0.0000
    51 C20      3.8778   2.9259   5.6652   C.ar      2 RES2   0.0000
    52 H22      3.3525   2.8826   6.4319   H         2 RES2   0.0000
    53 C21      3.9150   4.0807   4.9293   C.ar      2 RES2   0.0000
    54 H23      3.4070   4.8130   5.1964   H         2 RES2   0.0000
    55 C22      4.6755   4.1689   3.8373   C.ar      2 RES2   0.0000
    56 H24      4.6991   4.9671   3.3613   H         2 RES2   0.0000
    57 C23      5.4404   3.0696   3.3922   C.ar      2 RES2   0.0000
    58 H25      5.9676   3.1336   2.6273   H         2 RES2   0.0000
    59 C24      5.3897   1.8975   4.1208   C.ar      2 RES2   0.0000
    60 H26      5.8720   1.1513   3.8446   H         2 RES2   0.0000
    61 P2       7.0781   7.1520   9.8686   P.3       3 RES3   1.0000
    62 C25      9.3945   6.8680  11.2213   C.3       3 RES3   0.0000
    63 H27      9.6158   7.6713  10.7053   H         3 RES3   0.0000
    64 C26     10.2660   5.7306  10.8179   C.3       3 RES3   0.0000
    65 H28     10.1226   5.5315   9.8895   H         3 RES3   0.0000
    66 H29     11.1846   5.9695  10.9560   H         3 RES3   0.0000
    67 H30     10.0505   4.9601  11.3485   H         3 RES3   0.0000
    68 C27      9.7049   7.0550  12.6022   C.3       3 RES3   0.0000
    69 H31     10.6342   7.2818  12.6930   H         3 RES3   0.0000
    70 H32      9.1657   7.7648  12.9583   H         3 RES3   0.0000
    71 H33      9.5237   6.2448  13.0836   H         3 RES3   0.0000
    72 C28      6.5424   9.3472  11.3921   C.3       3 RES3   0.0000
    73 H34      6.6363   8.7067  12.1279   H         3 RES3   0.0000
    74 C29      5.2658   9.7870  11.2558   C.3       3 RES3   0.0000
    75 H35      4.9882  10.2146  12.0680   H         3 RES3   0.0000
    76 H36      5.2206  10.4137  10.5309   H         3 RES3   0.0000
    77 H37      4.6902   9.0425  11.0705   H         3 RES3   0.0000
    78 C30      7.5493  10.5661  11.5211   C.3       3 RES3   0.0000
    79 H38      8.4459  10.2337  11.6174   H         3 RES3   0.0000
    80 H39      7.4943  11.1132  10.7344   H         3 RES3   0.0000
    81 H40      7.3193  11.0906  12.2933   H         3 RES3   0.0000
    82 N9       7.9662   6.5166  11.0469   N.3       3 RES3   0.0000
    83 H41      7.6020   5.9591  11.5920   H         3 RES3   0.0000
    84 C31      5.6024   6.1426   9.7623   C.ar      3 RES3   0.0000
    85 C32      4.4704   6.6949   9.1482   C.ar      3 RES3   0.0000
    86 H42      4.4625   7.5952   8.9138   H         3 RES3   0.0000
    87 C33      3.3943   5.9245   8.8993   C.ar      3 RES3   0.0000
    88 H43      2.6347   6.3106   8.5286   H         3 RES3   0.0000
    89 C34      3.3922   4.6018   9.1773   C.ar      3 RES3   0.0000
    90 H44      2.6605   4.0772   8.9429   H         3 RES3   0.0000
    91 C35      4.4828   4.0270   9.8096   C.ar      3 RES3   0.0000
    92 H45      4.4738   3.1267  10.0439   H         3 RES3   0.0000
    93 C36      5.5870   4.8182  10.0894   C.ar      3 RES3   0.0000
    94 H46      6.3275   4.4408  10.5073   H         3 RES3   0.0000
    95 N10      6.8087   8.7153  10.0512   N.3       3 RES3   0.0000
    96 H47      6.8157   9.2191   9.3535   H         3 RES3   0.0000
    97 C37      7.9451   6.9996   8.2924   C.ar      3 RES3   0.0000
    98 C38      8.8220   7.9657   7.8364   C.ar      3 RES3   0.0000
    99 H48      8.9420   8.7534   8.3142   H         3 RES3   0.0000
   100 C39      9.5223   7.7458   6.6572   C.ar      3 RES3   0.0000
   101 H49     10.1117   8.3968   6.3501   H         3 RES3   0.0000
   102 C40      9.3682   6.6499   5.9722   C.ar      3 RES3   0.0000
   103 H50      9.9190   6.4871   5.2400   H         3 RES3   0.0000
   104 C41      8.3811   5.7011   6.3247   C.ar      3 RES3   0.0000
   105 H51      8.1811   4.9878   5.7633   H         3 RES3   0.0000
   106 C42      7.7231   5.8656   7.5275   C.ar      3 RES3   0.0000
   107 H52      7.1290   5.2146   7.8255   H         3 RES3   0.0000
   108 P3      10.7729  16.9099  12.2133   P.3       4 RES4   1.0000
   109 C43      9.1830  14.8475  13.0255   C.3       4 RES4   0.0000
   110 H53      8.9224  15.5227  13.6869   H         4 RES4   0.0000
   111 C44      9.9367  13.7482  13.7414   C.3       4 RES4   0.0000
   112 H54      9.3678  13.3448  14.3991   H         4 RES4   0.0000
   113 H55     10.2138  13.0851  13.1054   H         4 RES4   0.0000
   114 H56     10.7108  14.1204  14.1720   H         4 RES4   0.0000
   115 C45      7.9168  14.3437  12.3351   C.3       4 RES4   0.0000
   116 H57      7.3524  13.9109  12.9801   H         4 RES4   0.0000
   117 H58      7.4483  15.0865  11.9463   H         4 RES4   0.0000
   118 H59      8.1549  13.7187  11.6465   H         4 RES4   0.0000
   119 C46      8.5559  18.4088  12.2660   C.3       4 RES4   0.0000
   120 H60      8.3888  17.8357  11.4902   H         4 RES4   0.0000
   121 C47      8.8292  19.8666  11.7664   C.3       4 RES4   0.0000
   122 H61      8.0472  20.2042  11.3212   H         4 RES4   0.0000
   123 H62      9.0369  20.4292  12.5168   H         4 RES4   0.0000
   124 H63      9.5694  19.8631  11.1559   H         4 RES4   0.0000
   125 C48      7.3914  18.2945  13.2181   C.3       4 RES4   0.0000
   126 H64      6.5911  18.5941  12.7802   H         4 RES4   0.0000
   127 H65      7.2854  17.3787  13.4852   H         4 RES4   0.0000
   128 H66      7.5567  18.8364  13.9921   H         4 RES4   0.0000
   129 N11     10.0159  15.5037  12.0008   N.3       4 RES4   0.0000
   130 H67     10.1019  15.1107  11.2413   H         4 RES4   0.0000
   131 C49     12.2522  16.8126  13.2072   C.ar      4 RES4   0.0000
   132 C50     13.1354  15.7842  12.8674   C.ar      4 RES4   0.0000
   133 H68     12.9249  15.1834  12.1897   H         4 RES4   0.0000
   134 C51     14.3467  15.6768  13.5688   C.ar      4 RES4   0.0000
   135 H69     14.9529  15.0086  13.3435   H         4 RES4   0.0000
   136 C52     14.6403  16.5494  14.5899   C.ar      4 RES4   0.0000
   137 H70     15.3894  16.4057  15.1222   H         4 RES4   0.0000
   138 C53     13.8131  17.6592  14.8315   C.ar      4 RES4   0.0000
   139 H71     14.0620  18.3084  15.4493   H         4 RES4   0.0000
   140 C54     12.6436  17.7665  14.1447   C.ar      4 RES4   0.0000
   141 H72     12.0896  18.4971  14.3046   H         4 RES4   0.0000
   142 N12      9.7813  17.9483  12.9365   N.3       4 RES4   0.0000
   143 H73      9.9693  18.2391  13.7250   H         4 RES4   0.0000
   144 C55     11.2730  17.4531  10.5654   C.ar      4 RES4   0.0000
   145 C56     12.1685  18.4590  10.4709   C.ar      4 RES4   0.0000
   146 H74     12.5107  18.8589  11.2377   H         4 RES4   0.0000
   147 C57     12.5786  18.9005   9.1773   C.ar      4 RES4   0.0000
   148 H75     13.2524  19.5359   9.1028   H         4 RES4   0.0000
   149 C58     12.0255  18.4313   8.1053   C.ar      4 RES4   0.0000
   150 H76     12.1584  18.8520   7.2859   H         4 RES4   0.0000
   151 C59     11.2941  17.3839   8.1816   C.ar      4 RES4   0.0000
   152 H77     11.0419  16.9511   7.3967   H         4 RES4   0.0000
   153 C60     10.8567  16.8645   9.4280   C.ar      4 RES4   0.0000
   154 H78     10.2902  16.1287   9.4589   H         4 RES4   0.0000
@<TRIPOS>BOND
     1     1     2    1
     2     2     8    3
     3     3     1    1
     4     4     1    1
     5     5     1    1
     6     6     1    1
     7     7     1    1
     8     9     3    3
     9    10     4    3
    10    11     5    3
    11    12     6    3
    12    13     7    3
    13    14    35    1
    14    15    16    1
    15    17    15    1
    16    18    17    1
    17    19    17    1
    18    20    17    1
    19    21    15    1
    20    22    21    1
    21    23    21    1
    22    24    21    1
    23    25    26    1
    24    27    25    1
    25    28    27    1
    26    29    27    1
    27    30    27    1
    28    31    25    1
    29    32    31    1
    30    33    31    1
    31    34    31    1
    32    35    15    1
    33    36    35    1
    34    37    14    1
    35    38    37   ar
    36    39    38    1
    37    40    38   ar
    38    41    40    1
    39    42    40   ar
    40    43    42    1
    41    44    42   ar
    42    45    44    1
    43    46    37   ar
    44    47    46    1
    45    48    14    1
    46    49    48    1
    47    50    14    1
    48    51    50   ar
    49    52    51    1
    50    53    51   ar
    51    54    53    1
    52    55    53   ar
    53    56    55    1
    54    57    55   ar
    55    58    57    1
    56    59    50   ar
    57    60    59    1
    58    25    48    1
    59    44    46   ar
    60    57    59   ar
    61    61    82    1
    62    62    63    1
    63    64    62    1
    64    65    64    1
    65    66    64    1
    66    67    64    1
    67    68    62    1
    68    69    68    1
    69    70    68    1
    70    71    68    1
    71    72    73    1
    72    74    72    1
    73    75    74    1
    74    76    74    1
    75    77    74    1
    76    78    72    1
    77    79    78    1
    78    80    78    1
    79    81    78    1
    80    82    62    1
    81    83    82    1
    82    84    61    1
    83    85    84   ar
    84    86    85    1
    85    87    85   ar
    86    88    87    1
    87    89    87   ar
    88    90    89    1
    89    91    89   ar
    90    92    91    1
    91    93    84   ar
    92    94    93    1
    93    95    61    1
    94    96    95    1
    95    97    61    1
    96    98    97   ar
    97    99    98    1
    98   100    98   ar
    99   101   100    1
   100   102   100   ar
   101   103   102    1
   102   104   102   ar
   103   105   104    1
   104   106    97   ar
   105   107   106    1
   106    72    95    1
   107    91    93   ar
   108   104   106   ar
   109   108   129    1
   110   109   110    1
   111   111   109    1
   112   112   111    1
   113   113   111    1
   114   114   111    1
   115   115   109    1
   116   116   115    1
   117   117   115    1
   118   118   115    1
   119   119   120    1
   120   121   119    1
   121   122   121    1
   122   123   121    1
   123   124   121    1
   124   125   119    1
   125   126   125    1
   126   127   125    1
   127   128   125    1
   128   129   109    1
   129   130   129    1
   130   131   108    1
   131   132   131   ar
   132   133   132    1
   133   134   132   ar
   134   135   134    1
   135   136   134   ar
   136   137   136    1
   137   138   136   ar
   138   139   138    1
   139   140   131   ar
   140   141   140    1
   141   142   108    1
   142   143   142    1
   143   144   108    1
   144   145   144   ar
   145   146   145    1
   146   147   145   ar
   147   148   147    1
   148   149   147   ar
   149   150   149    1
   150   151   149   ar
   151   152   151    1
   152   153   144   ar
   153   154   153    1
   154   119   142    1
   155   138   140   ar
   156   151   153   ar
@<TRIPOS>SUBSTRUCTURE
     1 RES1        1 GROUP             0 ****  ****    0  
     2 RES2       14 GROUP             0 ****  ****    0  
     3 RES3       61 GROUP             0 ****  ****    0  
     4 RES4      108 GROUP             0 ****  ****    0  
@<TRIPOS>CRYSIN
   21.1619   17.3129   18.4705   90.0000  100.3630   90.0000     9     1
