@<TRIPOS>MOLECULE
UGONOW
   128   135     1     0     0
SMALL
NO_CHARGES
****
Generated from the CSD

@<TRIPOS>ATOM
     1 Fe1      3.3538   9.8554   3.7401   Fe        1 RES1   0.0000
     2 H1       2.9295   9.9827   5.0333   H         1 RES1   0.0000
     3 P1       3.9849   9.4539   1.6608   P.3       1 RES1   0.0000
     4 P2       4.7364  11.5018   4.0612   P.3       1 RES1   0.0000
     5 Si1      1.5109  11.0119   3.7521   Si        1 RES1   0.0000
     6 Si2      4.2117   8.3790   5.0934   Si        1 RES1   0.0000
     7 N1       0.7928  12.7389   3.4083   N.pl3     1 RES1   0.0000
     8 N2       0.6398  11.7076   5.2826   N.pl3     1 RES1   0.0000
     9 N3       0.1891  10.0254   3.1177   N.pl3     1 RES1   0.0000
    10 N4       2.8919   7.3062   5.6013   N.pl3     1 RES1   0.0000
    11 N5       5.1869   8.4795   6.7310   N.pl3     1 RES1   0.0000
    12 N6       5.5974   7.0867   5.1501   N.pl3     1 RES1   0.0000
    13 C1       0.8185  13.7669   2.3448   C.3       1 RES1   0.0000
    14 C2      -0.5914  14.1646   1.9131   C.3       1 RES1   0.0000
    15 H2      -1.1112  13.3582   1.7130   H         1 RES1   0.0000
    16 H3      -0.5410  14.7275   1.1121   H         1 RES1   0.0000
    17 H4      -1.0261  14.6629   2.6357   H         1 RES1   0.0000
    18 C3       1.5933  14.9900   2.7850   C.3       1 RES1   0.0000
    19 H5       1.1208  15.4272   3.5238   H         1 RES1   0.0000
    20 H6       1.6725  15.6140   2.0332   H         1 RES1   0.0000
    21 H7       2.4872  14.7210   3.0820   H         1 RES1   0.0000
    22 C4       1.4869  13.1014   1.1561   C.3       1 RES1   0.0000
    23 H8       2.3895  12.8135   1.4076   H         1 RES1   0.0000
    24 H9       1.5426  13.7384   0.4135   H         1 RES1   0.0000
    25 H10      0.9610  12.3222   0.8795   H         1 RES1   0.0000
    26 C5       0.3419  12.8355   4.6669   C.2       1 RES1   0.0000
    27 C6      -0.3208  14.0176   5.2779   C.ar      1 RES1   0.0000
    28 C7      -1.6647  14.2834   5.0707   C.ar      1 RES1   0.0000
    29 H11     -2.1864  13.7175   4.5149   H         1 RES1   0.0000
    30 C8      -2.2423  15.3952   5.6930   C.ar      1 RES1   0.0000
    31 H12     -3.1630  15.5883   5.5565   H         1 RES1   0.0000
    32 C9      -1.4791  16.2133   6.5025   C.ar      1 RES1   0.0000
    33 H13     -1.8763  16.9654   6.9259   H         1 RES1   0.0000
    34 C10     -0.1565  15.9426   6.6950   C.ar      1 RES1   0.0000
    35 H14      0.3653  16.5166   7.2434   H         1 RES1   0.0000
    36 C11      0.4265  14.8533   6.1075   C.ar      1 RES1   0.0000
    37 H15      1.3439  14.6653   6.2653   H         1 RES1   0.0000
    38 C12      0.1119  11.1705   6.5633   C.3       1 RES1   0.0000
    39 C13      0.7552  11.8855   7.7445   C.3       1 RES1   0.0000
    40 H16      1.7292  11.8781   7.6398   H         1 RES1   0.0000
    41 H17      0.5119  11.4266   8.5756   H         1 RES1   0.0000
    42 H18      0.4369  12.8120   7.7779   H         1 RES1   0.0000
    43 C14     -1.4188  11.3084   6.6068   C.3       1 RES1   0.0000
    44 H19     -1.6591  12.2531   6.7085   H         1 RES1   0.0000
    45 H20     -1.7713  10.7983   7.3657   H         1 RES1   0.0000
    46 H21     -1.8020  10.9618   5.7741   H         1 RES1   0.0000
    47 C15      0.4403   9.6941   6.6155   C.3       1 RES1   0.0000
    48 H22      0.0285   9.2404   5.8509   H         1 RES1   0.0000
    49 H23      0.0935   9.3115   7.4483   H         1 RES1   0.0000
    50 H24      1.4127   9.5745   6.5813   H         1 RES1   0.0000
    51 C16     -1.1436  10.2034   2.8110   C.2       1 RES1   0.0000
    52 H25     -1.5919  11.0379   2.7377   H         1 RES1   0.0000
    53 C17     -1.7036   8.9823   2.6327   C.2       1 RES1   0.0000
    54 H26     -2.6103   8.8092   2.4071   H         1 RES1   0.0000
    55 C18     -0.7021   8.0178   2.8413   C.2       1 RES1   0.0000
    56 H27     -0.8126   7.0763   2.7787   H         1 RES1   0.0000
    57 C19      0.4625   8.6756   3.1516   C.2       1 RES1   0.0000
    58 C20      1.8371   8.2484   3.5773   C.3       1 RES1   0.0000
    59 H28      2.1632   7.6682   2.8311   H         1 RES1   0.0000
    60 C21      1.7855   7.3334   4.7765   C.2       1 RES1   0.0000
    61 C22      0.9041   6.3895   5.2394   C.2       1 RES1   0.0000
    62 H29      0.0498   6.1936   4.8717   H         1 RES1   0.0000
    63 C23      1.4916   5.7609   6.3609   C.2       1 RES1   0.0000
    64 H30      1.1051   5.0667   6.8813   H         1 RES1   0.0000
    65 C24      2.7067   6.3267   6.5593   C.2       1 RES1   0.0000
    66 H31      3.3253   6.0907   7.2405   H         1 RES1   0.0000
    67 C25      5.1465   9.1897   8.0399   C.3       1 RES1   0.0000
    68 C26      4.3389  10.4328   7.8486   C.3       1 RES1   0.0000
    69 H32      4.8028  11.0316   7.2272   H         1 RES1   0.0000
    70 H33      4.2239  10.8832   8.7118   H         1 RES1   0.0000
    71 H34      3.4606  10.1984   7.4832   H         1 RES1   0.0000
    72 C27      4.4329   8.3276   9.0539   C.3       1 RES1   0.0000
    73 H35      3.5629   8.0536   8.6951   H         1 RES1   0.0000
    74 H36      4.2992   8.8375   9.8802   H         1 RES1   0.0000
    75 H37      4.9726   7.5322   9.2448   H         1 RES1   0.0000
    76 C28      6.5011   9.5843   8.5404   C.3       1 RES1   0.0000
    77 H38      7.0228   8.7789   8.7399   H         1 RES1   0.0000
    78 H39      6.4043  10.1206   9.3551   H         1 RES1   0.0000
    79 H40      6.9620  10.1110   7.8551   H         1 RES1   0.0000
    80 C29      5.9778   7.4622   6.3657   C.2       1 RES1   0.0000
    81 C30      7.1015   6.8792   7.1411   C.ar      1 RES1   0.0000
    82 C31      6.8738   5.9384   8.1437   C.ar      1 RES1   0.0000
    83 H41      5.9859   5.6648   8.3434   H         1 RES1   0.0000
    84 C32      7.9346   5.4021   8.8486   C.ar      1 RES1   0.0000
    85 H42      7.7753   4.7625   9.5326   H         1 RES1   0.0000
    86 C33      9.2179   5.7931   8.5609   C.ar      1 RES1   0.0000
    87 H43      9.9471   5.4214   9.0435   H         1 RES1   0.0000
    88 C34      9.4500   6.7223   7.5749   C.ar      1 RES1   0.0000
    89 H44     10.3401   6.9915   7.3821   H         1 RES1   0.0000
    90 C35      8.4020   7.2682   6.8623   C.ar      1 RES1   0.0000
    91 H45      8.5713   7.9093   6.1819   H         1 RES1   0.0000
    92 C36      5.9176   5.8527   4.3987   C.3       1 RES1   0.0000
    93 C37      4.9307   5.8138   3.2350   C.3       1 RES1   0.0000
    94 H46      4.0145   5.8336   3.5827   H         1 RES1   0.0000
    95 H47      5.0664   4.9919   2.7189   H         1 RES1   0.0000
    96 H48      5.0771   6.5910   2.6563   H         1 RES1   0.0000
    97 C38      7.3406   5.8665   3.8794   C.3       1 RES1   0.0000
    98 H49      7.4983   6.6950   3.3802   H         1 RES1   0.0000
    99 H50      7.4801   5.0975   3.2882   H         1 RES1   0.0000
   100 H51      7.9642   5.8160   4.6337   H         1 RES1   0.0000
   101 C39      5.6642   4.6014   5.2355   C.3       1 RES1   0.0000
   102 H52      6.3072   4.5670   5.9744   H         1 RES1   0.0000
   103 H53      5.7699   3.8056   4.6733   H         1 RES1   0.0000
   104 H54      4.7534   4.6281   5.5960   H         1 RES1   0.0000
   105 C40      3.7179  10.6557   0.2942   C.3       1 RES1   0.0000
   106 H55      2.7564  10.7699   0.1428   H         1 RES1   0.0000
   107 H56      4.1396  10.3191  -0.5239   H         1 RES1   0.0000
   108 H57      4.1154  11.5183   0.5355   H         1 RES1   0.0000
   109 C41      3.2985   8.0188   0.7209   C.3       1 RES1   0.0000
   110 H58      3.5046   7.1875   1.1970   H         1 RES1   0.0000
   111 H59      3.6991   7.9917  -0.1729   H         1 RES1   0.0000
   112 H60      2.3263   8.1162   0.6401   H         1 RES1   0.0000
   113 C42      5.7849   9.1501   1.3711   C.3       1 RES1   0.0000
   114 H61      6.2877   9.9729   1.5471   H         1 RES1   0.0000
   115 H62      5.9245   8.8749   0.4409   H         1 RES1   0.0000
   116 H63      6.0978   8.4416   1.9717   H         1 RES1   0.0000
   117 C43      4.2014  12.8053   5.2496   C.3       1 RES1   0.0000
   118 H64      3.4948  13.3485   4.8423   H         1 RES1   0.0000
   119 H65      4.9653  13.3770   5.4730   H         1 RES1   0.0000
   120 H66      3.8597  12.3832   6.0654   H         1 RES1   0.0000
   121 C44      5.2608  12.6786   2.7352   C.3       1 RES1   0.0000
   122 H67      5.7859  12.1986   2.0615   H         1 RES1   0.0000
   123 H68      5.8066  13.3913   3.1283   H         1 RES1   0.0000
   124 H69      4.4674  13.0699   2.3133   H         1 RES1   0.0000
   125 C45      6.4332  11.1360   4.6796   C.3       1 RES1   0.0000
   126 H70      6.3739  10.6063   5.5020   H         1 RES1   0.0000
   127 H71      6.9013  11.9766   4.8654   H         1 RES1   0.0000
   128 H72      6.9264  10.6306   4.0003   H         1 RES1   0.0000
@<TRIPOS>BOND
     1     1     2    1
     2     3     1    1
     3     4     1    1
     4     5     1    1
     5     6     1    1
     6     7     5    1
     7     8     5    1
     8     9     5    1
     9    10     6    1
    10    11     6    1
    11    12     6    1
    12    13     7    1
    13    14    13    1
    14    15    14    1
    15    16    14    1
    16    17    14    1
    17    18    13    1
    18    19    18    1
    19    20    18    1
    20    21    18    1
    21    22    13    1
    22    23    22    1
    23    24    22    1
    24    25    22    1
    25    26     7    1
    26    27    26    1
    27    28    27   ar
    28    29    28    1
    29    30    28   ar
    30    31    30    1
    31    32    30   ar
    32    33    32    1
    33    34    32   ar
    34    35    34    1
    35    36    27   ar
    36    37    36    1
    37    38     8    1
    38    39    38    1
    39    40    39    1
    40    41    39    1
    41    42    39    1
    42    43    38    1
    43    44    43    1
    44    45    43    1
    45    46    43    1
    46    47    38    1
    47    48    47    1
    48    49    47    1
    49    50    47    1
    50    51     9    1
    51    52    51    1
    52    53    51    2
    53    54    53    1
    54    55    53    1
    55    56    55    1
    56    57     9    1
    57    58     1    1
    58    59    58    1
    59    60    10    1
    60    61    60    2
    61    62    61    1
    62    63    61    1
    63    64    63    1
    64    65    10    1
    65    66    65    1
    66    67    11    1
    67    68    67    1
    68    69    68    1
    69    70    68    1
    70    71    68    1
    71    72    67    1
    72    73    72    1
    73    74    72    1
    74    75    72    1
    75    76    67    1
    76    77    76    1
    77    78    76    1
    78    79    76    1
    79    80    11    1
    80    81    80    1
    81    82    81   ar
    82    83    82    1
    83    84    82   ar
    84    85    84    1
    85    86    84   ar
    86    87    86    1
    87    88    86   ar
    88    89    88    1
    89    90    81   ar
    90    91    90    1
    91    92    12    1
    92    93    92    1
    93    94    93    1
    94    95    93    1
    95    96    93    1
    96    97    92    1
    97    98    97    1
    98    99    97    1
    99   100    97    1
   100   101    92    1
   101   102   101    1
   102   103   101    1
   103   104   101    1
   104   105     3    1
   105   106   105    1
   106   107   105    1
   107   108   105    1
   108   109     3    1
   109   110   109    1
   110   111   109    1
   111   112   109    1
   112   113     3    1
   113   114   113    1
   114   115   113    1
   115   116   113    1
   116   117     4    1
   117   118   117    1
   118   119   117    1
   119   120   117    1
   120   121     4    1
   121   122   121    1
   122   123   121    1
   123   124   121    1
   124   125     4    1
   125   126   125    1
   126   127   125    1
   127   128   125    1
   128     8    26    2
   129    12    80    2
   130    34    36   ar
   131    55    57    2
   132    57    58    1
   133    58    60    1
   134    63    65    2
   135    88    90   ar
@<TRIPOS>SUBSTRUCTURE
     1 RES1        1 GROUP             0 ****  ****    0  
@<TRIPOS>CRYSIN
   11.1497   24.1478   17.8779   90.0000   94.2130   90.0000    14     1
