@<TRIPOS>MOLECULE
UHUBUX01
   123   136     3     0     0
SMALL
USER_CHARGES
****
Generated from the CSD

@<TRIPOS>ATOM
     1 Fe1      0.4693  11.5129   4.7677   Fe        1 RES1   1.0000
     2 O1      -1.1485  12.4447   4.5630   O.3       1 RES1   0.0000
     3 O2      -0.0529  10.1013   3.6327   O.3       1 RES1   0.0000
     4 N1       1.2966  12.3164   3.1583   N.2       1 RES1   0.0000
     5 N2       2.2569  10.6634   4.9605   N.ar      1 RES1   0.0000
     6 N3      -0.2681  10.6649   6.3765   N.2       1 RES1   0.0000
     7 N4       1.0051  12.9185   6.0660   N.ar      1 RES1   0.0000
     8 C1      -1.4117  13.3911   3.6741   C.ar      1 RES1   0.0000
     9 C2      -2.6848  14.0131   3.7695   C.ar      1 RES1   0.0000
    10 H1      -3.2744  13.7090   4.4505   H         1 RES1   0.0000
    11 C3      -3.1226  15.0166   2.9518   C.ar      1 RES1   0.0000
    12 H2      -3.9936  15.3826   3.0600   H         1 RES1   0.0000
    13 C4      -2.2231  15.5239   1.8976   C.ar      1 RES1   0.0000
    14 C5      -2.6789  16.5703   1.0485   C.ar      1 RES1   0.0000
    15 H3      -3.5393  16.9491   1.1810   H         1 RES1   0.0000
    16 C6      -1.8503  17.0416   0.0100   C.ar      1 RES1   0.0000
    17 H4      -2.1469  17.7409  -0.5599   H         1 RES1   0.0000
    18 C7      -0.5867  16.4663  -0.1695   C.ar      1 RES1   0.0000
    19 H5      -0.0334  16.7811  -0.8747   H         1 RES1   0.0000
    20 C8      -0.1169  15.4537   0.6468   C.ar      1 RES1   0.0000
    21 H6       0.7503  15.0942   0.4986   H         1 RES1   0.0000
    22 C9      -0.9380  14.9328   1.7352   C.ar      1 RES1   0.0000
    23 C10     -0.5273  13.8585   2.6255   C.ar      1 RES1   0.0000
    24 C11      0.7461  13.2364   2.4204   C.2       1 RES1   0.0000
    25 H7       1.2426  13.5253   1.6639   H         1 RES1   0.0000
    26 C12      2.5616  11.7437   2.8535   C.ar      1 RES1   0.0000
    27 C13      3.1139  10.9002   3.8450   C.ar      1 RES1   0.0000
    28 C14      2.7217   9.8970   5.9434   C.ar      1 RES1   0.0000
    29 H8       2.1802   9.7705   6.7142   H         1 RES1   0.0000
    30 C15      3.9816   9.2625   5.8950   C.ar      1 RES1   0.0000
    31 H9       4.2553   8.6991   6.6087   H         1 RES1   0.0000
    32 C16      4.8226   9.4590   4.8052   C.ar      1 RES1   0.0000
    33 H10      5.6781   9.0452   4.7710   H         1 RES1   0.0000
    34 C17      4.3736  10.2963   3.7367   C.ar      1 RES1   0.0000
    35 C18      5.1640  10.5443   2.5329   C.ar      1 RES1   0.0000
    36 H11      6.0373  10.1805   2.4418   H         1 RES1   0.0000
    37 C19      4.6155  11.3151   1.5400   C.ar      1 RES1   0.0000
    38 H12      5.1076  11.4561   0.7394   H         1 RES1   0.0000
    39 C20      3.3320  11.9078   1.6739   C.ar      1 RES1   0.0000
    40 H13      2.9828  12.4262   0.9588   H         1 RES1   0.0000
    41 C21     -0.6512   8.9830   3.9604   C.ar      1 RES1   0.0000
    42 C22     -0.9531   8.1007   2.8791   C.ar      1 RES1   0.0000
    43 H14     -0.7305   8.3673   1.9944   H         1 RES1   0.0000
    44 C23     -1.5585   6.8768   3.0729   C.ar      1 RES1   0.0000
    45 H15     -1.7456   6.3202   2.3264   H         1 RES1   0.0000
    46 C24     -1.9140   6.4324   4.4177   C.ar      1 RES1   0.0000
    47 C25     -2.5356   5.1653   4.5901   C.ar      1 RES1   0.0000
    48 H16     -2.6900   4.6071   3.8379   H         1 RES1   0.0000
    49 C26     -2.9184   4.7434   5.8651   C.ar      1 RES1   0.0000
    50 H17     -3.3420   3.9013   5.9833   H         1 RES1   0.0000
    51 C27     -2.6738   5.5800   6.9777   C.ar      1 RES1   0.0000
    52 H18     -2.9255   5.2913   7.8467   H         1 RES1   0.0000
    53 C28     -2.0714   6.8103   6.8167   C.ar      1 RES1   0.0000
    54 H19     -1.9280   7.3586   7.5789   H         1 RES1   0.0000
    55 C29     -1.6559   7.2879   5.5189   C.ar      1 RES1   0.0000
    56 C30     -1.0316   8.5903   5.3010   C.ar      1 RES1   0.0000
    57 C31     -0.8375   9.4903   6.4050   C.2       1 RES1   0.0000
    58 H20     -1.1609   9.1990   7.2484   H         1 RES1   0.0000
    59 C32     -0.1256  11.4365   7.5646   C.ar      1 RES1   0.0000
    60 C33     -0.5650  11.1293   8.8682   C.ar      1 RES1   0.0000
    61 H21     -1.0168  10.3086   9.0291   H         1 RES1   0.0000
    62 C34     -0.3402  12.0272   9.9423   C.ar      1 RES1   0.0000
    63 H22     -0.6359  11.7961  10.8156   H         1 RES1   0.0000
    64 C35      0.3061  13.2410   9.7372   C.ar      1 RES1   0.0000
    65 H23      0.4262  13.8450  10.4609   H         1 RES1   0.0000
    66 C36      0.7940  13.5849   8.4194   C.ar      1 RES1   0.0000
    67 C37      1.4951  14.7828   8.1245   C.ar      1 RES1   0.0000
    68 H24      1.6503  15.4311   8.8012   H         1 RES1   0.0000
    69 C38      1.9499  14.9876   6.8210   C.ar      1 RES1   0.0000
    70 H25      2.4501  15.7652   6.6073   H         1 RES1   0.0000
    71 C39      1.6619  14.0375   5.8309   C.ar      1 RES1   0.0000
    72 H26      1.9545  14.2093   4.9448   H         1 RES1   0.0000
    73 C40      0.5727  12.6595   7.3794   C.ar      1 RES1   0.0000
    74 Cl1      1.3143   6.0751   0.5958   Cl        2 RES2   0.0000
    75 Cl2      2.5449   7.8967   2.4735   Cl        2 RES2   0.0000
    76 C41      1.9050   6.2608   2.2665   C.3       2 RES2   0.0000
    77 H27      1.1650   6.1055   2.9048   H         2 RES2   0.0000
    78 H28      2.6157   5.5972   2.4475   H         2 RES2   0.0000
    79 C42      4.7876   2.5079   1.4645   C.ar      3 RES3   0.0000
    80 C43      4.0998   3.3590   0.5969   C.ar      3 RES3   0.0000
    81 H29      3.8752   4.2274   0.9089   H         3 RES3   0.0000
    82 C44      3.7249   3.0154  -0.6895   C.ar      3 RES3   0.0000
    83 H30      3.2586   3.6513  -1.2223   H         3 RES3   0.0000
    84 C45      4.0148   1.7557  -1.2280   C.ar      3 RES3   0.0000
    85 H31      3.7481   1.5120  -2.1070   H         3 RES3   0.0000
    86 C46      4.7036   0.8978  -0.4174   C.ar      3 RES3   0.0000
    87 H32      4.9281   0.0367  -0.7522   H         3 RES3   0.0000
    88 C47      5.0984   1.2392   0.9117   C.ar      3 RES3   0.0000
    89 H33      5.5759   0.6063   1.4346   H         3 RES3   0.0000
    90 C48      6.0781   2.0001   3.8735   C.ar      3 RES3   0.0000
    91 C49      7.2497   2.3582   4.5744   C.ar      3 RES3   0.0000
    92 H34      7.5860   3.2421   4.4804   H         3 RES3   0.0000
    93 C50      7.9404   1.4531   5.4135   C.ar      3 RES3   0.0000
    94 H35      8.7240   1.7331   5.8708   H         3 RES3   0.0000
    95 C51      7.4715   0.1534   5.5688   C.ar      3 RES3   0.0000
    96 H36      7.9425  -0.4639   6.1158   H         3 RES3   0.0000
    97 C52      6.3158  -0.2307   4.9206   C.ar      3 RES3   0.0000
    98 H37      5.9792  -1.1125   5.0317   H         3 RES3   0.0000
    99 C53      5.6414   0.6773   4.1000   C.ar      3 RES3   0.0000
   100 H38      4.8451   0.3895   3.6698   H         3 RES3   0.0000
   101 C54      6.1635   4.3939   2.5472   C.ar      3 RES3   0.0000
   102 C55      5.6487   5.7163   2.5728   C.ar      3 RES3   0.0000
   103 H39      4.8342   5.8796   3.0344   H         3 RES3   0.0000
   104 C56      6.2954   6.7934   1.9432   C.ar      3 RES3   0.0000
   105 H40      5.9027   7.6581   1.9745   H         3 RES3   0.0000
   106 C57      7.5231   6.6092   1.2650   C.ar      3 RES3   0.0000
   107 H41      7.9550   7.3377   0.8362   H         3 RES3   0.0000
   108 C58      8.0848   5.3319   1.2408   C.ar      3 RES3   0.0000
   109 H42      8.9159   5.1836   0.8049   H         3 RES3   0.0000
   110 C59      7.4165   4.2675   1.8605   C.ar      3 RES3   0.0000
   111 H43      7.8178   3.4075   1.8249   H         3 RES3   0.0000
   112 C60      3.8825   3.4886   3.8550   C.ar      3 RES3   0.0000
   113 C61      2.5735   3.0664   3.5287   C.ar      3 RES3   0.0000
   114 H44      2.4497   2.4918   2.7823   H         3 RES3   0.0000
   115 C62      1.4436   3.4644   4.2710   C.ar      3 RES3   0.0000
   116 H45      0.5832   3.1593   4.0088   H         3 RES3   0.0000
   117 C63      1.5632   4.3027   5.3893   C.ar      3 RES3   0.0000
   118 H46      0.7965   4.5901   5.8708   H         3 RES3   0.0000
   119 C64      2.8525   4.7013   5.7753   C.ar      3 RES3   0.0000
   120 H47      2.9701   5.2505   6.5418   H         3 RES3   0.0000
   121 C65      3.9608   4.2908   5.0331   C.ar      3 RES3   0.0000
   122 H48      4.8208   4.5623   5.3309   H         3 RES3   0.0000
   123 B1       5.2314   3.0855   2.9703   B         3 RES3  -1.0000
@<TRIPOS>BOND
     1     1     2    1
     2     2     8    1
     3     3     1    1
     4     4     1    1
     5     5     1    1
     6     6     1    1
     7     7     1    1
     8     8     9   ar
     9     9    10    1
    10    11     9   ar
    11    12    11    1
    12    13    11   ar
    13    14    13   ar
    14    15    14    1
    15    16    14   ar
    16    17    16    1
    17    18    16   ar
    18    19    18    1
    19    20    18   ar
    20    21    20    1
    21    22    13   ar
    22    23     8   ar
    23    24     4    2
    24    25    24    1
    25    26     4    1
    26    27     5   ar
    27    28     5   ar
    28    29    28    1
    29    30    28   ar
    30    31    30    1
    31    32    30   ar
    32    33    32    1
    33    34    27   ar
    34    35    34   ar
    35    36    35    1
    36    37    35   ar
    37    38    37    1
    38    39    26   ar
    39    40    39    1
    40    41     3    1
    41    42    41   ar
    42    43    42    1
    43    44    42   ar
    44    45    44    1
    45    46    44   ar
    46    47    46   ar
    47    48    47    1
    48    49    47   ar
    49    50    49    1
    50    51    49   ar
    51    52    51    1
    52    53    51   ar
    53    54    53    1
    54    55    46   ar
    55    56    41   ar
    56    57     6    2
    57    58    57    1
    58    59     6    1
    59    60    59   ar
    60    61    60    1
    61    62    60   ar
    62    63    62    1
    63    64    62   ar
    64    65    64    1
    65    66    64   ar
    66    67    66   ar
    67    68    67    1
    68    69    67   ar
    69    70    69    1
    70    71     7   ar
    71    72    71    1
    72    73     7   ar
    73    20    22   ar
    74    22    23   ar
    75    23    24    1
    76    26    27   ar
    77    32    34   ar
    78    37    39   ar
    79    53    55   ar
    80    55    56   ar
    81    56    57    1
    82    59    73   ar
    83    66    73   ar
    84    69    71   ar
    85    74    76    1
    86    75    76    1
    87    76    77    1
    88    78    76    1
    89    79    80   ar
    90    80    81    1
    91    82    80   ar
    92    83    82    1
    93    84    82   ar
    94    85    84    1
    95    86    84   ar
    96    87    86    1
    97    88    79   ar
    98    89    88    1
    99    90    91   ar
   100    91    92    1
   101    93    91   ar
   102    94    93    1
   103    95    93   ar
   104    96    95    1
   105    97    95   ar
   106    98    97    1
   107    99    90   ar
   108   100    99    1
   109   101   102   ar
   110   102   103    1
   111   104   102   ar
   112   105   104    1
   113   106   104   ar
   114   107   106    1
   115   108   106   ar
   116   109   108    1
   117   110   101   ar
   118   111   110    1
   119   112   113   ar
   120   113   114    1
   121   115   113   ar
   122   116   115    1
   123   117   115   ar
   124   118   117    1
   125   119   117   ar
   126   120   119    1
   127   121   112   ar
   128   122   121    1
   129   123    79    1
   130    86    88   ar
   131    90   123    1
   132    97    99   ar
   133   101   123    1
   134   108   110   ar
   135   112   123    1
   136   119   121   ar
@<TRIPOS>SUBSTRUCTURE
     1 RES1        1 GROUP             0 ****  ****    0  
     2 RES2       74 GROUP             0 ****  ****    0  
     3 RES3       79 GROUP             0 ****  ****    0  
@<TRIPOS>CRYSIN
   13.0090   13.8510   15.8750  112.6690  101.3050   92.7600     2     1
