@<TRIPOS>MOLECULE
UJEWEL
   112   121     3     0     0
SMALL
USER_CHARGES
****
Generated from the CSD

@<TRIPOS>ATOM
     1 Fe1      5.8985  10.3060   0.0000   Fe        1 RES1   2.0000
     2 O1       4.5761   9.5028  -4.1557   O.3       1 RES1   0.0000
     3 O2       5.0891   7.2966  -4.0075   O.2       1 RES1   0.0000
     4 O3       3.8671   8.0416 -10.2160   O.3       1 RES1   0.0000
     5 N1       5.0658  11.5806  -1.2645   N.ar      1 RES1   0.0000
     6 N2       4.5491   8.9829  -0.5275   N.ar      1 RES1   0.0000
     7 N3       4.7598  10.9448   1.4718   N.ar      1 RES1   0.0000
     8 C1       4.7163  11.1979  -2.5225   C.ar      1 RES1   0.0000
     9 C2       4.1592  12.0689  -3.4292   C.ar      1 RES1   0.0000
    10 H1       3.9467  11.7798  -4.2865   H         1 RES1   0.0000
    11 C3       3.9178  13.3768  -3.0553   C.ar      1 RES1   0.0000
    12 H2       3.5363  13.9770  -3.6548   H         1 RES1   0.0000
    13 C4       4.2497  13.7804  -1.7791   C.ar      1 RES1   0.0000
    14 H3       4.0927  14.6531  -1.5008   H         1 RES1   0.0000
    15 C5       4.8162  12.8644  -0.9325   C.ar      1 RES1   0.0000
    16 H4       5.0428  13.1443  -0.0752   H         1 RES1   0.0000
    17 C6       4.1728   8.9021  -1.8231   C.ar      1 RES1   0.0000
    18 C7       3.0299   8.2178  -2.2013   C.ar      1 RES1   0.0000
    19 H5       2.7479   8.2283  -3.0876   H         1 RES1   0.0000
    20 C8       2.3135   7.5207  -1.2537   C.ar      1 RES1   0.0000
    21 H6       1.5497   7.0493  -1.4965   H         1 RES1   0.0000
    22 C9       2.7368   7.5265   0.0580   C.ar      1 RES1   0.0000
    23 H7       2.2812   7.0349   0.7037   H         1 RES1   0.0000
    24 C10      3.8524   8.2753   0.3996   C.ar      1 RES1   0.0000
    25 C11      3.4186  11.1113   1.3300   C.ar      1 RES1   0.0000
    26 H8       3.0520  11.0522   0.4770   H         1 RES1   0.0000
    27 C12      2.5819  11.3624   2.3850   C.ar      1 RES1   0.0000
    28 H9       1.6691  11.4809   2.2453   H         1 RES1   0.0000
    29 C13      3.1071  11.4364   3.6484   C.ar      1 RES1   0.0000
    30 H10      2.5553  11.5819   4.3821   H         1 RES1   0.0000
    31 C14      4.4715  11.2900   3.8149   C.ar      1 RES1   0.0000
    32 H11      4.8477  11.3284   4.6646   H         1 RES1   0.0000
    33 C15      5.2676  11.0878   2.7137   C.ar      1 RES1   0.0000
    34 C16      5.0022   9.7274  -2.8093   C.3       1 RES1   0.0000
    35 C17      4.7349   8.2258  -4.6829   C.2       1 RES1   0.0000
    36 C18      4.4664   8.2060  -6.1236   C.ar      1 RES1   0.0000
    37 C19      4.2966   9.3622  -6.8895   C.ar      1 RES1   0.0000
    38 H12      4.3073  10.1968  -6.4781   H         1 RES1   0.0000
    39 C20      4.1132   9.2692  -8.2442   C.ar      1 RES1   0.0000
    40 H13      4.0112  10.0442  -8.7492   H         1 RES1   0.0000
    41 C21      4.0778   8.0290  -8.8684   C.ar      1 RES1   0.0000
    42 C22      4.2509   6.8652  -8.1282   C.ar      1 RES1   0.0000
    43 H14      4.2398   6.0331  -8.5440   H         1 RES1   0.0000
    44 C23      4.4413   6.9671  -6.7628   C.ar      1 RES1   0.0000
    45 H15      4.5537   6.1918  -6.2600   H         1 RES1   0.0000
    46 C24      3.7340   6.7760 -10.8656   C.3       1 RES1   0.0000
    47 H16      2.9878   6.3011 -10.4917   H         1 RES1   0.0000
    48 H17      3.5889   6.9112 -11.8045   H         1 RES1   0.0000
    49 H18      4.5355   6.2640 -10.7356   H         1 RES1   0.0000
    50 N1B      6.7312   9.0314   1.2645   N.ar      1 RES1   0.0000
    51 C1B      7.0807   9.4141   2.5225   C.ar      1 RES1   0.0000
    52 C2B      7.6378   8.5431   3.4292   C.ar      1 RES1   0.0000
    53 H1B      7.8503   8.8322   4.2865   H         1 RES1   0.0000
    54 C3B      7.8792   7.2352   3.0553   C.ar      1 RES1   0.0000
    55 H2B      8.2607   6.6350   3.6548   H         1 RES1   0.0000
    56 C4B      7.5473   6.8316   1.7791   C.ar      1 RES1   0.0000
    57 H3B      7.7043   5.9589   1.5008   H         1 RES1   0.0000
    58 C5B      6.9808   7.7476   0.9325   C.ar      1 RES1   0.0000
    59 H4B      6.7542   7.4677   0.0752   H         1 RES1   0.0000
    60 C16B     6.7948  10.8846   2.8093   C.3       1 RES1   0.0000
    61 O1B      7.2209  11.1092   4.1557   O.3       1 RES1   0.0000
    62 C17B     7.0621  12.3862   4.6829   C.2       1 RES1   0.0000
    63 O2B      6.7079  13.3154   4.0075   O.2       1 RES1   0.0000
    64 C18B     7.3306  12.4060   6.1236   C.ar      1 RES1   0.0000
    65 C19B     7.5004  11.2498   6.8895   C.ar      1 RES1   0.0000
    66 H12B     7.4897  10.4152   6.4781   H         1 RES1   0.0000
    67 C20B     7.6838  11.3428   8.2442   C.ar      1 RES1   0.0000
    68 H13B     7.7858  10.5678   8.7492   H         1 RES1   0.0000
    69 C21B     7.7192  12.5830   8.8684   C.ar      1 RES1   0.0000
    70 O3B      7.9299  12.5704  10.2160   O.3       1 RES1   0.0000
    71 C24B     8.0630  13.8360  10.8656   C.3       1 RES1   0.0000
    72 H16B     8.8092  14.3109  10.4917   H         1 RES1   0.0000
    73 H17B     8.2081  13.7008  11.8045   H         1 RES1   0.0000
    74 H18B     7.2615  14.3480  10.7356   H         1 RES1   0.0000
    75 C22B     7.5461  13.7468   8.1282   C.ar      1 RES1   0.0000
    76 H14B     7.5572  14.5789   8.5440   H         1 RES1   0.0000
    77 C23B     7.3557  13.6449   6.7628   C.ar      1 RES1   0.0000
    78 H15B     7.2433  14.4202   6.2600   H         1 RES1   0.0000
    79 C6B      7.6242  11.7099   1.8231   C.ar      1 RES1   0.0000
    80 N2B      7.2479  11.6291   0.5275   N.ar      1 RES1   0.0000
    81 N3B      7.0372   9.6672  -1.4718   N.ar      1 RES1   0.0000
    82 C11B     8.3784   9.5007  -1.3300   C.ar      1 RES1   0.0000
    83 H8B      8.7450   9.5598  -0.4770   H         1 RES1   0.0000
    84 C12B     9.2151   9.2496  -2.3850   C.ar      1 RES1   0.0000
    85 H9B     10.1279   9.1311  -2.2453   H         1 RES1   0.0000
    86 C13B     8.6899   9.1756  -3.6484   C.ar      1 RES1   0.0000
    87 H10B     9.2417   9.0301  -4.3821   H         1 RES1   0.0000
    88 C14B     7.3255   9.3220  -3.8149   C.ar      1 RES1   0.0000
    89 H11B     6.9493   9.2836  -4.6646   H         1 RES1   0.0000
    90 C15B     6.5294   9.5242  -2.7137   C.ar      1 RES1   0.0000
    91 C10B     7.9446  12.3367  -0.3996   C.ar      1 RES1   0.0000
    92 C9B      9.0602  13.0855  -0.0580   C.ar      1 RES1   0.0000
    93 C8B      9.4835  13.0913   1.2537   C.ar      1 RES1   0.0000
    94 C7B      8.7671  12.3942   2.2013   C.ar      1 RES1   0.0000
    95 H5B      9.0491  12.3837   3.0876   H         1 RES1   0.0000
    96 H6B     10.2473  13.5627   1.4965   H         1 RES1   0.0000
    97 H7B      9.5158  13.5771  -0.7037   H         1 RES1   0.0000
    98 F1       0.0131  12.4445   3.8417   F         2 RES2   0.0000
    99 F2       0.0864  14.5409   3.0022   F         2 RES2   0.0000
   100 F3      -1.4482  13.9760   4.5724   F         2 RES2   0.0000
   101 F4       0.7367  14.1819   5.1229   F         2 RES2   0.0000
   102 B1      -0.1453  13.7781   4.1415   B         2 RES2  -1.0000
   103 O4       3.6101   7.6827   3.6054   O.2       3 RES3   0.0000
   104 C25      4.3910   5.5158   3.0757   C.3       3 RES3   0.0000
   105 H19      4.8160   5.9527   2.3355   H         3 RES3   0.0000
   106 H20      3.7768   4.8562   2.7470   H         3 RES3   0.0000
   107 H21      5.0575   5.0891   3.6215   H         3 RES3   0.0000
   108 C26      3.6589   6.5113   3.8826   C.2       3 RES3   0.0000
   109 C27      3.0018   5.9789   5.1073   C.3       3 RES3   0.0000
   110 H22      3.6608   5.8476   5.7927   H         3 RES3   0.0000
   111 H23      2.5783   5.1406   4.9053   H         3 RES3   0.0000
   112 H24      2.3414   6.6041   5.4134   H         3 RES3   0.0000
@<TRIPOS>BOND
     1     1     5    1
     2     2    34    1
     3     3    35    2
     4     4    41    1
     5     5     8   ar
     6     6     1    1
     7     7     1    1
     8     8     9   ar
     9     9    10    1
    10    11     9   ar
    11    12    11    1
    12    13    11   ar
    13    14    13    1
    14    15     5   ar
    15    16    15    1
    16    17     6   ar
    17    18    17   ar
    18    19    18    1
    19    20    18   ar
    20    21    20    1
    21    22    20   ar
    22    23    22    1
    23    24     6   ar
    24    25     7   ar
    25    26    25    1
    26    27    25   ar
    27    28    27    1
    28    29    27   ar
    29    30    29    1
    30    31    29   ar
    31    32    31    1
    32    33     7   ar
    33    34     8    1
    34    35     2    1
    35    36    35    1
    36    37    36   ar
    37    38    37    1
    38    39    37   ar
    39    40    39    1
    40    41    39   ar
    41    42    41   ar
    42    43    42    1
    43    44    36   ar
    44    45    44    1
    45    46     4    1
    46    47    46    1
    47    48    46    1
    48    49    46    1
    49    50     1    1
    50    51    50   ar
    51    52    51   ar
    52    53    52    1
    53    54    52   ar
    54    55    54    1
    55    56    54   ar
    56    57    56    1
    57    58    50   ar
    58    59    58    1
    59    60    33    1
    60    61    60    1
    61    62    61    1
    62    63    62    2
    63    64    62    1
    64    65    64   ar
    65    66    65    1
    66    67    65   ar
    67    68    67    1
    68    69    67   ar
    69    70    69    1
    70    71    70    1
    71    72    71    1
    72    73    71    1
    73    74    71    1
    74    75    69   ar
    75    76    75    1
    76    77    64   ar
    77    78    77    1
    78    79    60    1
    79    80     1    1
    80    81     1    1
    81    82    81   ar
    82    83    82    1
    83    84    82   ar
    84    85    84    1
    85    86    84   ar
    86    87    86    1
    87    88    86   ar
    88    89    88    1
    89    90    34    1
    90    91    80   ar
    91    92    91   ar
    92    93    92   ar
    93    94    79   ar
    94    95    94    1
    95    96    93    1
    96    97    92    1
    97    13    15   ar
    98    17    34    1
    99    22    24   ar
   100    31    33   ar
   101    42    44   ar
   102    51    60    1
   103    56    58   ar
   104    75    77   ar
   105    79    80   ar
   106    81    90   ar
   107    88    90   ar
   108    93    94   ar
   109    98   102    1
   110    99   102    1
   111   100   102    1
   112   101   102    1
   113   103   108    2
   114   104   105    1
   115   106   104    1
   116   107   104    1
   117   108   104    1
   118   109   108    1
   119   110   109    1
   120   111   109    1
   121   112   109    1
@<TRIPOS>SUBSTRUCTURE
     1 RES1        1 GROUP             0 ****  ****    0  
     2 RES2       98 GROUP             0 ****  ****    0  
     3 RES3      103 GROUP             0 ****  ****    0  
@<TRIPOS>CRYSIN
   11.7970   20.6120   11.7800   90.0000  114.2200   90.0000    14     1
