@<TRIPOS>MOLECULE
UKUNOD
   140   192     1     0     0
SMALL
NO_CHARGES
****
Generated from the CSD

@<TRIPOS>ATOM
     1 Fe1      8.3052   8.4799  13.3231   Fe        1 RES1   0.0000
     2 Fe2      5.2789   9.6351  12.1983   Fe        1 RES1   0.0000
     3 Fe3      8.1699   5.5792  15.1225   Fe        1 RES1   0.0000
     4 Fe4     10.8580   8.6889  11.0510   Fe        1 RES1   0.0000
     5 Fe5      7.2748  11.8781  13.0502   Fe        1 RES1   0.0000
     6 Fe6      5.8677  10.2797  15.2037   Fe        1 RES1   0.0000
     7 Fe7     10.1991  11.3752  12.4683   Fe        1 RES1   0.0000
     8 O1       6.9637   9.8833  13.5147   O.3       1 RES1   0.0000
     9 O2       8.5302   7.6879  15.0947   O.3       1 RES1   0.0000
    10 O3       9.9960   9.3607  12.8635   O.3       1 RES1   0.0000
    11 Cl1      3.4596   9.4446  10.8775   Cl        1 RES1   0.0000
    12 Cl2      7.7944   3.3575  15.1604   Cl        1 RES1   0.0000
    13 Cl3     11.8273   8.0252   9.1091   Cl        1 RES1   0.0000
    14 O4      10.5189  13.3714  12.4794   O.3       1 RES1   0.0000
    15 C1      11.0639  14.2312  11.6047   C.2       1 RES1   0.0000
    16 O5       7.7043  13.8725  13.0504   O.3       1 RES1   0.0000
    17 C2       7.1675  14.9507  12.2691   C.3       1 RES1   0.0000
    18 O6       5.6793  11.5737  11.8383   O.3       1 RES1   0.0000
    19 C3       4.9614  12.5193  11.0542   C.3       1 RES1   0.0000
    20 O7       6.1251  12.1372  14.6201   O.3       1 RES1   0.0000
    21 C4       5.0731  13.1764  14.6946   C.3       1 RES1   0.0000
    22 O8       4.2479  10.0490  13.9236   O.3       1 RES1   0.0000
    23 C5       3.1131  10.5813  13.9762   C.2       1 RES1   0.0000
    24 O9       5.0760  10.9264  16.9624   O.3       1 RES1   0.0000
    25 C6       3.7608  11.1311  17.3654   C.2       1 RES1   0.0000
    26 O10      5.6812   8.4073  15.7504   O.3       1 RES1   0.0000
    27 C7       4.3946   7.8887  16.1797   C.3       1 RES1   0.0000
    28 O11     11.0292  10.6612  10.7548   O.3       1 RES1   0.0000
    29 C8      11.6745  11.3144   9.7064   C.2       1 RES1   0.0000
    30 O12      8.4795  11.5679  11.5273   O.3       1 RES1   0.0000
    31 C9       8.3331  12.2405  10.2364   C.3       1 RES1   0.0000
    32 N1       5.3627   7.6021  12.7758   N.ar      1 RES1   0.0000
    33 N2       6.5680   7.1458  13.2022   N.ar      1 RES1   0.0000
    34 N3       6.5012   6.0013  13.8550   N.ar      1 RES1   0.0000
    35 C10      4.4749   6.6428  13.2037   C.ar      1 RES1   0.0000
    36 C11      3.0511   6.6233  13.0314   C.ar      1 RES1   0.0000
    37 H1       2.5906   7.3135  12.5685   H         1 RES1   0.0000
    38 C12      2.4044   5.5665  13.5644   C.ar      1 RES1   0.0000
    39 H2       1.4590   5.5061  13.4826   H         1 RES1   0.0000
    40 C13      3.1016   4.5585  14.2361   C.ar      1 RES1   0.0000
    41 H3       2.6020   3.8313  14.5880   H         1 RES1   0.0000
    42 C14      4.4783   4.5507  14.4201   C.ar      1 RES1   0.0000
    43 H4       4.9307   3.8586  14.8859   H         1 RES1   0.0000
    44 C15      5.1569   5.6699  13.8550   C.ar      1 RES1   0.0000
    45 N4       9.3042   5.5392  13.2884   N.ar      1 RES1   0.0000
    46 N5       9.3503   6.6935  12.6532   N.ar      1 RES1   0.0000
    47 N6      10.2696   6.7091  11.7055   N.ar      1 RES1   0.0000
    48 C16     10.2433   4.7457  12.7306   C.ar      1 RES1   0.0000
    49 C17     10.6224   3.4218  13.0226   C.ar      1 RES1   0.0000
    50 H5      10.2031   2.9149  13.7089   H         1 RES1   0.0000
    51 C18     11.6189   2.9188  12.2647   C.ar      1 RES1   0.0000
    52 H6      11.9098   2.0297  12.4268   H         1 RES1   0.0000
    53 C19     12.2636   3.6753  11.2177   C.ar      1 RES1   0.0000
    54 H7      12.9606   3.2697  10.7139   H         1 RES1   0.0000
    55 C20     11.9015   4.9368  10.9374   C.ar      1 RES1   0.0000
    56 H8      12.3238   5.4340  10.2467   H         1 RES1   0.0000
    57 C21     10.8695   5.4885  11.7142   C.ar      1 RES1   0.0000
    58 N7       8.8609   8.7505  10.2671   N.ar      1 RES1   0.0000
    59 N8       7.9040   8.6881  11.1973   N.ar      1 RES1   0.0000
    60 N9       6.7266   9.0390  10.7227   N.ar      1 RES1   0.0000
    61 C22      8.2698   9.1619   9.1120   C.ar      1 RES1   0.0000
    62 C23      8.8098   9.4036   7.8460   C.ar      1 RES1   0.0000
    63 H9       9.7330   9.2808   7.6591   H         1 RES1   0.0000
    64 C24      7.9362   9.8267   6.8997   C.ar      1 RES1   0.0000
    65 H10      8.2635  10.0022   6.0250   H         1 RES1   0.0000
    66 C25      6.6140  10.0081   7.1494   C.ar      1 RES1   0.0000
    67 H11      6.0543  10.3064   6.4412   H         1 RES1   0.0000
    68 C26      6.0409   9.7799   8.3936   C.ar      1 RES1   0.0000
    69 H12      5.1146   9.9086   8.5586   H         1 RES1   0.0000
    70 C27      6.9334   9.3452   9.3924   C.ar      1 RES1   0.0000
    71 Fe7B     7.3702   8.1223  16.7369   Fe        1 RES1   0.0000
    72 Fe5B    10.2946   7.6194  16.1550   Fe        1 RES1   0.0000
    73 Fe6B    11.7016   9.2178  14.0016   Fe        1 RES1   0.0000
    74 O3B      7.5733  10.1368  16.3418   O.3       1 RES1   0.0000
    75 Fe1B     9.2642  11.0176  15.8821   Fe        1 RES1   0.0000
    76 O1B     10.6056   9.6142  15.6905   O.3       1 RES1   0.0000
    77 Fe2B    12.2905   9.8624  17.0069   Fe        1 RES1   0.0000
    78 Cl1B    14.1097  10.0529  18.3278   Cl        1 RES1   0.0000
    79 O6B     11.8901   7.9238  17.3669   O.3       1 RES1   0.0000
    80 O4B      7.0504   6.1261  16.7258   O.3       1 RES1   0.0000
    81 O5B      9.8650   5.6250  16.1549   O.3       1 RES1   0.0000
    82 O2B      9.0392  11.8096  14.1105   O.3       1 RES1   0.0000
    83 N2B     11.0013  12.3517  16.0030   N.ar      1 RES1   0.0000
    84 N1B     12.2067  11.8954  16.4294   N.ar      1 RES1   0.0000
    85 O8B     13.3214   9.4485  15.2816   O.3       1 RES1   0.0000
    86 O7B     11.4443   7.3603  14.5851   O.3       1 RES1   0.0000
    87 O12B     9.0898   7.9296  17.6779   O.3       1 RES1   0.0000
    88 Fe4B     6.7114  10.8086  18.1543   Fe        1 RES1   0.0000
    89 Cl3B     5.7421  11.4723  20.0961   Cl        1 RES1   0.0000
    90 Fe3B     9.3994  13.9183  14.0828   Fe        1 RES1   0.0000
    91 Cl2B     9.7749  16.1400  14.0448   Cl        1 RES1   0.0000
    92 O10B    11.8881  11.0902  13.4549   O.3       1 RES1   0.0000
    93 O9B     12.4934   8.5711  12.2428   O.3       1 RES1   0.0000
    94 N3B     11.0681  13.4962  15.3503   N.ar      1 RES1   0.0000
    95 C15B    12.4124  13.8276  15.3503   C.ar      1 RES1   0.0000
    96 C10B    13.0944  12.8547  16.0016   C.ar      1 RES1   0.0000
    97 C11B    14.5182  12.8742  16.1739   C.ar      1 RES1   0.0000
    98 H1B     14.9788  12.1840  16.6368   H         1 RES1   0.0000
    99 C12B    15.1649  13.9310  15.6409   C.ar      1 RES1   0.0000
   100 H2B     16.1103  13.9914  15.7226   H         1 RES1   0.0000
   101 C13B    14.4678  14.9390  14.9692   C.ar      1 RES1   0.0000
   102 H3B     14.9673  15.6662  14.6172   H         1 RES1   0.0000
   103 C14B    13.0910  14.9468  14.7852   C.ar      1 RES1   0.0000
   104 H4B     12.6386  15.6389  14.3193   H         1 RES1   0.0000
   105 N4B      8.2651  13.9583  15.9169   N.ar      1 RES1   0.0000
   106 N5B      8.2191  12.8040  16.5521   N.ar      1 RES1   0.0000
   107 N8B      9.6653  10.8094  18.0080   N.ar      1 RES1   0.0000
   108 N7B      8.7085  10.7470  18.9381   N.ar      1 RES1   0.0000
   109 O11B     6.5402   8.8363  18.4504   O.3       1 RES1   0.0000
   110 C8B      5.8949   8.1831  19.4989   C.2       1 RES1   0.0000
   111 N6B      7.2998  12.7884  17.4998   N.ar      1 RES1   0.0000
   112 C21B     6.6999  14.0090  17.4910   C.ar      1 RES1   0.0000
   113 C16B     7.3261  14.7518  16.4747   C.ar      1 RES1   0.0000
   114 C17B     6.9470  16.0757  16.1826   C.ar      1 RES1   0.0000
   115 H5B      7.3663  16.5826  15.4963   H         1 RES1   0.0000
   116 C18B     5.9505  16.5787  16.9405   C.ar      1 RES1   0.0000
   117 H6B      5.6595  17.4678  16.7784   H         1 RES1   0.0000
   118 C19B     5.3057  15.8222  17.9875   C.ar      1 RES1   0.0000
   119 H7B      4.6088  16.2278  18.4913   H         1 RES1   0.0000
   120 C20B     5.6679  14.5607  18.2679   C.ar      1 RES1   0.0000
   121 H8B      5.2455  14.0635  18.9586   H         1 RES1   0.0000
   122 C22B     9.2995  10.3356  20.0932   C.ar      1 RES1   0.0000
   123 C23B     8.7595  10.0939  21.3593   C.ar      1 RES1   0.0000
   124 H9B      7.8363  10.2167  21.5462   H         1 RES1   0.0000
   125 C24B     9.6332   9.6708  22.3055   C.ar      1 RES1   0.0000
   126 H10B     9.3059   9.4953  23.1802   H         1 RES1   0.0000
   127 C25B    10.9553   9.4894  22.0558   C.ar      1 RES1   0.0000
   128 H11B    11.5151   9.1911  22.7640   H         1 RES1   0.0000
   129 C26B    11.5284   9.7176  20.8117   C.ar      1 RES1   0.0000
   130 H12B    12.4548   9.5889  20.6467   H         1 RES1   0.0000
   131 C27B    10.6359  10.1523  19.8128   C.ar      1 RES1   0.0000
   132 N9B     10.8428  10.4585  18.4825   N.ar      1 RES1   0.0000
   133 C6B     13.8086   8.3664  11.8398   C.2       1 RES1   0.0000
   134 C7B     13.1748  11.6088  13.0255   C.3       1 RES1   0.0000
   135 C9B      9.2362   7.2570  18.9688   C.3       1 RES1   0.0000
   136 C4B     12.4962   6.3211  14.5106   C.3       1 RES1   0.0000
   137 C5B     14.4563   8.9162  15.2291   C.2       1 RES1   0.0000
   138 C2B     10.4018   4.5468  16.9361   C.3       1 RES1   0.0000
   139 C1B      6.5055   5.2663  17.6005   C.2       1 RES1   0.0000
   140 C3B     12.6079   6.9782  18.1511   C.3       1 RES1   0.0000
@<TRIPOS>BOND
     1     1     8    1
     2     2     8    1
     3     3     9    1
     4     4    10    1
     5     5     6    1
     6     6     8    1
     7     7     5    1
     8     8     5    1
     9     9     1    1
    10    10     1    1
    11    11     2    1
    12    12     3    1
    13    13     4    1
    14    14     7    1
    15    15    14    1
    16    16     5    1
    17    17    16    1
    18    18     2    1
    19    19    18    1
    20    20     5    1
    21    21    20    1
    22    22     2    1
    23    23    22    1
    24    24     6    1
    25    25    24    1
    26    26     6    1
    27    27    26    1
    28    28     4    1
    29    29    28    1
    30    30     5    1
    31    31    30    1
    32    32     2    1
    33    33     1    1
    34    34     3    1
    35    35    32   ar
    36    36    35   ar
    37    37    36    1
    38    38    36   ar
    39    39    38    1
    40    40    38   ar
    41    41    40    1
    42    42    40   ar
    43    43    42    1
    44    44    34   ar
    45    45     3    1
    46    46     1    1
    47    47     4    1
    48    48    45   ar
    49    49    48   ar
    50    50    49    1
    51    51    49   ar
    52    52    51    1
    53    53    51   ar
    54    54    53    1
    55    55    53   ar
    56    56    55    1
    57    57    47   ar
    58    58     4    1
    59    59     1    1
    60    60     2    1
    61    61    58   ar
    62    62    61   ar
    63    63    62    1
    64    64    62   ar
    65    65    64    1
    66    66    64   ar
    67    67    66    1
    68    68    66   ar
    69    69    68    1
    70    70    60   ar
    71    71     6    1
    72    72     9    1
    73    73     7    1
    74    74     6    1
    75    75    74    1
    76    76    72    1
    77    77    76    1
    78    78    77    1
    79    79    72    1
    80    80     3    1
    81    81     3    1
    82    82     5    1
    83    83    75    1
    84    84    77    1
    85    85    73    1
    86    86    72    1
    87    87    71    1
    88    88    24    1
    89    89    88    1
    90    90    14    1
    91    91    90    1
    92    92     7    1
    93    93     4    1
    94    94    83   ar
    95    95    94   ar
    96    96    84   ar
    97    97    96   ar
    98    98    97    1
    99    99    97   ar
   100   100    99    1
   101   101    99   ar
   102   102   101    1
   103   103    95   ar
   104   104   103    1
   105   105    90    1
   106   106    75    1
   107   107    75    1
   108   108    88    1
   109   109    71    1
   110   110   109    1
   111   111    88    1
   112   112   111   ar
   113   113   105   ar
   114   114   113   ar
   115   115   114    1
   116   116   114   ar
   117   117   116    1
   118   118   116   ar
   119   119   118    1
   120   120   112   ar
   121   121   120    1
   122   122   108   ar
   123   123   122   ar
   124   124   123    1
   125   125   123   ar
   126   126   125    1
   127   127   125   ar
   128   128   127    1
   129   129   127   ar
   130   130   129    1
   131   131   122   ar
   132   132    77    1
   133   133    93    1
   134   134    92    1
   135   135    87    1
   136   136    86    1
   137   137    85    1
   138   138    81    1
   139   139    80    1
   140   140    79    1
   141     5    18    1
   142     6    20    1
   143     6    22    1
   144     7    10    1
   145     7    28    1
   146     7    30    1
   147     7    82    1
   148     9    71    1
   149    10    73    1
   150    16    90    1
   151    26    71    1
   152    32    33   ar
   153    33    34   ar
   154    35    44   ar
   155    42    44   ar
   156    45    46   ar
   157    46    47   ar
   158    48    57   ar
   159    55    57   ar
   160    58    59   ar
   161    59    60   ar
   162    61    70   ar
   163    68    70   ar
   164    71    72    1
   165    71    74    1
   166    71    80    1
   167    72    73    1
   168    72    81    1
   169    72    87    1
   170    73    76    1
   171    73    86    1
   172    73    92    1
   173    73    93    1
   174    74    88    1
   175    75    76    1
   176    75    82    1
   177    77    79    1
   178    77    85    1
   179    82    90    1
   180    83    84   ar
   181    88   109    1
   182    90    94    1
   183    95    96   ar
   184   101   103   ar
   185   105   106   ar
   186   106   111   ar
   187   107   108   ar
   188   107   132   ar
   189   112   113   ar
   190   118   120   ar
   191   129   131   ar
   192   131   132   ar
@<TRIPOS>SUBSTRUCTURE
     1 RES1        1 GROUP             0 ****  ****    0  
@<TRIPOS>CRYSIN
   14.2255   19.4975   15.5833   90.0000  110.4350   90.0000   231     1
