@<TRIPOS>MOLECULE
VABSUM
   111   154    12     0     0
SMALL
USER_CHARGES
****
Generated from the CSD

@<TRIPOS>ATOM
     1 Fe1     10.1753  -0.4223  11.4075   Fe        1 RES1  -1.0000
     2 Fe2     11.4810   0.5555   9.2344   Fe        1 RES1   0.0000
     3 Fe3     12.4200   0.6130   6.6802   Fe        1 RES1  -1.0000
     4 Fe4     10.5259  -1.3070   6.2913   Fe        1 RES1   0.0000
     5 Fe5     12.2613  -0.5551   4.2483   Fe        1 RES1   0.0000
     6 Fe6     11.0456  -2.3446   2.5332   Fe        1 RES1  -1.0000
     7 Fe7      9.3976  -3.1574   4.5633   Fe        1 RES1   0.0000
     8 Fe8      9.2241  -4.2508   2.0992   Fe        1 RES1   0.0000
     9 Fe9      8.6058  -1.8753  13.0599   Fe        1 RES1   0.0000
    10 S1      10.6646   1.7052  10.9318   S.3       1 RES1   0.0000
    11 S2      11.3902  -1.5745   9.8789   S.3       1 RES1   0.0000
    12 S3      10.2013   0.7413   7.2573   S.3       1 RES1   0.0000
    13 S4      13.4870   1.2812   8.4918   S.3       1 RES1   0.0000
    14 S5      12.8092  -1.6027   6.2430   S.3       1 RES1   0.0000
    15 S6      12.7905   1.5604   4.7096   S.3       1 RES1   0.0000
    16 S7      13.0537  -1.4550   2.3918   S.3       1 RES1   0.0000
    17 S8       9.9358  -0.9324   4.0425   S.3       1 RES1   0.0000
    18 S9       9.4290  -3.1898   6.8088   S.3       1 RES1   0.0000
    19 S10      7.4559  -3.6602   3.4639   S.3       1 RES1   0.0000
    20 S11     10.9776  -4.4180   3.5234   S.3       1 RES1   0.0000
    21 S12      9.8276  -2.6495   0.7056   S.3       1 RES1   0.0000
    22 S13      8.6383  -6.1447   1.2055   S.3       1 RES1   0.0000
    23 S14     10.6564  -1.1569  13.4618   S.3       1 RES1   0.0000
    24 S15      7.9574  -0.8060  11.2114   S.3       1 RES1   0.0000
    25 Na1      8.8729  -3.0123   9.6185   Na        1 RES1   0.0000
    26 Fe9A     7.3459  -5.9990   3.0138   Fe        1 RES1  -1.0000
    27 Fe8A     6.7276  -3.6235  13.9745   Fe        1 RES1  -1.0000
    28 S10A     8.4958  -4.2141  12.6099   S.3       1 RES1   0.0000
    29 S13A     7.3134  -1.7296  14.8682   S.3       1 RES1   0.0000
    30 Na1A     7.0788  -4.8620   6.4552   Na        1 RES1   0.0000
    31 S9A      6.5227  -4.6845   9.2649   S.3       1 RES1   0.0000
    32 Fe1A     5.7764  -7.4520   4.6662   Fe        1 RES1   0.0000
    33 S14A     5.2953  -6.7174   2.6120   S.3       1 RES1   0.0000
    34 S15A     7.9943  -7.0683   4.8623   S.3       1 RES1   0.0000
    35 Fe6A     4.9061  -5.5297  13.5405   Fe        1 RES1   0.0000
    36 Fe7A     6.5541  -4.7169  11.5104   Fe        1 RES1  -1.0000
    37 S11A     4.9741  -3.4563  12.5504   S.3       1 RES1   0.0000
    38 S12A     6.1241  -5.2248  15.3681   S.3       1 RES1   0.0000
    39 S2A      4.5615  -6.2998   6.1948   S.3       1 RES1   0.0000
    40 Fe4A     5.4258  -6.5673   9.7825   Fe        1 RES1   0.0000
    41 Fe2A     4.4707  -8.4298   6.8394   Fe        1 RES1  -1.0000
    42 S1A      5.2871  -9.5795   5.1420   S.3       1 RES1   0.0000
    43 Fe5A     3.6904  -7.3192  11.8255   Fe        1 RES1  -1.0000
    44 S7A      2.8980  -6.4193  13.6820   S.3       1 RES1   0.0000
    45 S8A      6.0159  -6.9419  12.0312   S.3       1 RES1   0.0000
    46 Fe3A     3.5317  -8.4873   9.3935   Fe        1 RES1   0.0000
    47 S3A      5.7504  -8.6156   8.8164   S.3       1 RES1   0.0000
    48 S5A      3.1425  -6.2716   9.8307   S.3       1 RES1   0.0000
    49 S4A      2.4647  -9.1554   7.5820   S.3       1 RES1   0.0000
    50 S6A      3.1612  -9.4347  11.3641   S.3       1 RES1   0.0000
    51 Na2     12.0689  -3.8990   8.0626   Na        2 RES2   1.0000
    52 N1       0.0398 -12.1016  18.7098   N.1       3 RES3   0.0000
    53 C1      -0.9412 -12.0977  19.5376   C.1       3 RES3   0.0000
    54 C2      -1.9829 -12.1142  20.3767   C.2       3 RES3   0.0000
    55 N2     -22.0927 -18.8753  22.9742   N.1       4 RES4   0.0000
    56 C3     -23.1626 -18.4721  23.1205   C.1       4 RES4   0.0000
    57 C4     -24.4795 -17.9698  23.3085   C.3       4 RES4   0.0000
    58 N3       3.7217 -16.4276  11.7708   N.1       5 RES5   0.0000
    59 C5       2.5014 -16.5638  11.9251   C.1       5 RES5   0.0000
    60 C6       1.2344 -16.8207  12.2257   C.2       5 RES5   0.0000
    61 N4     -16.8903 -23.3388  12.1646   N.1       6 RES6   0.0000
    62 C7     -16.8268 -22.1663  12.1743   C.1       6 RES6   0.0000
    63 C8     -16.7689 -20.7691  12.2369   C.2       6 RES6   0.0000
    64 N5      10.5258  -5.2020   9.4723   N.1       7 RES7   0.0000
    65 C9       9.9784  -6.1316   9.8291   C.1       7 RES7   0.0000
    66 C10      9.3429  -7.4017  10.3226   C.3       7 RES7   0.0000
    67 N6      14.3854  -3.7439   9.0929   N.1       8 RES8   0.0000
    68 C11     15.0548  -2.7492   8.8807   C.1       8 RES8   0.0000
    69 C12     15.8706  -1.6348   8.5480   C.3       8 RES8   0.0000
    70 N7      12.6554  -5.9546   6.9374   N.1       9 RES9   0.0000
    71 C13     12.2469  -6.7868   6.2430   C.1       9 RES9   0.0000
    72 C14     11.7727  -7.8015   5.3397   C.3       9 RES9   0.0000
    73 N8      -3.4851 -13.2991  15.1881   N.4      10 RES10   1.0000
    74 C15     -3.4414 -11.7990  15.4083   C.3      10 RES10   0.0000
    75 C16     -2.8643 -10.9611  14.2928   C.3      10 RES10   0.0000
    76 C17     -2.9588  -9.5137  14.6271   C.3      10 RES10   0.0000
    77 C18     -4.3720 -13.6925  13.9890   C.3      10 RES10   0.0000
    78 C19     -5.8100 -13.2415  14.0276   C.3      10 RES10   0.0000
    79 C20     -6.5094 -13.7813  12.7931   C.3      10 RES10   0.0000
    80 C21     -2.1244 -13.8638  14.9068   C.2      10 RES10   0.0000
    81 C22     -1.1246 -13.7077  15.9419   C.3      10 RES10   0.0000
    82 C23      0.2111 -14.2633  15.5819   C.3      10 RES10   0.0000
    83 C24     -4.0732 -13.8703  16.4643   C.3      10 RES10   0.0000
    84 C25     -4.3320 -15.3370  16.4836   C.3      10 RES10   0.0000
    85 C26     -4.6285 -15.8479  17.8708   C.3      10 RES10   0.0000
    86 N9     -12.4924 -21.6869  22.5032   N.4      11 RES11   1.0000
    87 C27    -12.7794 -23.4954  20.7367   C.3      11 RES11   0.0000
    88 C28    -12.8685 -23.1433  22.1705   C.3      11 RES11   0.0000
    89 C29    -13.1197 -25.0576  20.6901   C.3      11 RES11   0.0000
    90 C30    -11.1876 -21.2685  21.8732   C.3      11 RES11   0.0000
    91 C31     -9.9552 -21.9951  22.3168   C.3      11 RES11   0.0000
    92 C32     -8.7561 -21.5446  21.4842   C.3      11 RES11   0.0000
    93 C33    -12.3713 -21.6860  24.0624   C.3      11 RES11   0.0000
    94 C34    -11.9544 -20.3600  24.7214   C.3      11 RES11   0.0000
    95 C35    -11.6271 -20.6512  26.1648   C.3      11 RES11   0.0000
    96 C36    -13.6106 -20.7062  22.1625   C.3      11 RES11   0.0000
    97 C37    -13.7720 -20.3535  20.7239   C.3      11 RES11   0.0000
    98 C38    -14.9116 -19.3705  20.5824   C.3      11 RES11   0.0000
    99 N10      4.8524 -10.7351  15.2186   N.4      12 RES12   1.0000
   100 C39      4.7744 -12.2029  15.4806   C.3      12 RES12   0.0000
   101 C40      4.1249 -13.0218  14.3748   C.3      12 RES12   0.0000
   102 C41      3.9924 -14.4683  14.8473   C.3      12 RES12   0.0000
   103 C42      5.6399 -10.4054  13.9440   C.3      12 RES12   0.0000
   104 C43      7.0330 -10.9922  13.8749   C.3      12 RES12   0.0000
   105 C44      7.6701 -10.5515  12.5375   C.3      12 RES12   0.0000
   106 C45      3.4674 -10.1025  14.9968   C.3      12 RES12   0.0000
   107 C46      2.4953 -10.2449  16.1332   C.3      12 RES12   0.0000
   108 C47      1.1315  -9.7152  15.6703   C.3      12 RES12   0.0000
   109 C48      5.5511 -10.1255  16.4209   C.3      12 RES12   0.0000
   110 C49      5.7344  -8.6154  16.3599   C.3      12 RES12   0.0000
   111 C50      6.2781  -8.1396  17.7117   C.3      12 RES12   0.0000
@<TRIPOS>BOND
     1     1     2    1
     2     2     3    1
     3     3     4    1
     4     4     5    1
     5     5     3    1
     6     6     5    1
     7     7     4    1
     8     8     6    1
     9     9     1    1
    10    10     1    1
    11    11     1    1
    12    12     2    1
    13    13     2    1
    14    14     3    1
    15    15     3    1
    16    16     5    1
    17    17     4    1
    18    18     4    1
    19    19     7    1
    20    20     6    1
    21    21     6    1
    22    22     8    1
    23    23     1    1
    24    24     1    1
    25    25    11    1
    26    26     8    1
    27    27     9    1
    28    28     9    1
    29    29     9    1
    30    30    18    1
    31    31    25    1
    32    32    26    1
    33    33    26    1
    34    34    26    1
    35    35    27    1
    36    36    27    1
    37    37    27    1
    38    38    27    1
    39    39    30    1
    40    40    31    1
    41    41    32    1
    42    42    32    1
    43    43    35    1
    44    44    35    1
    45    45    35    1
    46    46    40    1
    47    47    40    1
    48    48    40    1
    49    49    41    1
    50    50    43    1
    51     2    10    1
    52     2    11    1
    53     3    12    1
    54     3    13    1
    55     4    12    1
    56     4    14    1
    57     5    14    1
    58     5    15    1
    59     5    17    1
    60     6     7    1
    61     6    16    1
    62     6    17    1
    63     7     8    1
    64     7    17    1
    65     7    18    1
    66     7    20    1
    67     8    19    1
    68     8    20    1
    69     8    21    1
    70     9    23    1
    71     9    24    1
    72    18    25    1
    73    19    26    1
    74    22    26    1
    75    24    25    1
    76    27    28    1
    77    27    29    1
    78    28    36    1
    79    30    31    1
    80    30    34    1
    81    31    36    1
    82    32    33    1
    83    32    34    1
    84    32    39    1
    85    35    36    1
    86    35    37    1
    87    35    38    1
    88    36    37    1
    89    36    40    1
    90    36    45    1
    91    39    41    1
    92    40    43    1
    93    40    45    1
    94    41    42    1
    95    41    46    1
    96    41    47    1
    97    43    44    1
    98    43    45    1
    99    43    46    1
   100    43    48    1
   101    46    47    1
   102    46    48    1
   103    46    49    1
   104    46    50    1
   105    52    53    3
   106    53    54    1
   107    55    56    3
   108    56    57    1
   109    58    59    3
   110    59    60    1
   111    61    62    3
   112    62    63    1
   113    64    65    3
   114    65    66    1
   115    67    68    3
   116    68    69    1
   117    70    71    3
   118    71    72    1
   119    73    74    1
   120    74    75    1
   121    75    76    1
   122    77    73    1
   123    78    77    1
   124    79    78    1
   125    80    73    1
   126    81    80    1
   127    82    81    1
   128    83    73    1
   129    84    83    1
   130    85    84    1
   131    86    88    1
   132    87    88    1
   133    89    87    1
   134    90    86    1
   135    91    90    1
   136    92    91    1
   137    93    86    1
   138    94    93    1
   139    95    94    1
   140    96    86    1
   141    97    96    1
   142    98    97    1
   143    99   100    1
   144   100   101    1
   145   101   102    1
   146   103    99    1
   147   104   103    1
   148   105   104    1
   149   106    99    1
   150   107   106    1
   151   108   107    1
   152   109    99    1
   153   110   109    1
   154   111   110    1
@<TRIPOS>SUBSTRUCTURE
     1 RES1        1 GROUP             0 ****  ****    0  
     2 RES2       51 GROUP             0 ****  ****    0  
     3 RES3       52 GROUP             0 ****  ****    0  
     4 RES4       55 GROUP             0 ****  ****    0  
     5 RES5       58 GROUP             0 ****  ****    0  
     6 RES6       61 GROUP             0 ****  ****    0  
     7 RES7       64 GROUP             0 ****  ****    0  
     8 RES8       67 GROUP             0 ****  ****    0  
     9 RES9       70 GROUP             0 ****  ****    0  
    10 RES10      73 GROUP             0 ****  ****    0  
    11 RES11      86 GROUP             0 ****  ****    0  
    12 RES12      99 GROUP             0 ****  ****    0  
@<TRIPOS>CRYSIN
   16.2860   16.7180   17.9020  115.2800   91.0700  101.6400     2     1
