@<TRIPOS>MOLECULE
VABSUM10
   195   238    12     0     0
SMALL
USER_CHARGES
****
Generated from the CSD

@<TRIPOS>ATOM
     1 Fe1     10.1753  -0.4223  11.4075   Fe        1 RES1  -1.0000
     2 Fe2     11.4810   0.5555   9.2344   Fe        1 RES1   0.0000
     3 Fe3     12.4200   0.6130   6.6802   Fe        1 RES1  -1.0000
     4 Fe4     10.5259  -1.3070   6.2913   Fe        1 RES1   0.0000
     5 Fe5     12.2613  -0.5551   4.2483   Fe        1 RES1   0.0000
     6 Fe6     11.0456  -2.3446   2.5332   Fe        1 RES1  -1.0000
     7 Fe7      9.3976  -3.1574   4.5633   Fe        1 RES1   0.0000
     8 Fe8      9.2241  -4.2508   2.0992   Fe        1 RES1   0.0000
     9 Fe9      8.6058  -1.8753  13.0599   Fe        1 RES1   0.0000
    10 S1      10.6646   1.7052  10.9318   S.3       1 RES1   0.0000
    11 S2      11.3902  -1.5745   9.8789   S.3       1 RES1   0.0000
    12 S3      10.2013   0.7413   7.2573   S.3       1 RES1   0.0000
    13 S4      13.4870   1.2812   8.4918   S.3       1 RES1   0.0000
    14 S5      12.8092  -1.6027   6.2430   S.3       1 RES1   0.0000
    15 S6      12.7905   1.5604   4.7096   S.3       1 RES1   0.0000
    16 S7      13.0537  -1.4550   2.3918   S.3       1 RES1   0.0000
    17 S8       9.9358  -0.9324   4.0425   S.3       1 RES1   0.0000
    18 S9       9.4290  -3.1898   6.8088   S.3       1 RES1   0.0000
    19 S10      7.4559  -3.6602   3.4639   S.3       1 RES1   0.0000
    20 S11     10.9776  -4.4180   3.5234   S.3       1 RES1   0.0000
    21 S12      9.8276  -2.6495   0.7056   S.3       1 RES1   0.0000
    22 S13      8.6383  -6.1447   1.2055   S.3       1 RES1   0.0000
    23 S14     10.6564  -1.1569  13.4618   S.3       1 RES1   0.0000
    24 S15      7.9574  -0.8060  11.2114   S.3       1 RES1   0.0000
    25 Na1      8.8729  -3.0123   9.6185   Na        1 RES1   0.0000
    26 Fe9A     7.3459  -5.9990   3.0138   Fe        1 RES1  -1.0000
    27 Fe8A     6.7276  -3.6235  13.9745   Fe        1 RES1  -1.0000
    28 S10A     8.4958  -4.2141  12.6099   S.3       1 RES1   0.0000
    29 S13A     7.3134  -1.7296  14.8682   S.3       1 RES1   0.0000
    30 Na1A     7.0788  -4.8620   6.4552   Na        1 RES1   0.0000
    31 S9A      6.5227  -4.6845   9.2649   S.3       1 RES1   0.0000
    32 Fe1A     5.7764  -7.4520   4.6662   Fe        1 RES1   0.0000
    33 S14A     5.2953  -6.7174   2.6120   S.3       1 RES1   0.0000
    34 S15A     7.9943  -7.0683   4.8623   S.3       1 RES1   0.0000
    35 Fe6A     4.9061  -5.5297  13.5405   Fe        1 RES1   0.0000
    36 Fe7A     6.5541  -4.7169  11.5104   Fe        1 RES1  -1.0000
    37 S11A     4.9741  -3.4563  12.5504   S.3       1 RES1   0.0000
    38 S12A     6.1241  -5.2248  15.3681   S.3       1 RES1   0.0000
    39 S2A      4.5615  -6.2998   6.1948   S.3       1 RES1   0.0000
    40 Fe4A     5.4258  -6.5673   9.7825   Fe        1 RES1   0.0000
    41 Fe2A     4.4707  -8.4298   6.8394   Fe        1 RES1  -1.0000
    42 S1A      5.2871  -9.5795   5.1420   S.3       1 RES1   0.0000
    43 Fe5A     3.6904  -7.3192  11.8255   Fe        1 RES1  -1.0000
    44 S7A      2.8980  -6.4193  13.6820   S.3       1 RES1   0.0000
    45 S8A      6.0159  -6.9419  12.0312   S.3       1 RES1   0.0000
    46 Fe3A     3.5317  -8.4873   9.3935   Fe        1 RES1   0.0000
    47 S3A      5.7504  -8.6156   8.8164   S.3       1 RES1   0.0000
    48 S5A      3.1425  -6.2716   9.8307   S.3       1 RES1   0.0000
    49 S4A      2.4647  -9.1554   7.5820   S.3       1 RES1   0.0000
    50 S6A      3.1612  -9.4347  11.3641   S.3       1 RES1   0.0000
    51 Na2     12.0689  -3.8990   8.0626   Na        2 RES2   1.0000
    52 N1       0.0398 -12.1016  18.7098   N.1       3 RES3   0.0000
    53 C1      -0.9412 -12.0977  19.5376   C.1       3 RES3   0.0000
    54 C2      -1.9829 -12.1142  20.3767   C.2       3 RES3   0.0000
    55 N2     -22.0927 -18.8753  22.9742   N.1       4 RES4   0.0000
    56 C3     -23.1626 -18.4721  23.1205   C.1       4 RES4   0.0000
    57 C4     -24.4795 -17.9698  23.3085   C.3       4 RES4   0.0000
    58 N3       3.7217 -16.4276  11.7708   N.1       5 RES5   0.0000
    59 C5       2.5014 -16.5638  11.9251   C.1       5 RES5   0.0000
    60 C6       1.2344 -16.8207  12.2257   C.2       5 RES5   0.0000
    61 N4     -16.8903 -23.3388  12.1646   N.1       6 RES6   0.0000
    62 C7     -16.8268 -22.1663  12.1743   C.1       6 RES6   0.0000
    63 C8     -16.7689 -20.7691  12.2369   C.2       6 RES6   0.0000
    64 N5      10.5258  -5.2020   9.4723   N.1       7 RES7   0.0000
    65 C9       9.9784  -6.1316   9.8291   C.1       7 RES7   0.0000
    66 C10      9.3429  -7.4017  10.3226   C.3       7 RES7   0.0000
    67 N6      14.3854  -3.7439   9.0929   N.1       8 RES8   0.0000
    68 C11     15.0548  -2.7492   8.8807   C.1       8 RES8   0.0000
    69 C12     15.8706  -1.6348   8.5480   C.3       8 RES8   0.0000
    70 N7      12.6554  -5.9546   6.9374   N.1       9 RES9   0.0000
    71 C13     12.2469  -6.7868   6.2430   C.1       9 RES9   0.0000
    72 C14     11.7727  -7.8015   5.3397   C.3       9 RES9   0.0000
    73 N8      -3.4851 -13.2991  15.1881   N.4      10 RES10   1.0000
    74 C15     -3.4414 -11.7990  15.4083   C.3      10 RES10   0.0000
    75 C16     -2.8643 -10.9611  14.2928   C.3      10 RES10   0.0000
    76 C17     -2.9588  -9.5137  14.6271   C.3      10 RES10   0.0000
    77 C18     -4.3720 -13.6925  13.9890   C.3      10 RES10   0.0000
    78 C19     -5.8100 -13.2415  14.0276   C.3      10 RES10   0.0000
    79 C20     -6.5104 -13.8049  12.8413   C.3      10 RES10   0.0000
    80 C21     -2.1244 -13.8638  14.9068   C.3      10 RES10   0.0000
    81 C22     -1.1246 -13.7077  15.9419   C.3      10 RES10   0.0000
    82 C23      0.2111 -14.2633  15.5819   C.3      10 RES10   0.0000
    83 C24     -4.0732 -13.8703  16.4643   C.3      10 RES10   0.0000
    84 C25     -4.3320 -15.3370  16.4836   C.3      10 RES10   0.0000
    85 C26     -4.6285 -15.8479  17.8708   C.3      10 RES10   0.0000
    86 H1      -2.5932  -8.9969  13.9199   H        10 RES10   0.0000
    87 H2      -3.8717  -9.2754  14.7525   H        10 RES10   0.0000
    88 H3      -2.4766  -9.3393  15.4276   H        10 RES10   0.0000
    89 H4      -3.3459 -11.1306  13.4923   H        10 RES10   0.0000
    90 H5      -1.9508 -11.1944  14.1674   H        10 RES10   0.0000
    91 H6      -4.3343 -11.5047  15.5562   H        10 RES10   0.0000
    92 H7      -2.9230 -11.6373  16.1879   H        10 RES10   0.0000
    93 H8      -7.4199 -13.5061  12.7963   H        10 RES10   0.0000
    94 H9      -6.4656 -14.7293  12.7931   H        10 RES10   0.0000
    95 H10     -6.0815 -13.4452  12.0135   H        10 RES10   0.0000
    96 H11     -6.2337 -13.5750  14.8087   H        10 RES10   0.0000
    97 H12     -5.8496 -12.2909  14.0292   H        10 RES10   0.0000
    98 H13     -4.3710 -14.6418  13.9279   H        10 RES10   0.0000
    99 H14     -3.9775 -13.3270  13.2062   H        10 RES10   0.0000
   100 H15      0.8210 -14.1306  16.3004   H        10 RES10   0.0000
   101 H16      0.1347 -15.1951  15.4051   H        10 RES10   0.0000
   102 H17      0.5425 -13.8232  14.8039   H        10 RES10   0.0000
   103 H18     -1.4281 -14.1526  16.7263   H        10 RES10   0.0000
   104 H19     -1.0204 -12.7806  16.1252   H        10 RES10   0.0000
   105 H20     -2.2272 -14.7937  14.7428   H        10 RES10   0.0000
   106 H21     -1.7954 -13.4402  14.1224   H        10 RES10   0.0000
   107 H22     -4.7865 -16.7852  17.8386   H        10 RES10   0.0000
   108 H23     -5.3992 -15.4082  18.2132   H        10 RES10   0.0000
   109 H24     -3.8868 -15.6723  18.4382   H        10 RES10   0.0000
   110 H25     -5.0770 -15.5240  15.9227   H        10 RES10   0.0000
   111 H26     -3.5650 -15.7873  16.1493   H        10 RES10   0.0000
   112 H27     -4.9001 -13.4308  16.6267   H        10 RES10   0.0000
   113 H28     -3.4696 -13.6772  17.1732   H        10 RES10   0.0000
   114 N9     -12.4924 -21.6869  22.5032   N.4      11 RES11   1.0000
   115 C27    -12.7794 -23.4954  20.7367   C.3      11 RES11   0.0000
   116 C28    -12.8685 -23.1433  22.1705   C.3      11 RES11   0.0000
   117 C29    -13.1197 -25.0576  20.6901   C.3      11 RES11   0.0000
   118 C30    -11.1876 -21.2685  21.8732   C.3      11 RES11   0.0000
   119 C31     -9.9552 -21.9951  22.3168   C.3      11 RES11   0.0000
   120 C32     -8.7561 -21.5446  21.4842   C.3      11 RES11   0.0000
   121 C33    -12.3713 -21.6860  24.0624   C.3      11 RES11   0.0000
   122 C34    -11.9544 -20.3600  24.7214   C.3      11 RES11   0.0000
   123 C35    -11.6271 -20.6512  26.1648   C.3      11 RES11   0.0000
   124 C36    -13.6106 -20.7062  22.1625   C.3      11 RES11   0.0000
   125 C37    -13.7720 -20.3535  20.7239   C.3      11 RES11   0.0000
   126 C38    -14.9116 -19.3705  20.5824   C.3      11 RES11   0.0000
   127 H29    -13.3487 -25.8271  21.1981   H        11 RES11   0.0000
   128 H30    -12.3019 -25.2147  20.2320   H        11 RES11   0.0000
   129 H31    -13.8065 -24.8833  20.0568   H        11 RES11   0.0000
   130 H32    -12.1043 -23.0106  22.7186   H        11 RES11   0.0000
   131 H33    -13.6092 -22.6784  22.5450   H        11 RES11   0.0000
   132 H34    -12.0577 -23.9850  20.3590   H        11 RES11   0.0000
   133 H35    -13.5357 -23.5557  20.1613   H        11 RES11   0.0000
   134 H36     -7.9767 -22.0098  21.7687   H        11 RES11   0.0000
   135 H37     -8.6247 -20.6108  21.5935   H        11 RES11   0.0000
   136 H38     -8.9178 -21.7344  20.5647   H        11 RES11   0.0000
   137 H39     -9.7915 -21.8061  23.2346   H        11 RES11   0.0000
   138 H40    -10.0847 -22.9297  22.2059   H        11 RES11   0.0000
   139 H41    -11.0587 -20.3454  22.0612   H        11 RES11   0.0000
   140 H42    -11.2699 -21.3899  20.9344   H        11 RES11   0.0000
   141 H43    -11.3651 -19.8462  26.5972   H        11 RES11   0.0000
   142 H44    -10.9165 -21.2791  26.2066   H        11 RES11   0.0000
   143 H45    -12.3943 -21.0087  26.5972   H        11 RES11   0.0000
   144 H46    -11.1905 -20.0043  24.2794   H        11 RES11   0.0000
   145 H47    -12.6682 -19.7331  24.6684   H        11 RES11   0.0000
   146 H48    -11.7263 -22.3428  24.3035   H        11 RES11   0.0000
   147 H49    -13.2173 -21.9337  24.4208   H        11 RES11   0.0000
   148 H50    -15.0243 -19.1369  19.6678   H        11 RES11   0.0000
   149 H51    -14.7213 -18.5837  21.0855   H        11 RES11   0.0000
   150 H52    -15.7161 -19.7612  20.9087   H        11 RES11   0.0000
   151 H53    -12.9718 -19.9586  20.3992   H        11 RES11   0.0000
   152 H54    -13.9650 -21.1361  20.2224   H        11 RES11   0.0000
   153 H55    -13.4455 -19.9010  22.6415   H        11 RES11   0.0000
   154 H56    -14.4301 -21.0860  22.4598   H        11 RES11   0.0000
   155 N10      4.8524 -10.7351  15.2186   N.4      12 RES12   1.0000
   156 C39      4.7744 -12.2029  15.4806   C.3      12 RES12   0.0000
   157 C40      4.1249 -13.0218  14.3748   C.3      12 RES12   0.0000
   158 C41      3.9924 -14.4683  14.8473   C.3      12 RES12   0.0000
   159 C42      5.6399 -10.4054  13.9440   C.3      12 RES12   0.0000
   160 C43      7.0330 -10.9922  13.8749   C.3      12 RES12   0.0000
   161 C44      7.6701 -10.5515  12.5375   C.3      12 RES12   0.0000
   162 C45      3.4674 -10.1025  14.9968   C.3      12 RES12   0.0000
   163 C46      2.4953 -10.2449  16.1332   C.3      12 RES12   0.0000
   164 C47      1.1315  -9.7152  15.6703   C.3      12 RES12   0.0000
   165 C48      5.5511 -10.1255  16.4209   C.3      12 RES12   0.0000
   166 C49      5.7344  -8.6154  16.3599   C.3      12 RES12   0.0000
   167 C50      6.2781  -8.1396  17.7117   C.3      12 RES12   0.0000
   168 H57      3.5869 -14.9908  14.1658   H        12 RES12   0.0000
   169 H58      4.8533 -14.8190  15.0450   H        12 RES12   0.0000
   170 H59      3.4525 -14.4997  15.6301   H        12 RES12   0.0000
   171 H60      4.6648 -12.9912  13.5936   H        12 RES12   0.0000
   172 H61      3.2653 -12.6711  14.1803   H        12 RES12   0.0000
   173 H62      5.6596 -12.5263  15.6060   H        12 RES12   0.0000
   174 H63      4.2745 -12.3347  16.2779   H        12 RES12   0.0000
   175 H64      8.5498 -10.9089  12.4716   H        12 RES12   0.0000
   176 H65      7.1450 -10.8718  11.8142   H        12 RES12   0.0000
   177 H66      7.7118  -9.6025  12.5022   H        12 RES12   0.0000
   178 H67      6.9873 -11.9395  13.9134   H        12 RES12   0.0000
   179 H68      7.5541 -10.6702  14.6014   H        12 RES12   0.0000
   180 H69      5.1467 -10.7335  13.1998   H        12 RES12   0.0000
   181 H70      5.7153  -9.4595  13.8781   H        12 RES12   0.0000
   182 H71      0.5003  -9.7957  16.3759   H        12 RES12   0.0000
   183 H72      0.8327 -10.2178  14.9213   H        12 RES12   0.0000
   184 H73      1.2140  -8.8006  15.4244   H        12 RES12   0.0000
   185 H74      2.4179 -11.1620  16.3808   H        12 RES12   0.0000
   186 H75      2.7993  -9.7441  16.8823   H        12 RES12   0.0000
   187 H76      3.0794 -10.5096  14.2301   H        12 RES12   0.0000
   188 H77      3.5911  -9.1764  14.8345   H        12 RES12   0.0000
   189 H78      6.3989  -7.1968  17.6924   H        12 RES12   0.0000
   190 H79      7.1130  -8.5620  17.8820   H        12 RES12   0.0000
   191 H80      5.6630  -8.3661  18.3980   H        12 RES12   0.0000
   192 H81      6.3489  -8.3922  15.6703   H        12 RES12   0.0000
   193 H82      4.8989  -8.1963  16.1863   H        12 RES12   0.0000
   194 H83      6.4107 -10.5244  16.4965   H        12 RES12   0.0000
   195 H84      5.0397 -10.3299  17.1957   H        12 RES12   0.0000
@<TRIPOS>BOND
     1     1     2    1
     2     2     3    1
     3     3     4    1
     4     4     5    1
     5     5     3    1
     6     6     5    1
     7     7     4    1
     8     8     6    1
     9     9     1    1
    10    10     1    1
    11    11     1    1
    12    12     2    1
    13    13     2    1
    14    14     3    1
    15    15     3    1
    16    16     5    1
    17    17     4    1
    18    18     4    1
    19    19     7    1
    20    20     6    1
    21    21     6    1
    22    22     8    1
    23    23     1    1
    24    24     1    1
    25    25    11    1
    26    26     8    1
    27    27     9    1
    28    28     9    1
    29    29     9    1
    30    30    18    1
    31    31    25    1
    32    32    26    1
    33    33    26    1
    34    34    26    1
    35    35    27    1
    36    36    27    1
    37    37    27    1
    38    38    27    1
    39    39    30    1
    40    40    31    1
    41    41    32    1
    42    42    32    1
    43    43    35    1
    44    44    35    1
    45    45    35    1
    46    46    40    1
    47    47    40    1
    48    48    40    1
    49    49    41    1
    50    50    43    1
    51     2    10    1
    52     2    11    1
    53     3    12    1
    54     3    13    1
    55     4    12    1
    56     4    14    1
    57     5    14    1
    58     5    15    1
    59     5    17    1
    60     6     7    1
    61     6    16    1
    62     6    17    1
    63     7     8    1
    64     7    17    1
    65     7    18    1
    66     7    20    1
    67     8    19    1
    68     8    20    1
    69     8    21    1
    70     9    23    1
    71     9    24    1
    72    18    25    1
    73    19    26    1
    74    22    26    1
    75    24    25    1
    76    27    28    1
    77    27    29    1
    78    28    36    1
    79    30    31    1
    80    30    34    1
    81    31    36    1
    82    32    39    1
    83    32    33    1
    84    32    34    1
    85    35    36    1
    86    35    37    1
    87    35    38    1
    88    36    40    1
    89    36    45    1
    90    36    37    1
    91    39    41    1
    92    40    43    1
    93    40    45    1
    94    41    46    1
    95    41    42    1
    96    41    47    1
    97    43    46    1
    98    43    48    1
    99    43    44    1
   100    43    45    1
   101    46    47    1
   102    46    49    1
   103    46    48    1
   104    46    50    1
   105    52    53    3
   106    53    54    1
   107    55    56    3
   108    56    57    1
   109    58    59    3
   110    59    60    1
   111    61    62    3
   112    62    63    1
   113    64    65    3
   114    65    66    1
   115    67    68    3
   116    68    69    1
   117    70    71    3
   118    71    72    1
   119    73    74    1
   120    74    75    1
   121    75    76    1
   122    76    86    1
   123    77    73    1
   124    78    77    1
   125    79    78    1
   126    80    73    1
   127    81    80    1
   128    82    81    1
   129    83    73    1
   130    84    83    1
   131    85    84    1
   132    87    76    1
   133    88    76    1
   134    89    75    1
   135    90    75    1
   136    91    74    1
   137    92    74    1
   138    93    79    1
   139    94    79    1
   140    95    79    1
   141    96    78    1
   142    97    78    1
   143    98    77    1
   144    99    77    1
   145   100    82    1
   146   101    82    1
   147   102    82    1
   148   103    81    1
   149   104    81    1
   150   105    80    1
   151   106    80    1
   152   107    85    1
   153   108    85    1
   154   109    85    1
   155   110    84    1
   156   111    84    1
   157   112    83    1
   158   113    83    1
   159   114   116    1
   160   115   116    1
   161   116   130    1
   162   117   115    1
   163   118   114    1
   164   119   118    1
   165   120   119    1
   166   121   114    1
   167   122   121    1
   168   123   122    1
   169   124   114    1
   170   125   124    1
   171   126   125    1
   172   127   117    1
   173   128   117    1
   174   129   117    1
   175   131   116    1
   176   132   115    1
   177   133   115    1
   178   134   120    1
   179   135   120    1
   180   136   120    1
   181   137   119    1
   182   138   119    1
   183   139   118    1
   184   140   118    1
   185   141   123    1
   186   142   123    1
   187   143   123    1
   188   144   122    1
   189   145   122    1
   190   146   121    1
   191   147   121    1
   192   148   126    1
   193   149   126    1
   194   150   126    1
   195   151   125    1
   196   152   125    1
   197   153   124    1
   198   154   124    1
   199   155   156    1
   200   156   157    1
   201   157   158    1
   202   158   168    1
   203   159   155    1
   204   160   159    1
   205   161   160    1
   206   162   155    1
   207   163   162    1
   208   164   163    1
   209   165   155    1
   210   166   165    1
   211   167   166    1
   212   169   158    1
   213   170   158    1
   214   171   157    1
   215   172   157    1
   216   173   156    1
   217   174   156    1
   218   175   161    1
   219   176   161    1
   220   177   161    1
   221   178   160    1
   222   179   160    1
   223   180   159    1
   224   181   159    1
   225   182   164    1
   226   183   164    1
   227   184   164    1
   228   185   163    1
   229   186   163    1
   230   187   162    1
   231   188   162    1
   232   189   167    1
   233   190   167    1
   234   191   167    1
   235   192   166    1
   236   193   166    1
   237   194   165    1
   238   195   165    1
@<TRIPOS>SUBSTRUCTURE
     1 RES1        1 GROUP             0 ****  ****    0  
     2 RES2       51 GROUP             0 ****  ****    0  
     3 RES3       52 GROUP             0 ****  ****    0  
     4 RES4       55 GROUP             0 ****  ****    0  
     5 RES5       58 GROUP             0 ****  ****    0  
     6 RES6       61 GROUP             0 ****  ****    0  
     7 RES7       64 GROUP             0 ****  ****    0  
     8 RES8       67 GROUP             0 ****  ****    0  
     9 RES9       70 GROUP             0 ****  ****    0  
    10 RES10      73 GROUP             0 ****  ****    0  
    11 RES11     114 GROUP             0 ****  ****    0  
    12 RES12     155 GROUP             0 ****  ****    0  
@<TRIPOS>CRYSIN
   16.2860   16.7180   17.9020  115.2800   91.0700  101.6400     2     1
