@<TRIPOS>MOLECULE
VACXOM
   119   136     1     0     0
SMALL
NO_CHARGES
****
Generated from the CSD

@<TRIPOS>ATOM
     1 Fe1      0.0000   0.0000   0.0000   Fe        1 RES1   0.0000
     2 N1       1.4373   1.0616  -0.7799   N.2       1 RES1   0.0000
     3 N2       1.2325  -0.6927   1.3228   N.2       1 RES1   0.0000
     4 N3       0.1900   2.1613  -2.5463   N.2       1 RES1   0.0000
     5 N4       3.2450   0.5067   0.6614   N.2       1 RES1   0.0000
     6 N5      -0.4715   2.3884   1.8409   N.1       1 RES1   0.0000
     7 C1       2.7121   1.1706  -0.3345   C.2       1 RES1   0.0000
     8 C2       3.4276   2.1839  -1.1107   C.2       1 RES1   0.0000
     9 C3       4.7465   2.7131  -1.0112   C.ar      1 RES1   0.0000
    10 C4       5.7461   2.2579  -0.1128   C.ar      1 RES1   0.0000
    11 C5       6.9629   2.8313  -0.0746   C.ar      1 RES1   0.0000
    12 C6       7.2714   3.8960  -0.9501   C.ar      1 RES1   0.0000
    13 C7       6.3572   4.3338  -1.8313   C.ar      1 RES1   0.0000
    14 C8       5.0745   3.7686  -1.8868   C.ar      1 RES1   0.0000
    15 C9       4.0960   4.2475  -2.8043   C.2       1 RES1   0.0000
    16 C10      2.8486   3.7460  -2.8827   C.2       1 RES1   0.0000
    17 C11      2.5138   2.6730  -2.0034   C.2       1 RES1   0.0000
    18 C12      1.2707   1.9701  -1.8390   C.2       1 RES1   0.0000
    19 C13      0.9520  -1.5652   2.3303   C.2       1 RES1   0.0000
    20 C14      2.1603  -1.7872   3.1331   C.ar      1 RES1   0.0000
    21 C15      2.4358  -2.5816   4.2897   C.ar      1 RES1   0.0000
    22 C16      1.4734  -3.3637   4.9587   C.ar      1 RES1   0.0000
    23 C17      1.8224  -4.1067   6.0407   C.ar      1 RES1   0.0000
    24 C18      3.1480  -4.1077   6.5148   C.ar      1 RES1   0.0000
    25 C19      4.0961  -3.3215   5.9012   C.ar      1 RES1   0.0000
    26 C20      3.7579  -2.5610   4.7791   C.ar      1 RES1   0.0000
    27 C21      4.7609  -1.7450   4.1329   C.ar      1 RES1   0.0000
    28 C22      4.4806  -1.0133   3.0490   C.ar      1 RES1   0.0000
    29 C23      3.1468  -1.0400   2.5482   C.ar      1 RES1   0.0000
    30 C24      2.5762  -0.3535   1.4280   C.2       1 RES1   0.0000
    31 C25     -0.3741   1.4727   1.1604   C.1       1 RES1   0.0000
    32 C26     -0.3195   3.5558   2.6935   C.3       1 RES1   0.0000
    33 C27      0.5945   3.2023   3.8232   C.3       1 RES1   0.0000
    34 C28      2.0234   2.9372   3.3549   C.3       1 RES1   0.0000
    35 C29      2.5589   4.0759   2.5233   C.3       1 RES1   0.0000
    36 C30      1.6348   4.4263   1.3955   C.3       1 RES1   0.0000
    37 C31      0.2126   4.6976   1.8849   C.3       1 RES1   0.0000
    38 H1       5.5473   1.5128   0.4932   H         1 RES1   0.0000
    39 H2       7.6306   2.4963   0.5486   H         1 RES1   0.0000
    40 H3       8.1503   4.3091  -0.8927   H         1 RES1   0.0000
    41 H4       6.5981   5.0419  -2.4411   H         1 RES1   0.0000
    42 H5       4.3405   4.9689  -3.3969   H         1 RES1   0.0000
    43 H6       2.1885   4.0923  -3.5078   H         1 RES1   0.0000
    44 H7       0.5488  -3.3657   4.6414   H         1 RES1   0.0000
    45 H8       1.1490  -4.6473   6.4842   H         1 RES1   0.0000
    46 H9       3.3891  -4.6586   7.2699   H         1 RES1   0.0000
    47 H10      5.0031  -3.2825   6.2548   H         1 RES1   0.0000
    48 H11      5.6588  -1.7152   4.4904   H         1 RES1   0.0000
    49 H12      5.1706  -0.4861   2.6094   H         1 RES1   0.0000
    50 H13     -1.1716   3.8282   3.0567   H         1 RES1   0.0000
    51 H14      0.2348   2.4428   4.3031   H         1 RES1   0.0000
    52 H15      0.6064   3.9402   4.4675   H         1 RES1   0.0000
    53 H16      2.0264   2.1201   2.8082   H         1 RES1   0.0000
    54 H17      2.6100   2.7563   4.0966   H         1 RES1   0.0000
    55 H18      3.4351   3.8498   2.1792   H         1 RES1   0.0000
    56 H19      2.6609   4.8394   3.0873   H         1 RES1   0.0000
    57 H20      1.6170   3.6802   0.7666   H         1 RES1   0.0000
    58 H21      1.9860   5.1806   0.9080   H         1 RES1   0.0000
    59 H22      0.2153   5.5085   2.4182   H         1 RES1   0.0000
    60 H23     -0.3738   4.8703   1.1336   H         1 RES1   0.0000
    61 N1B     -1.4373  -1.0616   0.7799   N.2       1 RES1   0.0000
    62 N2B     -1.2325   0.6927  -1.3228   N.2       1 RES1   0.0000
    63 C25B     0.3741  -1.4727  -1.1604   C.1       1 RES1   0.0000
    64 C13B    -0.9520   1.5652  -2.3303   C.2       1 RES1   0.0000
    65 N3B     -0.1900  -2.1613   2.5463   N.2       1 RES1   0.0000
    66 C1B     -2.7121  -1.1706   0.3345   C.2       1 RES1   0.0000
    67 C12B    -1.2707  -1.9701   1.8390   C.2       1 RES1   0.0000
    68 C24B    -2.5762   0.3535  -1.4280   C.2       1 RES1   0.0000
    69 N5B      0.4715  -2.3884  -1.8409   N.1       1 RES1   0.0000
    70 C14B    -2.1603   1.7872  -3.1331   C.ar      1 RES1   0.0000
    71 N4B     -3.2450  -0.5067  -0.6614   N.2       1 RES1   0.0000
    72 C2B     -3.4276  -2.1839   1.1107   C.ar      1 RES1   0.0000
    73 C11B    -2.5138  -2.6730   2.0034   C.ar      1 RES1   0.0000
    74 C23B    -3.1468   1.0400  -2.5482   C.ar      1 RES1   0.0000
    75 C26B     0.3195  -3.5558  -2.6935   C.3       1 RES1   0.0000
    76 C15B    -2.4358   2.5816  -4.2897   C.ar      1 RES1   0.0000
    77 C3B     -4.7465  -2.7131   1.0112   C.ar      1 RES1   0.0000
    78 C10B    -2.8486  -3.7460   2.8827   C.ar      1 RES1   0.0000
    79 C22B    -4.4806   1.0133  -3.0490   C.ar      1 RES1   0.0000
    80 C27B    -0.5945  -3.2023  -3.8232   C.3       1 RES1   0.0000
    81 C31B    -0.2126  -4.6976  -1.8849   C.3       1 RES1   0.0000
    82 H13B     1.1716  -3.8282  -3.0567   H         1 RES1   0.0000
    83 C16B    -1.4734   3.3637  -4.9587   C.ar      1 RES1   0.0000
    84 C20B    -3.7579   2.5610  -4.7791   C.ar      1 RES1   0.0000
    85 C4B     -5.7461  -2.2579   0.1128   C.ar      1 RES1   0.0000
    86 C8B     -5.0745  -3.7686   1.8868   C.ar      1 RES1   0.0000
    87 C9B     -4.0960  -4.2475   2.8043   C.ar      1 RES1   0.0000
    88 H6B     -2.1885  -4.0923   3.5078   H         1 RES1   0.0000
    89 C21B    -4.7609   1.7450  -4.1329   C.ar      1 RES1   0.0000
    90 H12B    -5.1706   0.4861  -2.6094   H         1 RES1   0.0000
    91 C28B    -2.0234  -2.9372  -3.3549   C.3       1 RES1   0.0000
    92 H14B    -0.2348  -2.4428  -4.3031   H         1 RES1   0.0000
    93 H15B    -0.6064  -3.9402  -4.4675   H         1 RES1   0.0000
    94 C30B    -1.6348  -4.4263  -1.3955   C.3       1 RES1   0.0000
    95 H22B    -0.2153  -5.5085  -2.4182   H         1 RES1   0.0000
    96 H23B     0.3738  -4.8703  -1.1336   H         1 RES1   0.0000
    97 C17B    -1.8224   4.1067  -6.0407   C.ar      1 RES1   0.0000
    98 H7B     -0.5488   3.3657  -4.6414   H         1 RES1   0.0000
    99 C19B    -4.0961   3.3215  -5.9012   C.ar      1 RES1   0.0000
   100 C5B     -6.9629  -2.8313   0.0746   C.ar      1 RES1   0.0000
   101 H1B     -5.5473  -1.5128  -0.4932   H         1 RES1   0.0000
   102 C7B     -6.3572  -4.3338   1.8313   C.ar      1 RES1   0.0000
   103 H5B     -4.3405  -4.9689   3.3969   H         1 RES1   0.0000
   104 H11B    -5.6588   1.7152  -4.4904   H         1 RES1   0.0000
   105 C29B    -2.5589  -4.0759  -2.5233   C.3       1 RES1   0.0000
   106 H16B    -2.0264  -2.1201  -2.8082   H         1 RES1   0.0000
   107 H17B    -2.6100  -2.7563  -4.0966   H         1 RES1   0.0000
   108 H20B    -1.6170  -3.6802  -0.7666   H         1 RES1   0.0000
   109 H21B    -1.9860  -5.1806  -0.9080   H         1 RES1   0.0000
   110 C18B    -3.1480   4.1077  -6.5148   C.ar      1 RES1   0.0000
   111 H8B     -1.1490   4.6473  -6.4842   H         1 RES1   0.0000
   112 H10B    -5.0031   3.2825  -6.2548   H         1 RES1   0.0000
   113 C6B     -7.2714  -3.8960   0.9501   C.ar      1 RES1   0.0000
   114 H2B     -7.6306  -2.4963  -0.5486   H         1 RES1   0.0000
   115 H4B     -6.5981  -5.0419   2.4411   H         1 RES1   0.0000
   116 H18B    -3.4351  -3.8498  -2.1792   H         1 RES1   0.0000
   117 H19B    -2.6609  -4.8394  -3.0873   H         1 RES1   0.0000
   118 H9B     -3.3891   4.6586  -7.2699   H         1 RES1   0.0000
   119 H3B     -8.1503  -4.3091   0.8927   H         1 RES1   0.0000
@<TRIPOS>BOND
     1     1     2    1
     2     2     7    1
     3     3     1    1
     4     4    18    1
     5     5     7    1
     6     6    31    3
     7     7     8    2
     8     8     9    1
     9     9    10   ar
    10    10    11   ar
    11    11    12   ar
    12    12    13   ar
    13    13    14   ar
    14    14     9   ar
    15    15    14    1
    16    16    15    2
    17    17     8    1
    18    18     2    1
    19    19     3    2
    20    20    19    1
    21    21    20   ar
    22    22    21   ar
    23    23    22   ar
    24    24    23   ar
    25    25    24   ar
    26    26    21   ar
    27    27    26   ar
    28    28    27   ar
    29    29    20   ar
    30    30     3    1
    31    31     1    1
    32    32     6    1
    33    33    32    1
    34    34    33    1
    35    35    34    1
    36    36    35    1
    37    37    32    1
    38    38    10    1
    39    39    11    1
    40    40    12    1
    41    41    13    1
    42    42    15    1
    43    43    16    1
    44    44    22    1
    45    45    23    1
    46    46    24    1
    47    47    25    1
    48    48    27    1
    49    49    28    1
    50    50    32    1
    51    51    33    1
    52    52    33    1
    53    53    34    1
    54    54    34    1
    55    55    35    1
    56    56    35    1
    57    57    36    1
    58    58    36    1
    59    59    37    1
    60    60    37    1
    61    61     1    1
    62    62     1    1
    63    63     1    1
    64    64     4    2
    65    65    19    1
    66    66    61    1
    67    67    61    1
    68    68    62    2
    69    69    63    3
    70    70    64    1
    71    71    66    2
    72    72    66    1
    73    73    67    1
    74    74    68    1
    75    75    69    1
    76    76    70   ar
    77    77    72   ar
    78    78    73   ar
    79    79    74   ar
    80    80    75    1
    81    81    75    1
    82    82    75    1
    83    83    76   ar
    84    84    76   ar
    85    85    77   ar
    86    86    77   ar
    87    87    78   ar
    88    88    78    1
    89    89    79   ar
    90    90    79    1
    91    91    80    1
    92    92    80    1
    93    93    80    1
    94    94    81    1
    95    95    81    1
    96    96    81    1
    97    97    83   ar
    98    98    83    1
    99    99    84   ar
   100   100    85   ar
   101   101    85    1
   102   102    86   ar
   103   103    87    1
   104   104    89    1
   105   105    91    1
   106   106    91    1
   107   107    91    1
   108   108    94    1
   109   109    94    1
   110   110    97   ar
   111   111    97    1
   112   112    99    1
   113   113   100   ar
   114   114   100    1
   115   115   102    1
   116   116   105    1
   117   117   105    1
   118   118   110    1
   119   119   113    1
   120     5    30    2
   121    16    17    1
   122    17    18    2
   123    25    26   ar
   124    28    29   ar
   125    29    30    1
   126    36    37    1
   127    62    64    1
   128    65    67    2
   129    68    71    1
   130    70    74   ar
   131    72    73   ar
   132    84    89   ar
   133    86    87   ar
   134    94   105    1
   135    99   110   ar
   136   102   113   ar
@<TRIPOS>SUBSTRUCTURE
     1 RES1        1 GROUP             0 ****  ****    0  
@<TRIPOS>CRYSIN
   12.2240   10.2770   19.3260   90.0000   98.4500   90.0000    14     1
