@<TRIPOS>MOLECULE
VAFJES
   106   110     2     0     0
SMALL
USER_CHARGES
****
Generated from the CSD

@<TRIPOS>ATOM
     1 Fe1      3.3377   0.3496  13.9071   Fe        1 RES1   1.0000
     2 O1       2.2102   0.3349  15.4012   O.3       1 RES1   0.0000
     3 O2       4.2995   0.4564  16.9901   O.co2     1 RES1   0.0000
     4 O3       5.0653   0.2693  14.9079   O.co2     1 RES1   0.0000
     5 N1       4.4847   0.4466  12.0904   N.3       1 RES1   0.0000
     6 N2       3.6260   2.4891  13.6682   N.ar      1 RES1   0.0000
     7 N3       2.0475   3.1377  15.2220   N.pl3     1 RES1   0.0000
     8 N4       1.7106   0.1691  12.4359   N.ar      1 RES1   0.0000
     9 N5      -0.1046   0.0082  13.8548   N.pl3     1 RES1   0.0000
    10 N6       3.6189  -1.7601  13.5112   N.ar      1 RES1   0.0000
    11 N7       2.1329  -2.4809  15.1111   N.pl3     1 RES1   0.0000
    12 C1       5.2199   0.3415  16.1735   C.2       1 RES1   0.0000
    13 C2       6.6363   0.2545  16.6649   C.3       1 RES1   0.0000
    14 C3       5.3721   1.6288  12.2216   C.3       1 RES1   0.0000
    15 C4       4.6104   2.8076  12.7740   C.ar      1 RES1   0.0000
    16 C5       4.9501   4.0965  12.4802   C.ar      1 RES1   0.0000
    17 C6       4.3000   5.1260  13.1601   C.ar      1 RES1   0.0000
    18 C7       3.3353   4.8452  14.0654   C.ar      1 RES1   0.0000
    19 C8       2.9857   3.4907  14.3241   C.ar      1 RES1   0.0000
    20 C9       1.3336   4.0243  16.1365   C.3       1 RES1   0.0000
    21 C10      1.8375   4.0013  17.5906   C.3       1 RES1   0.0000
    22 C11      3.2854   4.4463  17.6571   C.3       1 RES1   0.0000
    23 C12      1.6925   2.6024  18.1966   C.3       1 RES1   0.0000
    24 C13      0.9491   4.9733  18.3776   C.3       1 RES1   0.0000
    25 C14      3.5596   0.6469  10.9431   C.3       1 RES1   0.0000
    26 C15      2.2090   0.0558  11.1537   C.ar      1 RES1   0.0000
    27 C16      1.5096  -0.4762  10.1246   C.ar      1 RES1   0.0000
    28 C17      0.2060  -0.9195  10.3666   C.ar      1 RES1   0.0000
    29 C18     -0.3518  -0.7766  11.5989   C.ar      1 RES1   0.0000
    30 C19      0.4190  -0.2217  12.6428   C.ar      1 RES1   0.0000
    31 C20     -1.4565  -0.3891  14.2446   C.3       1 RES1   0.0000
    32 C21     -1.9890   0.2890  15.4862   C.3       1 RES1   0.0000
    33 C22     -3.3801  -0.2463  15.7282   C.3       1 RES1   0.0000
    34 C23     -1.0927   0.0296  16.6742   C.3       1 RES1   0.0000
    35 C24     -2.0337   1.7700  15.1980   C.3       1 RES1   0.0000
    36 C25      5.2600  -0.8160  11.9814   C.3       1 RES1   0.0000
    37 C26      4.5069  -2.0015  12.5079   C.ar      1 RES1   0.0000
    38 C27      4.8031  -3.2739  12.0701   C.ar      1 RES1   0.0000
    39 C28      4.1876  -4.3445  12.7223   C.ar      1 RES1   0.0000
    40 C29      3.3063  -4.1327  13.7680   C.ar      1 RES1   0.0000
    41 C30      3.0082  -2.8076  14.1338   C.ar      1 RES1   0.0000
    42 C31      1.4157  -3.4037  15.9943   C.3       1 RES1   0.0000
    43 C32      1.9625  -3.4546  17.4187   C.3       1 RES1   0.0000
    44 C33      3.4041  -3.9225  17.4187   C.3       1 RES1   0.0000
    45 C34      1.0948  -4.4381  18.2040   C.3       1 RES1   0.0000
    46 C35      1.8837  -2.0869  18.0968   C.3       1 RES1   0.0000
    47 H1       2.9975   0.2988  16.0626   H         1 RES1   0.0000
    48 H2       2.0146   2.3052  15.2645   H         1 RES1   0.0000
    49 H3       0.3979   0.1100  14.4017   H         1 RES1   0.0000
    50 H4       2.0687  -1.5237  15.4123   H         1 RES1   0.0000
    51 H5       6.6530   0.3349  17.6053   H         1 RES1   0.0000
    52 H6       7.0269  -0.5484  16.3860   H         1 RES1   0.0000
    53 H7       7.1333   0.9966  16.2880   H         1 RES1   0.0000
    54 H8       6.0914   1.4170  12.8165   H         1 RES1   0.0000
    55 H9       5.7263   1.8521  11.3717   H         1 RES1   0.0000
    56 H10      5.6072   4.2837  11.8188   H         1 RES1   0.0000
    57 H11      4.5503   6.0307  12.9957   H         1 RES1   0.0000
    58 H12      2.8919   5.5447  14.5181   H         1 RES1   0.0000
    59 H13      1.3992   4.9126  15.8151   H         1 RES1   0.0000
    60 H14      0.4144   3.7632  16.1513   H         1 RES1   0.0000
    61 H15      3.8239   3.8716  17.1324   H         1 RES1   0.0000
    62 H16      3.3565   5.3395  17.3153   H         1 RES1   0.0000
    63 H17      3.5878   4.4364  18.5568   H         1 RES1   0.0000
    64 H18      1.9198   2.6188  19.1148   H         1 RES1   0.0000
    65 H19      0.7644   2.3364  18.1208   H         1 RES1   0.0000
    66 H20      2.2241   1.9851  17.7328   H         1 RES1   0.0000
    67 H21      0.9959   5.8452  17.9915   H         1 RES1   0.0000
    68 H22      1.2115   5.0144  19.2829   H         1 RES1   0.0000
    69 H23      0.0356   4.6745  18.3296   H         1 RES1   0.0000
    70 H24      3.4558   1.5877  10.8027   H         1 RES1   0.0000
    71 H25      3.9456   0.2594  10.1689   H         1 RES1   0.0000
    72 H26      1.9016  -0.5336   9.2618   H         1 RES1   0.0000
    73 H27     -0.2809  -1.3267   9.6701   H         1 RES1   0.0000
    74 H28     -1.2510  -1.0508  11.7615   H         1 RES1   0.0000
    75 H29     -1.4488  -1.3299  14.4128   H         1 RES1   0.0000
    76 H30     -2.0458  -0.2052  13.5259   H         1 RES1   0.0000
    77 H31     -3.7583   0.1330  16.5097   H         1 RES1   0.0000
    78 H32     -3.3163  -1.2117  15.8760   H         1 RES1   0.0000
    79 H33     -3.9349  -0.1018  14.9855   H         1 RES1   0.0000
    80 H34     -0.2140   0.2726  16.4913   H         1 RES1   0.0000
    81 H35     -1.0908  -0.9654  16.8072   H         1 RES1   0.0000
    82 H36     -1.4293   0.4072  17.4446   H         1 RES1   0.0000
    83 H37     -1.1486   2.0819  15.0021   H         1 RES1   0.0000
    84 H38     -2.5941   1.9374  14.4571   H         1 RES1   0.0000
    85 H39     -2.3588   2.2379  15.9610   H         1 RES1   0.0000
    86 H40      6.0652  -0.7241  12.4581   H         1 RES1   0.0000
    87 H41      5.4431  -0.9638  11.0558   H         1 RES1   0.0000
    88 H42      5.4106  -3.4201  11.3532   H         1 RES1   0.0000
    89 H43      4.3627  -5.2295  12.4377   H         1 RES1   0.0000
    90 H44      2.9151  -4.8699  14.2169   H         1 RES1   0.0000
    91 H45      1.4709  -4.2755  15.6248   H         1 RES1   0.0000
    92 H46      0.5030  -3.1344  16.0331   H         1 RES1   0.0000
    93 H47      3.9403  -3.2953  16.9476   H         1 RES1   0.0000
    94 H48      3.4561  -4.7697  16.9957   H         1 RES1   0.0000
    95 H49      3.7122  -3.9931  18.3148   H         1 RES1   0.0000
    96 H50      1.1325  -5.2935  17.7901   H         1 RES1   0.0000
    97 H51      1.3936  -4.4955  19.0963   H         1 RES1   0.0000
    98 H52      0.1842  -4.1327  18.1929   H         1 RES1   0.0000
    99 H53      2.4239  -1.4580  17.6275   H         1 RES1   0.0000
   100 H54      2.1876  -2.1492  18.9947   H         1 RES1   0.0000
   101 H55      0.9793  -1.7782  18.0950   H         1 RES1   0.0000
   102 Cl1      8.9981   0.3095  11.8434   Cl        2 RES2   0.0000
   103 O4       8.2439   0.1527  13.0530   O.3       2 RES2  -1.0000
   104 O5       9.8918   1.4219  11.9648   O.2       2 RES2   0.0000
   105 O6       9.7866  -0.8636  11.6433   O.2       2 RES2   0.0000
   106 O7       8.1074   0.4975  10.7361   O.2       2 RES2   0.0000
@<TRIPOS>BOND
     1     1     2    1
     2     2    47    1
     3     3    12    2
     4     4     1    1
     5     5     1    1
     6     6     1    1
     7     7    19    1
     8     8     1    1
     9     9    30    1
    10    10     1    1
    11    11    41    1
    12    12     4    1
    13    13    12    1
    14    14     5    1
    15    15     6   ar
    16    16    15   ar
    17    17    16   ar
    18    18    17   ar
    19    19     6   ar
    20    20     7    1
    21    21    20    1
    22    22    21    1
    23    23    21    1
    24    24    21    1
    25    25     5    1
    26    26     8   ar
    27    27    26   ar
    28    28    27   ar
    29    29    28   ar
    30    30     8   ar
    31    31     9    1
    32    32    31    1
    33    33    32    1
    34    34    32    1
    35    35    32    1
    36    36     5    1
    37    37    10   ar
    38    38    37   ar
    39    39    38   ar
    40    40    39   ar
    41    41    10   ar
    42    42    11    1
    43    43    42    1
    44    44    43    1
    45    45    43    1
    46    46    43    1
    47    48     7    1
    48    49     9    1
    49    50    11    1
    50    51    13    1
    51    52    13    1
    52    53    13    1
    53    54    14    1
    54    55    14    1
    55    56    16    1
    56    57    17    1
    57    58    18    1
    58    59    20    1
    59    60    20    1
    60    61    22    1
    61    62    22    1
    62    63    22    1
    63    64    23    1
    64    65    23    1
    65    66    23    1
    66    67    24    1
    67    68    24    1
    68    69    24    1
    69    70    25    1
    70    71    25    1
    71    72    27    1
    72    73    28    1
    73    74    29    1
    74    75    31    1
    75    76    31    1
    76    77    33    1
    77    78    33    1
    78    79    33    1
    79    80    34    1
    80    81    34    1
    81    82    34    1
    82    83    35    1
    83    84    35    1
    84    85    35    1
    85    86    36    1
    86    87    36    1
    87    88    38    1
    88    89    39    1
    89    90    40    1
    90    91    42    1
    91    92    42    1
    92    93    44    1
    93    94    44    1
    94    95    44    1
    95    96    45    1
    96    97    45    1
    97    98    45    1
    98    99    46    1
    99   100    46    1
   100   101    46    1
   101    14    15    1
   102    18    19   ar
   103    25    26    1
   104    29    30   ar
   105    36    37    1
   106    40    41   ar
   107   102   103    1
   108   104   102    2
   109   105   102    2
   110   106   102    2
@<TRIPOS>SUBSTRUCTURE
     1 RES1        1 GROUP             0 ****  ****    0  
     2 RES2      102 GROUP             0 ****  ****    0  
@<TRIPOS>CRYSIN
   13.6640   16.4190   18.5181   90.0000   93.8850   90.0000    14     1
