@<TRIPOS>MOLECULE
VAHGES
   114   124     2     0     0
SMALL
USER_CHARGES
****
Generated from the CSD

@<TRIPOS>ATOM
     1 B1       2.1836   3.0906  10.4937   B         1 RES1  -1.0000
     2 C1       2.7196   4.3554  11.4191   C.ar      1 RES1   0.0000
     3 C2       4.0510   4.6479  11.6938   C.ar      1 RES1   0.0000
     4 H1       4.7236   4.0984  11.3080   H         1 RES1   0.0000
     5 C3       4.4438   5.7076  12.5068   C.ar      1 RES1   0.0000
     6 H2       5.3679   5.8714  12.6579   H         1 RES1   0.0000
     7 C4       3.4982   6.5156  13.0900   C.ar      1 RES1   0.0000
     8 H3       3.7579   7.2318  13.6570   H         1 RES1   0.0000
     9 C5       2.1680   6.2690  12.8365   C.ar      1 RES1   0.0000
    10 H4       1.5038   6.8213  13.2336   H         1 RES1   0.0000
    11 C6       1.7882   5.2294  12.0160   C.ar      1 RES1   0.0000
    12 H5       0.8633   5.0960  11.8462   H         1 RES1   0.0000
    13 C7       0.9061   3.6464   9.6296   C.ar      1 RES1   0.0000
    14 C8       1.0301   4.7403   8.7566   C.ar      1 RES1   0.0000
    15 H6       1.8869   5.1328   8.6355   H         1 RES1   0.0000
    16 C9      -0.0431   5.2677   8.0698   C.ar      1 RES1   0.0000
    17 H7       0.0855   5.9944   7.4729   H         1 RES1   0.0000
    18 C10     -1.3051   4.7422   8.2496   C.ar      1 RES1   0.0000
    19 H8      -2.0505   5.1039   7.7813   H         1 RES1   0.0000
    20 C11     -1.4657   3.6994   9.1063   C.ar      1 RES1   0.0000
    21 H9      -2.3325   3.3408   9.2549   H         1 RES1   0.0000
    22 C12     -0.3884   3.1604   9.7607   C.ar      1 RES1   0.0000
    23 H10     -0.5355   2.4165  10.3326   H         1 RES1   0.0000
    24 C13      1.6929   1.8465  11.4691   C.ar      1 RES1   0.0000
    25 C14      1.1068   2.0329  12.7216   C.ar      1 RES1   0.0000
    26 H11      0.9886   2.9195  13.0413   H         1 RES1   0.0000
    27 C15      0.6889   0.9772  13.5209   C.ar      1 RES1   0.0000
    28 H12      0.2958   1.1530  14.3688   H         1 RES1   0.0000
    29 C16      0.8364  -0.3121  13.0963   C.ar      1 RES1   0.0000
    30 H13      0.5624  -1.0369  13.6470   H         1 RES1   0.0000
    31 C17      1.3877  -0.5467  11.8587   C.ar      1 RES1   0.0000
    32 H14      1.4895  -1.4391  11.5477   H         1 RES1   0.0000
    33 C18      1.7971   0.5154  11.0607   C.ar      1 RES1   0.0000
    34 H15      2.1611   0.3282  10.2040   H         1 RES1   0.0000
    35 C19      3.4006   2.5341   9.5372   C.ar      1 RES1   0.0000
    36 C20      4.4696   1.8172  10.0816   C.ar      1 RES1   0.0000
    37 H16      4.4869   1.6794  11.0220   H         1 RES1   0.0000
    38 C21      5.5057   1.2963   9.3186   C.ar      1 RES1   0.0000
    39 H17      6.2248   0.8414   9.7395   H         1 RES1   0.0000
    40 C22      5.4882   1.4412   7.9399   C.ar      1 RES1   0.0000
    41 H18      6.1760   1.0640   7.4042   H         1 RES1   0.0000
    42 C23      4.4611   2.1396   7.3642   C.ar      1 RES1   0.0000
    43 H19      4.4405   2.2578   6.4226   H         1 RES1   0.0000
    44 C24      3.4436   2.6769   8.1497   C.ar      1 RES1   0.0000
    45 H20      2.7488   3.1612   7.7214   H         1 RES1   0.0000
    46 C25      3.5429   7.7880   9.6221   C.3       2 RES2   0.0000
    47 H21      3.9488   7.1405  10.2515   H         2 RES2   0.0000
    48 H22      2.6224   7.4850   9.4223   H         2 RES2   0.0000
    49 C26      3.4920   9.1455  10.2677   C.ar      2 RES2   0.0000
    50 C27      2.4304   9.5286  11.0869   C.ar      2 RES2   0.0000
    51 H23      1.6924   8.9463  11.2168   H         2 RES2   0.0000
    52 C28      2.4631  10.7569  11.7051   C.ar      2 RES2   0.0000
    53 H24      1.7436  11.0377  12.2583   H         2 RES2   0.0000
    54 C29      3.5566  11.5760  11.5078   C.ar      2 RES2   0.0000
    55 H25      3.6137  12.4204  11.9386   H         2 RES2   0.0000
    56 C30      4.5622  11.1436  10.6773   C.ar      2 RES2   0.0000
    57 H26      5.3040  11.7185  10.5325   H         2 RES2   0.0000
    58 C31      4.9111   6.4931   8.0910   C.3       2 RES2   0.0000
    59 H27      5.2448   6.4714   7.1594   H         2 RES2   0.0000
    60 H28      4.2085   5.8014   8.1809   H         2 RES2   0.0000
    61 C32      6.0316   6.1835   9.0239   C.ar      2 RES2   0.0000
    62 C33      6.4647   4.8872   9.2237   C.ar      2 RES2   0.0000
    63 H29      6.0456   4.1638   8.7716   H         2 RES2   0.0000
    64 C34      7.5080   4.6605  10.0841   C.ar      2 RES2   0.0000
    65 H30      7.8314   3.7787  10.2277   H         2 RES2   0.0000
    66 C35      8.0816   5.7301  10.7385   C.ar      2 RES2   0.0000
    67 H31      8.7913   5.5926  11.3542   H         2 RES2   0.0000
    68 C36      7.6184   6.9820  10.4925   C.ar      2 RES2   0.0000
    69 H32      8.0282   7.7146  10.9383   H         2 RES2   0.0000
    70 C37      3.5155   8.3096   7.2506   C.3       2 RES2   0.0000
    71 H33      2.8561   8.9695   7.5840   H         2 RES2   0.0000
    72 H34      3.0173   7.5546   6.8472   H         2 RES2   0.0000
    73 C38      4.3913   8.9569   6.1991   C.3       2 RES2   0.0000
    74 H35      4.9991   8.2785   5.8095   H         2 RES2   0.0000
    75 H36      3.8249   9.3159   5.4698   H         2 RES2   0.0000
    76 C39      6.3234  10.3832   5.9044   C.3       2 RES2   0.0000
    77 H37      6.6947  11.2640   6.1641   H         2 RES2   0.0000
    78 H38      5.9940  10.4553   4.9740   H         2 RES2   0.0000
    79 C40      7.4016   9.3616   5.9643   C.ar      2 RES2   0.0000
    80 C41      8.2955   9.2045   4.9103   C.ar      2 RES2   0.0000
    81 H39      8.2105   9.7399   4.1298   H         2 RES2   0.0000
    82 C42      9.2969   8.2784   5.0002   C.ar      2 RES2   0.0000
    83 H40      9.9123   8.1619   4.2847   H         2 RES2   0.0000
    84 C43      9.3989   7.5175   6.1441   C.ar      2 RES2   0.0000
    85 H41     10.0813   6.8631   6.2328   H         2 RES2   0.0000
    86 C44      8.4937   7.7247   7.1557   C.ar      2 RES2   0.0000
    87 H42      8.5731   7.2020   7.9449   H         2 RES2   0.0000
    88 C45      4.3731  11.2780   7.0383   C.3       2 RES2   0.0000
    89 H43      4.9351  11.9341   7.5203   H         2 RES2   0.0000
    90 H44      3.6287  11.0303   7.6427   H         2 RES2   0.0000
    91 C46      3.7832  11.9657   5.8219   C.ar      2 RES2   0.0000
    92 C47      4.4630  13.0136   5.2088   C.ar      2 RES2   0.0000
    93 H45      5.3311  13.2536   5.5122   H         2 RES2   0.0000
    94 C48      3.8879  13.7077   4.1610   C.ar      2 RES2   0.0000
    95 H46      4.3546  14.4311   3.7602   H         2 RES2   0.0000
    96 C49      2.6483  13.3569   3.7002   C.ar      2 RES2   0.0000
    97 H47      2.2550  13.8414   2.9847   H         2 RES2   0.0000
    98 C50      1.9680  12.3024   4.2697   C.ar      2 RES2   0.0000
    99 H48      1.1152  12.0447   3.9375   H         2 RES2   0.0000
   100 C51      2.5392  11.6202   5.3362   C.ar      2 RES2   0.0000
   101 H49      2.0655  10.9018   5.7383   H         2 RES2   0.0000
   102 C52      7.8725  11.0617   9.5621   C.2       2 RES2   0.0000
   103 C53      8.9673  11.8426  10.2415   C.3       2 RES2   0.0000
   104 H50      9.7841  11.3011  10.2727   H         2 RES2   0.0000
   105 H51      8.6908  12.0669  11.1544   H         2 RES2   0.0000
   106 H52      9.1407  12.6667   9.7407   H         2 RES2   0.0000
   107 Fe1      6.1328   9.2117   8.7367   Fe        2 RES2   1.0000
   108 N1       4.3323   7.8181   8.3736   N.3       2 RES2   0.0000
   109 N2       4.5474   9.9492  10.0602   N.ar      2 RES2   0.0000
   110 N3       6.6034   7.2352   9.6439   N.ar      2 RES2   0.0000
   111 N4       5.1930  10.0569   6.7903   N.3       2 RES2   0.0000
   112 N5       7.5043   8.6237   7.0870   N.ar      2 RES2   0.0000
   113 O1       7.6738   9.8810   9.9429   O.co2     2 RES2   0.0000
   114 O2       7.1804  11.5677   8.6705   O.co2     2 RES2   0.0000
@<TRIPOS>BOND
     1     1     2    1
     2     2     3   ar
     3     3     4    1
     4     5     3   ar
     5     6     5    1
     6     7     5   ar
     7     8     7    1
     8     9     7   ar
     9    10     9    1
    10    11     2   ar
    11    12    11    1
    12    13     1    1
    13    14    13   ar
    14    15    14    1
    15    16    14   ar
    16    17    16    1
    17    18    16   ar
    18    19    18    1
    19    20    18   ar
    20    21    20    1
    21    22    13   ar
    22    23    22    1
    23    24     1    1
    24    25    24   ar
    25    26    25    1
    26    27    25   ar
    27    28    27    1
    28    29    27   ar
    29    30    29    1
    30    31    29   ar
    31    32    31    1
    32    33    24   ar
    33    34    33    1
    34    35     1    1
    35    36    35   ar
    36    37    36    1
    37    38    36   ar
    38    39    38    1
    39    40    38   ar
    40    41    40    1
    41    42    40   ar
    42    43    42    1
    43    44    35   ar
    44    45    44    1
    45     9    11   ar
    46    20    22   ar
    47    31    33   ar
    48    42    44   ar
    49    46    47    1
    50    48    46    1
    51    49    46    1
    52    50    49   ar
    53    51    50    1
    54    52    50   ar
    55    53    52    1
    56    54    52   ar
    57    55    54    1
    58    56    54   ar
    59    57    56    1
    60    58    59    1
    61    60    58    1
    62    61    58    1
    63    62    61   ar
    64    63    62    1
    65    64    62   ar
    66    65    64    1
    67    66    64   ar
    68    67    66    1
    69    68    66   ar
    70    69    68    1
    71    70    71    1
    72    72    70    1
    73    73    70    1
    74    74    73    1
    75    75    73    1
    76    76    77    1
    77    78    76    1
    78    79    76    1
    79    80    79   ar
    80    81    80    1
    81    82    80   ar
    82    83    82    1
    83    84    82   ar
    84    85    84    1
    85    86    84   ar
    86    87    86    1
    87    88    89    1
    88    90    88    1
    89    91    88    1
    90    92    91   ar
    91    93    92    1
    92    94    92   ar
    93    95    94    1
    94    96    94   ar
    95    97    96    1
    96    98    96   ar
    97    99    98    1
    98   100    91   ar
    99   101   100    1
   100   102   103    1
   101   103   104    1
   102   105   103    1
   103   106   103    1
   104   107   108    1
   105   108    46    1
   106   109    49   ar
   107   110    61   ar
   108   111    73    1
   109   112    79   ar
   110   113   102    1
   111   114   102    2
   112    56   109   ar
   113    58   108    1
   114    68   110   ar
   115    70   108    1
   116    76   111    1
   117    86   112   ar
   118    88   111    1
   119    98   100   ar
   120   107   109    1
   121   107   110    1
   122   107   111    1
   123   107   112    1
   124   107   113    1
@<TRIPOS>SUBSTRUCTURE
     1 RES1        1 GROUP             0 ****  ****    0  
     2 RES2       46 GROUP             0 ****  ****    0  
@<TRIPOS>CRYSIN
   13.2430   13.5070   13.9920   96.0300  114.1500  101.4200     2     1
