@<TRIPOS>MOLECULE
VECYOU
   105   110     2     0     0
SMALL
NO_CHARGES
****
Generated from the CSD

@<TRIPOS>ATOM
     1 C1       8.5518   9.3020  14.3689   C.3       1 RES1   0.0000
     2 H1       9.3373   9.7025  13.9186   H         1 RES1   0.0000
     3 H2       7.7551   9.8151  14.0825   H         1 RES1   0.0000
     4 C2       8.7215   9.4911  15.8771   C.3       1 RES1   0.0000
     5 H3       8.9461  10.4382  16.0577   H         1 RES1   0.0000
     6 H4       9.4817   8.9371  16.1857   H         1 RES1   0.0000
     7 C3       7.4671   9.1127  16.6891   C.3       1 RES1   0.0000
     8 H5       6.6701   9.4506  16.2088   H         1 RES1   0.0000
     9 H6       7.5075   9.5784  17.5618   H         1 RES1   0.0000
    10 C4       7.2171   7.8236  12.3175   C.3       1 RES1   0.0000
    11 H7       7.1450   6.9492  11.8376   H         1 RES1   0.0000
    12 C5       7.6911   8.8556  11.2887   C.3       1 RES1   0.0000
    13 H8       7.8072   9.7244  11.7270   H         1 RES1   0.0000
    14 H9       7.0237   8.9362  10.5755   H         1 RES1   0.0000
    15 H10      8.5454   8.5662  10.9055   H         1 RES1   0.0000
    16 C6       5.8118   8.1683  12.8236   C.3       1 RES1   0.0000
    17 H11      5.5413   7.5180  13.5050   H         1 RES1   0.0000
    18 H12      5.1791   8.1400  12.0757   H         1 RES1   0.0000
    19 H13      5.8164   9.0673  13.2136   H         1 RES1   0.0000
    20 C7      10.0023   7.2574  12.9350   C.3       1 RES1   0.0000
    21 H14     10.1432   7.9814  12.2599   H         1 RES1   0.0000
    22 C8       9.9887   5.9158  12.1924   C.3       1 RES1   0.0000
    23 H15      9.8003   5.1931  12.8267   H         1 RES1   0.0000
    24 H16     10.8624   5.7647  11.7749   H         1 RES1   0.0000
    25 H17      9.2947   5.9325  11.5006   H         1 RES1   0.0000
    26 C9      11.1595   7.3186  13.9417   C.3       1 RES1   0.0000
    27 H18     11.1731   8.1997  14.3705   H         1 RES1   0.0000
    28 H19     12.0077   7.1699  13.4739   H         1 RES1   0.0000
    29 H20     11.0366   6.6254  14.6234   H         1 RES1   0.0000
    30 C10      8.2140   7.0176  18.5570   C.3       1 RES1   0.0000
    31 H21      8.1388   6.0420  18.7630   H         1 RES1   0.0000
    32 C11      9.7082   7.3013  18.3232   C.3       1 RES1   0.0000
    33 H22      9.9880   6.8994  17.4744   H         1 RES1   0.0000
    34 H23     10.2324   6.9155  19.0559   H         1 RES1   0.0000
    35 H24      9.8557   8.2695  18.2906   H         1 RES1   0.0000
    36 C12      7.7142   7.7654  19.7998   C.3       1 RES1   0.0000
    37 H25      7.7209   8.7298  19.6256   H         1 RES1   0.0000
    38 H26      8.3012   7.5665  20.5589   H         1 RES1   0.0000
    39 H27      6.8010   7.4776  20.0090   H         1 RES1   0.0000
    40 C13      5.4625   7.2676  17.5584   C.3       1 RES1   0.0000
    41 H28      5.3161   8.0404  18.1761   H         1 RES1   0.0000
    42 C14      5.1137   5.9828  18.3185   C.3       1 RES1   0.0000
    43 H29      5.1826   5.2158  17.7122   H         1 RES1   0.0000
    44 H30      4.1985   6.0453  18.6633   H         1 RES1   0.0000
    45 H31      5.7370   5.8656  19.0655   H         1 RES1   0.0000
    46 C15      4.5084   7.4273  16.3664   C.3       1 RES1   0.0000
    47 H32      4.7363   8.2425  15.8726   H         1 RES1   0.0000
    48 H33      3.5863   7.4897  16.6922   H         1 RES1   0.0000
    49 H34      4.5937   6.6516  15.7737   H         1 RES1   0.0000
    50 C16      7.4987   4.1207  16.2488   C.3       1 RES1   0.0000
    51 H35      7.1959   4.1915  17.1991   H         1 RES1   0.0000
    52 C17      6.5061   4.2625  15.2570   C.3       1 RES1   0.0000
    53 H36      5.5598   4.3946  15.5518   H         1 RES1   0.0000
    54 C18      6.8248   4.5139  13.9032   C.3       1 RES1   0.0000
    55 C19      5.7153   4.6537  12.8862   C.3       1 RES1   0.0000
    56 H37      6.0671   5.1169  12.0851   H         1 RES1   0.0000
    57 H38      4.9947   5.2147  13.2687   H         1 RES1   0.0000
    58 C20      5.1268   3.2986  12.4650   C.3       1 RES1   0.0000
    59 H39      5.8627   2.6923  12.1985   H         1 RES1   0.0000
    60 H40      4.6612   2.8910  13.2379   H         1 RES1   0.0000
    61 C21      4.1462   3.4395  11.3044   C.3       1 RES1   0.0000
    62 H41      4.6101   3.8180  10.5287   H         1 RES1   0.0000
    63 H42      3.4117   4.0327  11.5674   H         1 RES1   0.0000
    64 H43      3.7865   2.5579  11.0718   H         1 RES1   0.0000
    65 C22      9.9127   3.8587  17.3835   C.3       1 RES1   0.0000
    66 H44      9.6025   4.5592  18.0262   H         1 RES1   0.0000
    67 C23     11.4133   4.0693  17.1369   C.3       1 RES1   0.0000
    68 H45     11.5595   5.0071  16.8557   H         1 RES1   0.0000
    69 H46     11.8966   3.9337  17.9901   H         1 RES1   0.0000
    70 C24     12.0164   3.1410  16.0793   C.3       1 RES1   0.0000
    71 H47     12.1110   2.2346  16.4661   H         1 RES1   0.0000
    72 H48     12.9227   3.4658  15.8485   H         1 RES1   0.0000
    73 C25     11.1812   3.0471  14.7941   C.3       1 RES1   0.0000
    74 H49     11.5089   2.2774  14.2648   H         1 RES1   0.0000
    75 H50     11.3398   3.8645  14.2586   H         1 RES1   0.0000
    76 C26      9.6603   2.8858  14.9963   C.3       1 RES1   0.0000
    77 H51      9.2134   2.9896  14.1078   H         1 RES1   0.0000
    78 C27      9.2651   1.5124  15.5787   C.3       1 RES1   0.0000
    79 H52      9.6502   0.8043  15.0037   H         1 RES1   0.0000
    80 H53      8.2798   1.4256  15.5391   H         1 RES1   0.0000
    81 C28      9.7213   1.2658  17.0322   C.3       1 RES1   0.0000
    82 H54      9.2044   0.5056  17.3994   H         1 RES1   0.0000
    83 H55     10.6750   1.0006  17.0219   H         1 RES1   0.0000
    84 C29      9.5587   2.4698  17.9772   C.3       1 RES1   0.0000
    85 H56     10.1282   2.3185  18.7727   H         1 RES1   0.0000
    86 H57      8.6188   2.4957  18.2871   H         1 RES1   0.0000
    87 H58      9.3485   5.1986  15.4820   H         1 RES1   0.0000
    88 H59      7.6119   4.1340  13.5441   H         1 RES1   0.0000
    89 B1       9.0649   4.0265  16.0059   B         1 RES1   0.0000
    90 Fe1      7.7657   5.9286  15.2072   Fe        1 RES1   0.0000
    91 P1       8.3641   7.5539  13.7573   P.3       1 RES1   0.0000
    92 P2       7.2372   7.3062  17.0022   P.3       1 RES1   0.0000
    93 C30      4.6258   6.9689   9.2776   C.3       2 RES2   0.0000
    94 H60      5.0656   6.6465  10.1039   H         2 RES2   0.0000
    95 H61      4.8480   6.3527   8.5352   H         2 RES2   0.0000
    96 C31      3.1280   7.0643   9.4675   C.3       2 RES2   0.0000
    97 H62      2.9013   7.3359  10.3921   H         2 RES2   0.0000
    98 H63      2.6862   6.2018   9.2653   H         2 RES2   0.0000
    99 C32      2.7226   8.1460   8.4558   C.3       2 RES2   0.0000
   100 H64      2.2826   7.7461   7.6645   H         2 RES2   0.0000
   101 H65      2.1092   8.8056   8.8672   H         2 RES2   0.0000
   102 C33      4.0488   8.7954   8.0750   C.3       2 RES2   0.0000
   103 H66      4.2869   8.5662   7.1419   H         2 RES2   0.0000
   104 H67      3.9817   9.7805   8.1494   H         2 RES2   0.0000
   105 O1       5.0356   8.2997   8.9714   O.3       2 RES2   0.0000
@<TRIPOS>BOND
     1     1     2    1
     2     3     1    1
     3     4     1    1
     4     5     4    1
     5     6     4    1
     6     7     4    1
     7     8     7    1
     8     9     7    1
     9    10    11    1
    10    12    10    1
    11    13    12    1
    12    14    12    1
    13    15    12    1
    14    16    10    1
    15    17    16    1
    16    18    16    1
    17    19    16    1
    18    20    21    1
    19    22    20    1
    20    23    22    1
    21    24    22    1
    22    25    22    1
    23    26    20    1
    24    27    26    1
    25    28    26    1
    26    29    26    1
    27    30    31    1
    28    32    30    1
    29    33    32    1
    30    34    32    1
    31    35    32    1
    32    36    30    1
    33    37    36    1
    34    38    36    1
    35    39    36    1
    36    40    41    1
    37    42    40    1
    38    43    42    1
    39    44    42    1
    40    45    42    1
    41    46    40    1
    42    47    46    1
    43    48    46    1
    44    49    46    1
    45    50    51    1
    46    52    50   un
    47    53    52    1
    48    54    52   un
    49    55    54    1
    50    56    55    1
    51    57    55    1
    52    58    55    1
    53    59    58    1
    54    60    58    1
    55    61    58    1
    56    62    61    1
    57    63    61    1
    58    64    61    1
    59    65    66    1
    60    67    65    1
    61    68    67    1
    62    69    67    1
    63    70    67    1
    64    71    70    1
    65    72    70    1
    66    73    70    1
    67    74    73    1
    68    75    73    1
    69    76    73    1
    70    77    76    1
    71    78    76    1
    72    79    78    1
    73    80    78    1
    74    81    78    1
    75    82    81    1
    76    83    81    1
    77    84    65    1
    78    85    84    1
    79    86    84    1
    80    87    89    1
    81    88    54    1
    82    89    50    1
    83    90    50   un
    84    91     1    1
    85    92     7    1
    86    10    91    1
    87    20    91    1
    88    30    92    1
    89    40    92    1
    90    52    90   un
    91    54    90   un
    92    65    89    1
    93    76    89    1
    94    81    84    1
    95    87    90    1
    96    90    91    1
    97    90    92    1
    98    93    94    1
    99    95    93    1
   100    96    93    1
   101    97    96    1
   102    98    96    1
   103    99    96    1
   104   100    99    1
   105   101    99    1
   106   102    99    1
   107   103   102    1
   108   104   102    1
   109   105    93    1
   110   102   105    1
@<TRIPOS>SUBSTRUCTURE
     1 RES1        1 GROUP             0 ****  ****    0  
     2 RES2       93 GROUP             0 ****  ****    0  
@<TRIPOS>CRYSIN
    9.3118   10.0216   19.6195   88.9120   89.0800   71.5390     2     1
