@<TRIPOS>MOLECULE
VEJRUA
   119   127     1     0     0
SMALL
NO_CHARGES
****
Generated from the CSD

@<TRIPOS>ATOM
     1 Fe1      4.5042   2.5707  14.0374   Fe        1 RES1   0.0000
     2 P1       3.7326   0.5795  14.8013   P.3       1 RES1   0.0000
     3 P2       5.1233   4.6749  14.5566   P.3       1 RES1   0.0000
     4 P3       4.3521   2.4633  11.7572   P.3       1 RES1   0.0000
     5 Si1      2.3665   3.3217  14.5965   Si        1 RES1   0.0000
     6 N1       6.2191   2.0029  13.8493   N.1       1 RES1   0.0000
     7 N2       7.2903   1.6600  13.6151   N.1       1 RES1   0.0000
     8 C1       4.9478  -0.5013  15.7420   C.3       1 RES1   0.0000
     9 C2       5.9375  -1.2701  14.8386   C.3       1 RES1   0.0000
    10 C3       6.8914  -2.1589  15.6831   C.3       1 RES1   0.0000
    11 C4       7.6145  -1.3171  16.7558   C.3       1 RES1   0.0000
    12 C5       6.6184  -0.6078  17.6647   C.3       1 RES1   0.0000
    13 C6       5.7032   0.3070  16.8294   C.3       1 RES1   0.0000
    14 C7       2.9245  -0.7266  13.7126   C.3       1 RES1   0.0000
    15 C8       2.4554  -2.0475  14.3492   C.3       1 RES1   0.0000
    16 C9       1.8427  -3.0168  13.3263   C.3       1 RES1   0.0000
    17 C10      0.7427  -2.3830  12.4799   C.3       1 RES1   0.0000
    18 C11      1.2358  -1.0708  11.8157   C.3       1 RES1   0.0000
    19 C12      1.7362  -0.1226  12.9288   C.3       1 RES1   0.0000
    20 C13      2.3972   0.8727  16.0364   C.ar      1 RES1   0.0000
    21 C14      2.0521   0.0074  17.1219   C.ar      1 RES1   0.0000
    22 C15      0.9639   0.2909  17.9278   C.ar      1 RES1   0.0000
    23 C16      0.1744   1.4075  17.7070   C.ar      1 RES1   0.0000
    24 C17      0.5147   2.2654  16.6546   C.ar      1 RES1   0.0000
    25 C18      1.6549   2.0487  15.8414   C.ar      1 RES1   0.0000
    26 C19      0.9024   3.7397  13.4385   C.ar      1 RES1   0.0000
    27 C20     -0.0634   2.8038  13.0595   C.ar      1 RES1   0.0000
    28 C21     -1.0915   3.0886  12.1579   C.ar      1 RES1   0.0000
    29 C22     -1.2193   4.3896  11.6612   C.ar      1 RES1   0.0000
    30 C23     -0.3182   5.3564  12.0567   C.ar      1 RES1   0.0000
    31 C24      0.7213   5.0395  12.9178   C.ar      1 RES1   0.0000
    32 C25      2.5600   4.9553  15.5856   C.ar      1 RES1   0.0000
    33 C26      1.5378   5.6349  16.2664   C.ar      1 RES1   0.0000
    34 C27      1.7605   6.8097  16.9950   C.ar      1 RES1   0.0000
    35 C28      3.0559   7.3606  17.0060   C.ar      1 RES1   0.0000
    36 C29      4.0740   6.7280  16.3271   C.ar      1 RES1   0.0000
    37 C30      3.8445   5.5334  15.5856   C.ar      1 RES1   0.0000
    38 C31      5.5115   5.9506  13.2453   C.3       1 RES1   0.0000
    39 C32      4.2303   6.3554  12.4615   C.3       1 RES1   0.0000
    40 C33      4.5388   7.2330  11.2251   C.3       1 RES1   0.0000
    41 C34      5.3657   8.4685  11.5876   C.3       1 RES1   0.0000
    42 C35      6.5957   8.0934  12.4155   C.3       1 RES1   0.0000
    43 C36      6.2117   7.2776  13.6574   C.3       1 RES1   0.0000
    44 C37      6.6094   4.8897  15.6758   C.3       1 RES1   0.0000
    45 C38      6.4768   4.0913  16.9821   C.3       1 RES1   0.0000
    46 C39      7.5775   4.4961  17.9830   C.3       1 RES1   0.0000
    47 C40      8.9693   4.2992  17.3722   C.3       1 RES1   0.0000
    48 C41      9.1248   5.0543  16.0290   C.3       1 RES1   0.0000
    49 C42      7.9912   4.6211  15.0429   C.3       1 RES1   0.0000
    50 C43      4.7468   0.8158  11.0558   C.3       1 RES1   0.0000
    51 C44      5.6246   3.4401  10.8424   C.3       1 RES1   0.0000
    52 C45      2.9143   2.9091  10.7375   C.3       1 RES1   0.0000
    53 H1       4.4261  -1.1854  16.2117   H         1 RES1   0.0000
    54 H2       5.4549  -1.8156  14.1978   H         1 RES1   0.0000
    55 H3       6.4669  -0.6086  14.3680   H         1 RES1   0.0000
    56 H4       6.3631  -2.8349  16.1374   H         1 RES1   0.0000
    57 H5       7.5491  -2.5902  15.1155   H         1 RES1   0.0000
    58 H6       8.2146  -1.8720  17.2789   H         1 RES1   0.0000
    59 H7       8.1241  -0.6202  16.3122   H         1 RES1   0.0000
    60 H8       6.0743  -1.2987  18.0735   H         1 RES1   0.0000
    61 H9       7.0816  -0.1092  18.3563   H         1 RES1   0.0000
    62 H10      6.2609   0.9611  16.3806   H         1 RES1   0.0000
    63 H11      5.0656   0.7617  17.4012   H         1 RES1   0.0000
    64 H12      3.5883  -0.9851  13.0405   H         1 RES1   0.0000
    65 H13      3.2157  -2.4406  14.8075   H         1 RES1   0.0000
    66 H14      1.7855  -1.7898  15.0007   H         1 RES1   0.0000
    67 H15      2.5377  -3.3070  12.7149   H         1 RES1   0.0000
    68 H16      1.4798  -3.7856  13.7925   H         1 RES1   0.0000
    69 H17      0.4094  -3.0118  11.8220   H         1 RES1   0.0000
    70 H18      0.0240  -2.1324  13.0821   H         1 RES1   0.0000
    71 H19      1.9807  -1.3187  11.2452   H         1 RES1   0.0000
    72 H20      0.5314  -0.6803  11.2746   H         1 RES1   0.0000
    73 H21      1.0122   0.0401  13.5537   H         1 RES1   0.0000
    74 H22      2.0255   0.7190  12.5426   H         1 RES1   0.0000
    75 H23      2.5610  -0.7560  17.2748   H         1 RES1   0.0000
    76 H24      0.7629  -0.2713  18.6406   H         1 RES1   0.0000
    77 H25     -0.5698   1.5808  18.2369   H         1 RES1   0.0000
    78 H26     -0.0143   3.0092  16.4756   H         1 RES1   0.0000
    79 H27     -0.0103   1.9512  13.4258   H         1 RES1   0.0000
    80 H28     -1.7016   2.4362  11.8970   H         1 RES1   0.0000
    81 H29     -1.8866   4.5912  11.0463   H         1 RES1   0.0000
    82 H30     -0.4267   6.2290  11.7548   H         1 RES1   0.0000
    83 H31      1.3351   5.6929  13.1669   H         1 RES1   0.0000
    84 H32      0.6814   5.2721  16.2482   H         1 RES1   0.0000
    85 H33      1.0688   7.2192  17.4610   H         1 RES1   0.0000
    86 H34      3.2156   8.1555  17.4597   H         1 RES1   0.0000
    87 H35      4.9328   7.0846  16.3512   H         1 RES1   0.0000
    88 H36      6.1067   5.5181  12.5986   H         1 RES1   0.0000
    89 H37      3.7576   5.5541  12.1861   H         1 RES1   0.0000
    90 H38      3.6661   6.8772  13.0527   H         1 RES1   0.0000
    91 H39      5.0702   6.6932  10.6178   H         1 RES1   0.0000
    92 H40      3.7099   7.4867  10.7903   H         1 RES1   0.0000
    93 H41      5.6326   8.9405  10.7835   H         1 RES1   0.0000
    94 H42      4.8059   9.0450  12.1311   H         1 RES1   0.0000
    95 H43      7.1797   7.5459  11.8661   H         1 RES1   0.0000
    96 H44      7.0689   8.8963  12.6873   H         1 RES1   0.0000
    97 H45      5.5926   7.8163  14.1750   H         1 RES1   0.0000
    98 H46      6.9999   7.0895  14.1914   H         1 RES1   0.0000
    99 H47      6.6234   5.8319  15.9466   H         1 RES1   0.0000
   100 H48      5.5907   4.2573  17.3425   H         1 RES1   0.0000
   101 H49      6.5591   3.1522  16.7528   H         1 RES1   0.0000
   102 H50      7.4878   5.4393  18.1900   H         1 RES1   0.0000
   103 H51      7.5148   3.9774  18.7992   H         1 RES1   0.0000
   104 H52      9.6489   4.5953  17.9979   H         1 RES1   0.0000
   105 H53      9.0784   3.3520  17.1986   H         1 RES1   0.0000
   106 H54      9.0367   6.0033  16.2073   H         1 RES1   0.0000
   107 H55      9.9970   4.8762  15.6440   H         1 RES1   0.0000
   108 H56      8.0629   3.6672  14.8804   H         1 RES1   0.0000
   109 H57      8.0493   5.0975  14.1996   H         1 RES1   0.0000
   110 H58      4.8579   0.8824  10.1043   H         1 RES1   0.0000
   111 H59      5.5581   0.4845  11.4488   H         1 RES1   0.0000
   112 H60      4.0275   0.2111  11.2516   H         1 RES1   0.0000
   113 H61      5.3790   4.3672  10.8790   H         1 RES1   0.0000
   114 H62      6.4825   3.3192  11.2538   H         1 RES1   0.0000
   115 H63      5.6659   3.1564   9.9260   H         1 RES1   0.0000
   116 H64      2.2198   2.2604  10.8772   H         1 RES1   0.0000
   117 H65      2.5965   3.7770  10.9981   H         1 RES1   0.0000
   118 H66      3.1545   2.9233   9.8077   H         1 RES1   0.0000
   119 H67      4.4646   2.6120  15.4513   H         1 RES1   0.0000
@<TRIPOS>BOND
     1     1     2    1
     2     2     8    1
     3     3     1    1
     4     4     1    1
     5     5     1    1
     6     6     1    1
     7     7     6    3
     8     8     9    1
     9     9    10    1
    10    10    11    1
    11    11    12    1
    12    12    13    1
    13    13     8    1
    14    14     2    1
    15    15    14    1
    16    16    15    1
    17    17    16    1
    18    18    17    1
    19    19    14    1
    20    20     2    1
    21    21    20   ar
    22    22    21   ar
    23    23    22   ar
    24    24    23   ar
    25    25     5    1
    26    26     5    1
    27    27    26   ar
    28    28    27   ar
    29    29    28   ar
    30    30    29   ar
    31    31    26   ar
    32    32     5    1
    33    33    32   ar
    34    34    33   ar
    35    35    34   ar
    36    36    35   ar
    37    37     3    1
    38    38     3    1
    39    39    38    1
    40    40    39    1
    41    41    40    1
    42    42    41    1
    43    43    38    1
    44    44     3    1
    45    45    44    1
    46    46    45    1
    47    47    46    1
    48    48    47    1
    49    49    44    1
    50    50     4    1
    51    51     4    1
    52    52     4    1
    53    53     8    1
    54    54     9    1
    55    55     9    1
    56    56    10    1
    57    57    10    1
    58    58    11    1
    59    59    11    1
    60    60    12    1
    61    61    12    1
    62    62    13    1
    63    63    13    1
    64    64    14    1
    65    65    15    1
    66    66    15    1
    67    67    16    1
    68    68    16    1
    69    69    17    1
    70    70    17    1
    71    71    18    1
    72    72    18    1
    73    73    19    1
    74    74    19    1
    75    75    21    1
    76    76    22    1
    77    77    23    1
    78    78    24    1
    79    79    27    1
    80    80    28    1
    81    81    29    1
    82    82    30    1
    83    83    31    1
    84    84    33    1
    85    85    34    1
    86    86    35    1
    87    87    36    1
    88    88    38    1
    89    89    39    1
    90    90    39    1
    91    91    40    1
    92    92    40    1
    93    93    41    1
    94    94    41    1
    95    95    42    1
    96    96    42    1
    97    97    43    1
    98    98    43    1
    99    99    44    1
   100   100    45    1
   101   101    45    1
   102   102    46    1
   103   103    46    1
   104   104    47    1
   105   105    47    1
   106   106    48    1
   107   107    48    1
   108   108    49    1
   109   109    49    1
   110   110    50    1
   111   111    50    1
   112   112    50    1
   113   113    51    1
   114   114    51    1
   115   115    51    1
   116   116    52    1
   117   117    52    1
   118   118    52    1
   119   119     1    1
   120    18    19    1
   121    20    25   ar
   122    24    25   ar
   123    30    31   ar
   124    32    37   ar
   125    36    37   ar
   126    42    43    1
   127    48    49    1
@<TRIPOS>SUBSTRUCTURE
     1 RES1        1 GROUP             0 ****  ****    0  
@<TRIPOS>CRYSIN
   19.7620   12.3790   18.4650   90.0000   94.8530   90.0000    14     1
