@<TRIPOS>MOLECULE
VEXGEM
   361   398     1     0     0
SMALL
NO_CHARGES
****
Generated from the CSD

@<TRIPOS>ATOM
     1 Fe1     13.1103   0.7410   5.2650   Fe        1 RES1   0.0000
     2 Fe2     13.1589   5.7349   5.7226   Fe        1 RES1   0.0000
     3 Fe3     11.3676   0.3343  10.2930   Fe        1 RES1   0.0000
     4 Fe4     10.7227   5.5830   7.6287   Fe        1 RES1   0.0000
     5 Fe5     14.5523   5.2123  11.3060   Fe        1 RES1   0.0000
     6 Fe6     12.3349   0.9682  13.3684   Fe        1 RES1   0.0000
     7 Fe7     11.4922   5.3237  10.7125   Fe        1 RES1   0.0000
     8 Fe8     15.6886   4.8140   7.9992   Fe        1 RES1   0.0000
     9 Fe9     10.6573   0.5920   7.1724   Fe        1 RES1   0.0000
    10 Fe10    15.6286   1.1048   7.6944   Fe        1 RES1   0.0000
    11 Fe11    10.1544   4.9305   4.4717   Fe        1 RES1   0.0000
    12 Fe12    14.4184   0.1954  10.8681   Fe        1 RES1   0.0000
    13 Fe13    12.4112   4.1303  13.6377   Fe        1 RES1   0.0000
    14 Fe14    10.1627   1.7930   4.1482   Fe        1 RES1   0.0000
    15 P1      12.8859   3.4256   3.4430   P.3       1 RES1   0.0000
    16 P2      15.1893   2.5078  13.0217   P.3       1 RES1   0.0000
    17 P3      13.4044  -1.0988   8.0189   P.3       1 RES1   0.0000
    18 P4       9.9764   2.7440  11.9386   P.3       1 RES1   0.0000
    19 P5       8.7475   3.1627   6.8061   P.3       1 RES1   0.0000
    20 P6      13.5731   7.0227   8.7169   P.3       1 RES1   0.0000
    21 O1      10.4195   6.3069   9.4149   O.3       1 RES1   0.0000
    22 H1       9.8384   7.0295   9.6223   H         1 RES1   0.0000
    23 O2      10.3150  -0.3813   8.8276   O.3       1 RES1   0.0000
    24 H2       9.7111  -1.1105   8.9072   H         1 RES1   0.0000
    25 O3      16.2665   6.1486  10.8787   O.co2     1 RES1   0.0000
    26 O4      12.4457  -0.4516   6.9903   O.co2     1 RES1   0.0000
    27 O5      13.1921   6.3824  10.0717   O.co2     1 RES1   0.0000
    28 O6      17.1779   0.4482   8.7336   O.co2     1 RES1   0.0000
    29 O7      16.2762   2.9558   7.7128   O.3       1 RES1   0.0000
    30 O8      17.2810   5.2613   9.0911   O.co2     1 RES1   0.0000
    31 O9      16.5932   5.4439   6.3536   O.co2     1 RES1   0.0000
    32 O10      9.7431   7.1758   7.0073   O.co2     1 RES1   0.0000
    33 O11     10.9280   6.7424  11.9785   O.co2     1 RES1   0.0000
    34 O12     11.0420   5.5995  13.8750   O.co2     1 RES1   0.0000
    35 O13     11.8870   3.5123  15.4889   O.co2     1 RES1   0.0000
    36 O14     11.8672   1.2876  15.3051   O.co2     1 RES1   0.0000
    37 O15     13.7595   5.3359  14.5117   O.co2     1 RES1   0.0000
    38 O16     14.5609   6.5567  12.8297   O.co2     1 RES1   0.0000
    39 O17     10.7206  -1.2311  11.3077   O.co2     1 RES1   0.0000
    40 O18     14.2840  -1.4425  12.0466   O.co2     1 RES1   0.0000
    41 O19     10.8084  -0.3848  13.3643   O.co2     1 RES1   0.0000
    42 O20     13.5279  -0.5194  13.9363   O.co2     1 RES1   0.0000
    43 O21      9.5655  -0.8089   6.2889   O.co2     1 RES1   0.0000
    44 O22      8.7881   0.3771   4.5694   O.co2     1 RES1   0.0000
    45 O23     12.4356  -0.6863   3.9940   O.co2     1 RES1   0.0000
    46 O24     10.9555   0.5138   2.8056   O.co2     1 RES1   0.0000
    47 O25      8.8797   2.3894   2.7410   O.co2     1 RES1   0.0000
    48 O26      8.8331   4.6149   2.9657   O.co2     1 RES1   0.0000
    49 O27      8.8569   6.3521   5.1346   O.co2     1 RES1   0.0000
    50 O28     10.9778   6.3506   3.3402   O.co2     1 RES1   0.0000
    51 O29     12.4891   7.3360   4.6681   O.co2     1 RES1   0.0000
    52 O30     14.9481   6.6250   5.4240   O.co2     1 RES1   0.0000
    53 O31     16.1324  -0.7181  10.3169   O.co2     1 RES1   0.0000
    54 O32     16.5527   0.7137   5.9995   O.co2     1 RES1   0.0000
    55 O33     14.8464  -0.1800   4.8384   O.co2     1 RES1   0.0000
    56 O34     11.7566   4.2523   8.9089   O.3       1 RES1   0.0000
    57 H3      12.2008   3.4327   8.7302   H         1 RES1   0.0000
    58 O35     15.4651   3.8114  12.3258   O.co2     1 RES1   0.0000
    59 O36     15.3948   1.2998  12.1453   O.co2     1 RES1   0.0000
    60 O37     13.7429   2.5004  13.5958   O.co2     1 RES1   0.0000
    61 O38     14.9803   6.6260   8.3352   O.co2     1 RES1   0.0000
    62 O39     12.5839   6.6054   7.6032   O.co2     1 RES1   0.0000
    63 O40     11.0921   2.6246  13.0204   O.co2     1 RES1   0.0000
    64 O41     10.0278   1.5556  11.0013   O.co2     1 RES1   0.0000
    65 O42     10.0952   4.0604  11.2090   O.co2     1 RES1   0.0000
    66 O43     13.0317  -0.6728   9.4691   O.co2     1 RES1   0.0000
    67 O44     14.8214  -0.7193   7.7223   O.co2     1 RES1   0.0000
    68 O45     11.3360   3.4269   3.5956   O.co2     1 RES1   0.0000
    69 O46     13.4787   4.6040   4.1608   O.co2     1 RES1   0.0000
    70 O47     13.4389   2.1161   3.8986   O.co2     1 RES1   0.0000
    71 O48     11.3498   5.0633   5.9177   O.3       1 RES1   0.0000
    72 O49      9.2261   3.2765   5.3355   O.co2     1 RES1   0.0000
    73 O50      9.2259   1.8721   7.4091   O.co2     1 RES1   0.0000
    74 O51      9.1961   4.3852   7.5895   O.co2     1 RES1   0.0000
    75 O52     11.7559   1.6823   8.6893   O.3       1 RES1   0.0000
    76 H4      12.2486   2.4936   8.6519   H         1 RES1   0.0000
    77 O53     12.7045   0.8494  11.5290   O.3       1 RES1   0.0000
    78 O54     14.6465   1.5117   9.3924   O.3       1 RES1   0.0000
    79 H5      14.2685   2.3774   9.4997   H         1 RES1   0.0000
    80 O55     14.7294   4.1722   9.6270   O.3       1 RES1   0.0000
    81 H6      14.3302   3.3108   9.5950   H         1 RES1   0.0000
    82 O56     14.0442   4.4264   6.9256   O.3       1 RES1   0.0000
    83 H7      13.6622   3.5595   6.9971   H         1 RES1   0.0000
    84 O57     14.0347   1.7612   6.6770   O.3       1 RES1   0.0000
    85 H8      13.6999   2.6243   6.8881   H         1 RES1   0.0000
    86 O58     11.3072   1.3863   5.5772   O.3       1 RES1   0.0000
    87 O59     12.8041   4.5524  11.8355   O.3       1 RES1   0.0000
    88 C1       8.9389   7.2391   6.0131   C.2       1 RES1   0.0000
    89 C2      10.2056   7.6348  15.4379   C.3       1 RES1   0.0000
    90 H9      11.1576   7.6745  15.6694   H         1 RES1   0.0000
    91 H10      9.8328   6.7764  15.7307   H         1 RES1   0.0000
    92 H11      9.7312   8.3661  15.8873   H         1 RES1   0.0000
    93 C3      16.3856   2.3652  14.3755   C.3       1 RES1   0.0000
    94 C4      19.6800   6.4368   9.5610   C.3       1 RES1   0.0000
    95 H12     19.4101   6.9369   8.7608   H         1 RES1   0.0000
    96 H13     19.8093   5.4934   9.3260   H         1 RES1   0.0000
    97 H14     20.5180   6.8054   9.9083   H         1 RES1   0.0000
    98 C5      17.7990  -1.5577   4.5524   C.3       1 RES1   0.0000
    99 H15     17.1832  -2.2779   4.8009   H         1 RES1   0.0000
   100 H16     18.2733  -1.2415   5.3491   H         1 RES1   0.0000
   101 H17     18.4483  -1.8949   3.8986   H         1 RES1   0.0000
   102 C6      18.0288   0.6467   3.6092   C.3       1 RES1   0.0000
   103 H18     18.6628   0.3136   2.9384   H         1 RES1   0.0000
   104 H19     18.5177   0.9186   4.4128   H         1 RES1   0.0000
   105 H20     17.5439   1.4165   3.2449   H         1 RES1   0.0000
   106 C7      12.7118   4.8861   1.1202   C.3       1 RES1   0.0000
   107 H21     12.9494   4.9651   0.1737   H         1 RES1   0.0000
   108 H22     13.0679   5.6567   1.6105   H         1 RES1   0.0000
   109 H23     11.7359   4.8627   1.2121   H         1 RES1   0.0000
   110 C8      18.3396  -2.0292  11.1749   C.3       1 RES1   0.0000
   111 H24     18.1563  -1.4810  11.9649   H         1 RES1   0.0000
   112 H25     19.1801  -2.5179  11.3009   H         1 RES1   0.0000
   113 H26     17.6071  -2.6690  11.0421   H         1 RES1   0.0000
   114 C9       8.2133   1.4547  13.5890   C.3       1 RES1   0.0000
   115 H27      7.3388   1.4508  14.0316   H         1 RES1   0.0000
   116 H28      8.9230   1.4107  14.2632   H         1 RES1   0.0000
   117 H29      8.2809   0.6792  12.9931   H         1 RES1   0.0000
   118 C10     18.0561   5.9349   3.9871   C.3       1 RES1   0.0000
   119 H30     17.5151   5.3987   3.3709   H         1 RES1   0.0000
   120 H31     18.4454   5.3528   4.6715   H         1 RES1   0.0000
   121 H32     18.7743   6.3785   3.4900   H         1 RES1   0.0000
   122 C11      6.3878   4.4039   6.2548   C.3       1 RES1   0.0000
   123 H33      5.4097   4.3865   6.2752   H         1 RES1   0.0000
   124 H34      6.6946   4.4891   5.3287   H         1 RES1   0.0000
   125 H35      6.7111   5.1691   6.7758   H         1 RES1   0.0000
   126 C12     10.5189   3.5631  17.7975   C.3       1 RES1   0.0000
   127 H36     10.1438   3.4670  18.6998   H         1 RES1   0.0000
   128 H37      9.8140   3.8492  17.1812   H         1 RES1   0.0000
   129 H38     11.2333   4.2333  17.8111   H         1 RES1   0.0000
   130 C13     16.5627   7.7721   3.5922   C.3       1 RES1   0.0000
   131 H39     15.9908   8.4725   3.9701   H         1 RES1   0.0000
   132 H40     16.0248   7.1792   3.0304   H         1 RES1   0.0000
   133 H41     17.2691   8.1837   3.0508   H         1 RES1   0.0000
   134 C14     18.0633   7.8075   5.6317   C.3       1 RES1   0.0000
   135 H42     17.5313   8.5018   6.0744   H         1 RES1   0.0000
   136 H43     18.7926   8.2244   5.1312   H         1 RES1   0.0000
   137 H44     18.4361   7.2031   6.3093   H         1 RES1   0.0000
   138 C15     19.5657  -0.1762  10.1058   C.3       1 RES1   0.0000
   139 H45     19.4001   0.3955  10.8855   H         1 RES1   0.0000
   140 H46     19.6305   0.3801   9.3022   H         1 RES1   0.0000
   141 H47     20.4064  -0.6649  10.2352   H         1 RES1   0.0000
   142 C16     18.7471  -2.0112   8.7404   C.3       1 RES1   0.0000
   143 H48     18.8510  -1.4458   7.9471   H         1 RES1   0.0000
   144 H49     18.0057  -2.6363   8.6042   H         1 RES1   0.0000
   145 H50     19.5738  -2.5157   8.8936   H         1 RES1   0.0000
   146 C17      8.5569   7.7413  13.4800   C.3       1 RES1   0.0000
   147 H51      8.4832   7.8509  12.5096   H         1 RES1   0.0000
   148 H52      8.0767   8.4696  13.9261   H         1 RES1   0.0000
   149 H53      8.1664   6.8823  13.7422   H         1 RES1   0.0000
   150 C18     12.1665   1.9125  18.2061   C.3       1 RES1   0.0000
   151 H54     11.8419   1.8272  19.1288   H         1 RES1   0.0000
   152 H55     12.8463   2.6158  18.1652   H         1 RES1   0.0000
   153 H56     12.5596   1.0614  17.9200   H         1 RES1   0.0000
   154 C19      8.4188   3.5500   2.4754   C.2       1 RES1   0.0000
   155 C20      8.8063  -0.6275   5.2776   C.2       1 RES1   0.0000
   156 C21     10.4254  -1.2458  12.5369   C.2       1 RES1   0.0000
   157 C22     11.6684   2.3623  15.9316   C.2       1 RES1   0.0000
   158 C23     13.9952  -1.4913  13.2689   C.2       1 RES1   0.0000
   159 C24     14.4195   6.3111  14.0521   C.2       1 RES1   0.0000
   160 C25     11.7397   7.3131   3.6501   C.2       1 RES1   0.0000
   161 C26     10.7315   6.6211  13.2042   C.2       1 RES1   0.0000
   162 C27     11.6971  -0.5135   2.9997   C.2       1 RES1   0.0000
   163 C28      7.8743  -1.7926   4.9712   C.3       1 RES1   0.0000
   164 C29     17.1693  -0.3973   9.6597   C.2       1 RES1   0.0000
   165 C30      7.2390   3.5824   1.4879   C.3       1 RES1   0.0000
   166 C31     16.0755   0.0935   4.9950   C.2       1 RES1   0.0000
   167 C32      7.9986   8.3953   5.9926   C.3       1 RES1   0.0000
   168 C33     17.3184   5.9228  10.1705   C.2       1 RES1   0.0000
   169 C34     11.0764   2.2489  17.3446   C.3       1 RES1   0.0000
   170 C35     10.0369   7.7782  13.8852   C.3       1 RES1   0.0000
   171 C36      8.7208   9.6816   6.4591   C.3       1 RES1   0.0000
   172 H57      9.0970   9.5381   7.3512   H         1 RES1   0.0000
   173 H58      8.0808  10.4231   6.4898   H         1 RES1   0.0000
   174 H59      9.4414   9.8980   5.8326   H         1 RES1   0.0000
   175 C37     13.2197  -2.9128   7.8756   C.3       1 RES1   0.0000
   176 C38     11.7280  -1.5967   1.9067   C.3       1 RES1   0.0000
   177 C39     11.8044   8.5301   2.7375   C.3       1 RES1   0.0000
   178 C40      9.5414  -2.3805  13.0102   C.3       1 RES1   0.0000
   179 C41     10.2332  -3.7188  12.6084   C.3       1 RES1   0.0000
   180 H60     11.0932  -3.7933  13.0714   H         1 RES1   0.0000
   181 H61     10.3823  -3.7305  11.6380   H         1 RES1   0.0000
   182 H62      9.6585  -4.4715  12.8603   H         1 RES1   0.0000
   183 C42     13.5119  -3.2889   6.4625   C.3       1 RES1   0.0000
   184 H63     13.4194  -4.2581   6.3570   H         1 RES1   0.0000
   185 H64     14.4262  -3.0209   6.2344   H         1 RES1   0.0000
   186 H65     12.8807  -2.8324   5.8667   H         1 RES1   0.0000
   187 C43     17.7786   2.1129  13.7592   C.3       1 RES1   0.0000
   188 H66     18.4441   2.0342  14.4743   H         1 RES1   0.0000
   189 H67     18.0169   2.8625  13.1736   H         1 RES1   0.0000
   190 H68     17.7595   1.2841  13.2349   H         1 RES1   0.0000
   191 C44     13.3072   3.6038   1.6888   C.3       1 RES1   0.0000
   192 C45     16.1544   6.3010   5.4989   C.2       1 RES1   0.0000
   193 C46      8.3656   2.7296  12.7752   C.3       1 RES1   0.0000
   194 C47     14.1878  -3.5513   8.8766   C.3       1 RES1   0.0000
   195 H69     14.1098  -4.5269   8.8255   H         1 RES1   0.0000
   196 H70     13.9681  -3.2495   9.7823   H         1 RES1   0.0000
   197 H71     15.1048  -3.2847   8.6553   H         1 RES1   0.0000
   198 C48      9.3649  -2.3396  14.5288   C.3       1 RES1   0.0000
   199 H72     10.2420  -2.4190  14.9612   H         1 RES1   0.0000
   200 H73      8.7940  -3.0829  14.8114   H         1 RES1   0.0000
   201 H74      8.9494  -1.4904  14.7875   H         1 RES1   0.0000
   202 C49     15.0185   7.3323  15.0667   C.3       1 RES1   0.0000
   203 C50      8.6766  -3.0771   4.8520   C.3       1 RES1   0.0000
   204 H75      9.3122  -2.9973   4.1097   H         1 RES1   0.0000
   205 H76      8.0706  -3.8270   4.6852   H         1 RES1   0.0000
   206 H77      9.1682  -3.2320   5.6862   H         1 RES1   0.0000
   207 C51      6.9237   3.1382   6.8439   C.3       1 RES1   0.0000
   208 C52     18.4547  -1.1358   9.9560   C.3       1 RES1   0.0000
   209 C53     11.2056   9.7141   3.5207   C.3       1 RES1   0.0000
   210 H78     11.7533   9.8897   4.3140   H         1 RES1   0.0000
   211 H79     10.2915   9.4958   3.7965   H         1 RES1   0.0000
   212 H80     11.1951  10.5113   2.9487   H         1 RES1   0.0000
   213 C54     17.1619   7.0062   4.6647   C.3       1 RES1   0.0000
   214 C55     18.6026   6.5520  10.6165   C.3       1 RES1   0.0000
   215 C56      6.7785   5.0073   1.2768   C.3       1 RES1   0.0000
   216 H81      7.5074   5.5311   0.8819   H         1 RES1   0.0000
   217 H82      6.5285   5.3986   2.1417   H         1 RES1   0.0000
   218 H83      6.0040   5.0157   0.6776   H         1 RES1   0.0000
   219 C57     13.2936  -3.0150  15.1280   C.3       1 RES1   0.0000
   220 H84     12.4001  -3.1197  14.7364   H         1 RES1   0.0000
   221 H85     13.2981  -2.2424  15.7307   H         1 RES1   0.0000
   222 H86     13.5268  -3.8238  15.6285   H         1 RES1   0.0000
   223 C58     10.9169   8.2866   1.4641   C.3       1 RES1   0.0000
   224 H87     11.2816   7.5363   0.9500   H         1 RES1   0.0000
   225 H88     10.9144   9.0944   0.9091   H         1 RES1   0.0000
   226 H89     10.0006   8.0772   1.7399   H         1 RES1   0.0000
   227 C59      6.8737  -1.9326   6.1425   C.3       1 RES1   0.0000
   228 H90      6.2607  -2.6768   5.9620   H         1 RES1   0.0000
   229 H91      6.3610  -1.1027   6.2344   H         1 RES1   0.0000
   230 H92      7.3641  -2.1083   6.9733   H         1 RES1   0.0000
   231 C60      7.3828   8.5907   4.6137   C.3       1 RES1   0.0000
   232 H93      6.9170   7.7724   4.3447   H         1 RES1   0.0000
   233 H94      8.0912   8.7904   3.9633   H         1 RES1   0.0000
   234 H95      6.7467   9.3351   4.6409   H         1 RES1   0.0000
   235 C61     13.5034   8.8237   8.9004   C.3       1 RES1   0.0000
   236 C62      6.4906   3.0552   8.3046   C.3       1 RES1   0.0000
   237 H96      5.5126   3.0384   8.3556   H         1 RES1   0.0000
   238 H97      6.8297   3.8346   8.7915   H         1 RES1   0.0000
   239 H98      6.8527   2.2373   8.7064   H         1 RES1   0.0000
   240 C63      7.6952   2.9293   0.2145   C.3       1 RES1   0.0000
   241 H99      8.4136   3.4604  -0.1873   H         1 RES1   0.0000
   242 H100     6.9434   2.8736  -0.4120   H         1 RES1   0.0000
   243 H101     8.0260   2.0277   0.4086   H         1 RES1   0.0000
   244 C64     14.3254  -2.7914  14.0010   C.3       1 RES1   0.0000
   245 C65      6.0987   2.7774   2.1144   C.3       1 RES1   0.0000
   246 H102     5.8075   3.2124   2.9418   H         1 RES1   0.0000
   247 H103     6.4097   1.8699   2.3119   H         1 RES1   0.0000
   248 H104     5.3471   2.7334   1.4845   H         1 RES1   0.0000
   249 C66      7.1101  -1.5022   3.6943   C.3       1 RES1   0.0000
   250 H105     7.7410  -1.4122   2.9487   H         1 RES1   0.0000
   251 H106     6.6070  -0.6677   3.7965   H         1 RES1   0.0000
   252 H107     6.4888  -2.2376   3.5105   H         1 RES1   0.0000
   253 C67      6.9103   8.0999   6.9937   C.3       1 RES1   0.0000
   254 H108     6.4255   7.2933   6.7179   H         1 RES1   0.0000
   255 H109     6.2883   8.8564   7.0311   H         1 RES1   0.0000
   256 H110     7.3085   7.9577   7.8756   H         1 RES1   0.0000
   257 C68     17.0438  -0.4532   3.9633   C.3       1 RES1   0.0000
   258 C69     10.3492  -1.7495   1.3143   C.3       1 RES1   0.0000
   259 H111    10.0601  -0.8941   0.9364   H         1 RES1   0.0000
   260 H112     9.7222  -2.0252   2.0157   H         1 RES1   0.0000
   261 H113    10.3693  -2.4307   0.6095   H         1 RES1   0.0000
   262 C70     14.4634   9.2473   9.9934   C.3       1 RES1   0.0000
   263 H114    14.4308  10.2209  10.0990   H         1 RES1   0.0000
   264 H115    15.3738   8.9752   9.7517   H         1 RES1   0.0000
   265 H116    14.2066   8.8189  10.8378   H         1 RES1   0.0000
   266 C71      8.1941  -2.2705  12.3053   C.3       1 RES1   0.0000
   267 H117     7.7587  -1.4302  12.5607   H         1 RES1   0.0000
   268 H118     7.6251  -3.0245  12.5641   H         1 RES1   0.0000
   269 H119     8.3304  -2.2851  11.3349   H         1 RES1   0.0000
   270 C72     13.2269   8.7969   2.3664   C.3       1 RES1   0.0000
   271 H120    13.7536   8.9433   3.1802   H         1 RES1   0.0000
   272 H121    13.2723   9.5942   1.8012   H         1 RES1   0.0000
   273 H122    13.5862   8.0264   1.8795   H         1 RES1   0.0000
   274 C73     11.7680  -3.2631   8.2126   C.3       1 RES1   0.0000
   275 H123    11.6435  -4.2330   8.1479   H         1 RES1   0.0000
   276 H124    11.1697  -2.8116   7.5827   H         1 RES1   0.0000
   277 H125    11.5646  -2.9685   9.1252   H         1 RES1   0.0000
   278 C74     12.7391  -1.1333   0.8751   C.3       1 RES1   0.0000
   279 H126    12.4514  -0.2749   0.5005   H         1 RES1   0.0000
   280 H127    12.8046  -1.7985   0.1600   H         1 RES1   0.0000
   281 H128    13.6139  -1.0250   1.3041   H         1 RES1   0.0000
   282 C75     12.9032   2.4019   0.9023   C.3       1 RES1   0.0000
   283 H129    13.1500   2.5284  -0.0375   H         1 RES1   0.0000
   284 H130    11.9341   2.2775   0.9738   H         1 RES1   0.0000
   285 H131    13.3622   1.6127   1.2564   H         1 RES1   0.0000
   286 C76     16.4422   7.6584  14.6173   C.3       1 RES1   0.0000
   287 H132    16.8436   8.2968  15.2438   H         1 RES1   0.0000
   288 H133    16.4188   8.0488  13.7218   H         1 RES1   0.0000
   289 H134    16.9746   6.8358  14.6037   H         1 RES1   0.0000
   290 C77     13.9057   9.4600   7.5351   C.3       1 RES1   0.0000
   291 H135    13.8746  10.4375   7.6100   H         1 RES1   0.0000
   292 H136    13.2802   9.1664   6.8405   H         1 RES1   0.0000
   293 H137    14.8142   9.1792   7.2967   H         1 RES1   0.0000
   294 C78     15.6928  -2.6455  14.6275   C.3       1 RES1   0.0000
   295 H138    16.3628  -2.5103  13.9261   H         1 RES1   0.0000
   296 H139    15.9091  -3.4571  15.1348   H         1 RES1   0.0000
   297 H140    15.6940  -1.8743  15.2336   H         1 RES1   0.0000
   298 C79     14.8763   3.7214   1.6480   C.3       1 RES1   0.0000
   299 H141    15.1733   3.8155   0.7184   H         1 RES1   0.0000
   300 H142    15.2740   2.9135   2.0361   H         1 RES1   0.0000
   301 H143    15.1588   4.5057   2.1621   H         1 RES1   0.0000
   302 C80     15.1084   6.7125  16.4525   C.3       1 RES1   0.0000
   303 H144    15.4889   7.3643  17.0790   H         1 RES1   0.0000
   304 H145    15.6822   5.9192  16.4185   H         1 RES1   0.0000
   305 H146    14.2122   6.4562  16.7522   H         1 RES1   0.0000
   306 C81      7.2526   2.8161  11.7537   C.3       1 RES1   0.0000
   307 H147     6.3868   2.8066  12.2100   H         1 RES1   0.0000
   308 H148     7.3091   2.0507  11.1443   H         1 RES1   0.0000
   309 H149     7.3431   3.6469  11.2430   H         1 RES1   0.0000
   310 C82     14.3052  -3.9398  13.0646   C.3       1 RES1   0.0000
   311 H150    14.9625  -3.7915  12.3530   H         1 RES1   0.0000
   312 H151    13.4122  -4.0253  12.6731   H         1 RES1   0.0000
   313 H152    14.5284  -4.7607  13.5481   H         1 RES1   0.0000
   314 C83      6.4225   1.8816   6.1356   C.3       1 RES1   0.0000
   315 H153     5.4433   1.8656   6.1527   H         1 RES1   0.0000
   316 H154     6.7708   1.0882   6.5919   H         1 RES1   0.0000
   317 H155     6.7331   1.8854   5.2061   H         1 RES1   0.0000
   318 C84     14.1548   8.5386  15.0395   C.3       1 RES1   0.0000
   319 H156    14.5044   9.2037  15.6694   H         1 RES1   0.0000
   320 H157    13.2432   8.2919  15.2983   H         1 RES1   0.0000
   321 H158    14.1497   8.9171  14.1372   H         1 RES1   0.0000
   322 C85     15.9908   1.1942  15.2949   C.3       1 RES1   0.0000
   323 H159    16.6379   1.1187  16.0269   H         1 RES1   0.0000
   324 H160    15.9834   0.3610  14.7773   H         1 RES1   0.0000
   325 H161    15.0971   1.3548  15.6660   H         1 RES1   0.0000
   326 C86     16.3470  -0.8587   2.7239   C.3       1 RES1   0.0000
   327 H162    15.6997  -1.5649   2.9282   H         1 RES1   0.0000
   328 H163    17.0020  -1.1929   2.0736   H         1 RES1   0.0000
   329 H164    15.8785  -0.0862   2.3426   H         1 RES1   0.0000
   330 C87     10.6666   9.0909  13.4426   C.3       1 RES1   0.0000
   331 H165    10.5545   9.1991  12.4756   H         1 RES1   0.0000
   332 H166    11.6235   9.0860  13.6605   H         1 RES1   0.0000
   333 H167    10.2305   9.8359  13.9091   H         1 RES1   0.0000
   334 C88     16.4246   3.6332  15.2199   C.3       1 RES1   0.0000
   335 H168    17.0807   3.5265  15.9418   H         1 RES1   0.0000
   336 H169    15.5389   3.7970  15.6081   H         1 RES1   0.0000
   337 H170    16.6815   4.3935  14.6581   H         1 RES1   0.0000
   338 C89     12.1703  -2.9228   2.5094   C.3       1 RES1   0.0000
   339 H171    11.5091  -3.2170   3.1700   H         1 RES1   0.0000
   340 H172    13.0398  -2.8099   2.9452   H         1 RES1   0.0000
   341 H173    12.2462  -3.5953   1.8012   H         1 RES1   0.0000
   342 C90      8.2466   3.9221  13.6980   C.3       1 RES1   0.0000
   343 H174     7.3718   3.9064  14.1406   H         1 RES1   0.0000
   344 H175     8.3341   4.7468  13.1770   H         1 RES1   0.0000
   345 H176     8.9543   3.8840  14.3721   H         1 RES1   0.0000
   346 C91     19.0187   5.7967  11.8661   C.3       1 RES1   0.0000
   347 H177    19.1661   4.8535  11.6414   H         1 RES1   0.0000
   348 H178    18.3094   5.8652  12.5403   H         1 RES1   0.0000
   349 H179    19.8447   6.1818  12.2202   H         1 RES1   0.0000
   350 C92     12.0666   9.2290   9.2307   C.3       1 RES1   0.0000
   351 H180    12.0162  10.2025   9.3329   H         1 RES1   0.0000
   352 H181    11.7896   8.7990  10.0649   H         1 RES1   0.0000
   353 H182    11.4708   8.9437   8.5055   H         1 RES1   0.0000
   354 C93     10.1113   1.1887  17.4365   C.3       1 RES1   0.0000
   355 H183     9.7582   1.1461  18.3491   H         1 RES1   0.0000
   356 H184    10.5406   0.3371  17.2118   H         1 RES1   0.0000
   357 H185     9.3792   1.3607  16.8100   H         1 RES1   0.0000
   358 C94     18.4010   7.9913  10.9570   C.3       1 RES1   0.0000
   359 H186    18.1459   8.4855  10.1500   H         1 RES1   0.0000
   360 H187    19.2358   8.3616  11.3145   H         1 RES1   0.0000
   361 H188    17.6925   8.0730  11.6278   H         1 RES1   0.0000
@<TRIPOS>BOND
     1     1    26    1
     2     2    51    1
     3     3    23    1
     4     4    21    1
     5     5    25    1
     6     6    36    1
     7     7    21    1
     8     8    29    1
     9     9    23    1
    10    10    28    1
    11    11    48    1
    12    12    40    1
    13    13    34    1
    14    14    44    1
    15    15    68    1
    16    16    58    2
    17    17    26    1
    18    18    63    1
    19    19    72    1
    20    20    27    1
    21    21    22    1
    22    23    24    1
    23    25   168   un
    24    26     9    1
    25    27     5    1
    26    28   164   un
    27    29    10    1
    28    30     8    1
    29    31     8    1
    30    32     4    1
    31    33     7    1
    32    34   161   un
    33    35    13    1
    34    36   157   un
    35    37    13    1
    36    38     5    1
    37    39     3    1
    38    40   158   un
    39    41     6    1
    40    42     6    1
    41    43     9    1
    42    44   155   un
    43    45     1    1
    44    46    14    1
    45    47    14    1
    46    48   154   un
    47    49    11    1
    48    50    11    1
    49    51   160   un
    50    52     2    1
    51    53    12    1
    52    54    10    1
    53    55     1    1
    54    56     4    1
    55    57    56    1
    56    58     5    1
    57    59    12    1
    58    60     6    1
    59    61     8    1
    60    62     2    1
    61    63     6    1
    62    64     3    1
    63    65     7    1
    64    66     3    1
    65    67    10    1
    66    68    11    1
    67    69     2    1
    68    70     1    1
    69    71     2    1
    70    72    11    1
    71    73     9    1
    72    74     4    1
    73    75     3    1
    74    76    75    1
    75    77     3    1
    76    78    10    1
    77    79    78    1
    78    80     5    1
    79    81    80    1
    80    82     2    1
    81    83    82    1
    82    84     1    1
    83    85    84    1
    84    86     1    1
    85    87     5    1
    86    88    32   un
    87    89    90    1
    88    91    89    1
    89    92    89    1
    90    93    16    1
    91    94    95    1
    92    96    94    1
    93    97    94    1
    94    98    99    1
    95   100    98    1
    96   101    98    1
    97   102   103    1
    98   104   102    1
    99   105   102    1
   100   106   107    1
   101   108   106    1
   102   109   106    1
   103   110   111    1
   104   112   110    1
   105   113   110    1
   106   114   115    1
   107   116   114    1
   108   117   114    1
   109   118   119    1
   110   120   118    1
   111   121   118    1
   112   122   123    1
   113   124   122    1
   114   125   122    1
   115   126   127    1
   116   128   126    1
   117   129   126    1
   118   130   131    1
   119   132   130    1
   120   133   130    1
   121   134   135    1
   122   136   134    1
   123   137   134    1
   124   138   139    1
   125   140   138    1
   126   141   138    1
   127   142   143    1
   128   144   142    1
   129   145   142    1
   130   146   147    1
   131   148   146    1
   132   149   146    1
   133   150   151    1
   134   152   150    1
   135   153   150    1
   136   154    47   un
   137   155    43   un
   138   156    39   un
   139   157    35   un
   140   158    42   un
   141   159    37   un
   142   160    50   un
   143   161    33   un
   144   162    45   un
   145   163   155    1
   146   164    53   un
   147   165   154    1
   148   166    54   un
   149   167    88    1
   150   168    30   un
   151   169   126    1
   152   170    89    1
   153   171   167    1
   154   172   171    1
   155   173   171    1
   156   174   171    1
   157   175    17    1
   158   176   162    1
   159   177   160    1
   160   178   156    1
   161   179   178    1
   162   180   179    1
   163   181   179    1
   164   182   179    1
   165   183   175    1
   166   184   183    1
   167   185   183    1
   168   186   183    1
   169   187    93    1
   170   188   187    1
   171   189   187    1
   172   190   187    1
   173   191    15    1
   174   192    31   un
   175   193    18    1
   176   194   175    1
   177   195   194    1
   178   196   194    1
   179   197   194    1
   180   198   178    1
   181   199   198    1
   182   200   198    1
   183   201   198    1
   184   202   159    1
   185   203   163    1
   186   204   203    1
   187   205   203    1
   188   206   203    1
   189   207    19    1
   190   208   110    1
   191   209   177    1
   192   210   209    1
   193   211   209    1
   194   212   209    1
   195   213   118    1
   196   214    94    1
   197   215   165    1
   198   216   215    1
   199   217   215    1
   200   218   215    1
   201   219   220    1
   202   221   219    1
   203   222   219    1
   204   223   177    1
   205   224   223    1
   206   225   223    1
   207   226   223    1
   208   227   163    1
   209   228   227    1
   210   229   227    1
   211   230   227    1
   212   231   167    1
   213   232   231    1
   214   233   231    1
   215   234   231    1
   216   235    20    1
   217   236   207    1
   218   237   236    1
   219   238   236    1
   220   239   236    1
   221   240   165    1
   222   241   240    1
   223   242   240    1
   224   243   240    1
   225   244   158    1
   226   245   165    1
   227   246   245    1
   228   247   245    1
   229   248   245    1
   230   249   163    1
   231   250   249    1
   232   251   249    1
   233   252   249    1
   234   253   167    1
   235   254   253    1
   236   255   253    1
   237   256   253    1
   238   257    98    1
   239   258   176    1
   240   259   258    1
   241   260   258    1
   242   261   258    1
   243   262   235    1
   244   263   262    1
   245   264   262    1
   246   265   262    1
   247   266   178    1
   248   267   266    1
   249   268   266    1
   250   269   266    1
   251   270   177    1
   252   271   270    1
   253   272   270    1
   254   273   270    1
   255   274   175    1
   256   275   274    1
   257   276   274    1
   258   277   274    1
   259   278   176    1
   260   279   278    1
   261   280   278    1
   262   281   278    1
   263   282   191    1
   264   283   282    1
   265   284   282    1
   266   285   282    1
   267   286   202    1
   268   287   286    1
   269   288   286    1
   270   289   286    1
   271   290   235    1
   272   291   290    1
   273   292   290    1
   274   293   290    1
   275   294   244    1
   276   295   294    1
   277   296   294    1
   278   297   294    1
   279   298   191    1
   280   299   298    1
   281   300   298    1
   282   301   298    1
   283   302   202    1
   284   303   302    1
   285   304   302    1
   286   305   302    1
   287   306   193    1
   288   307   306    1
   289   308   306    1
   290   309   306    1
   291   310   244    1
   292   311   310    1
   293   312   310    1
   294   313   310    1
   295   314   207    1
   296   315   314    1
   297   316   314    1
   298   317   314    1
   299   318   202    1
   300   319   318    1
   301   320   318    1
   302   321   318    1
   303   322    93    1
   304   323   322    1
   305   324   322    1
   306   325   322    1
   307   326   257    1
   308   327   326    1
   309   328   326    1
   310   329   326    1
   311   330   170    1
   312   331   330    1
   313   332   330    1
   314   333   330    1
   315   334    93    1
   316   335   334    1
   317   336   334    1
   318   337   334    1
   319   338   176    1
   320   339   338    1
   321   340   338    1
   322   341   338    1
   323   342   193    1
   324   343   342    1
   325   344   342    1
   326   345   342    1
   327   346   214    1
   328   347   346    1
   329   348   346    1
   330   349   346    1
   331   350   235    1
   332   351   350    1
   333   352   350    1
   334   353   350    1
   335   354   169    1
   336   355   354    1
   337   356   354    1
   338   357   354    1
   339   358   214    1
   340   359   358    1
   341   360   358    1
   342   361   358    1
   343     4    62    1
   344     4    71    1
   345     6    77    1
   346     7    27    1
   347     7    56    1
   348     7    87    1
   349     8    80    1
   350     8    82    1
   351     9    75    1
   352     9    86    1
   353    10    84    1
   354    11    71    1
   355    12    66    1
   356    12    77    1
   357    12    78    1
   358    13    60    1
   359    13    63    1
   360    13    87    1
   361    14    68    1
   362    14    72    1
   363    14    86    1
   364    15    69    1
   365    15    70    2
   366    16    59    1
   367    16    60    1
   368    17    66    1
   369    17    67    2
   370    18    64    1
   371    18    65    2
   372    19    73    2
   373    19    74    1
   374    20    61    2
   375    20    62    1
   376    38   159   un
   377    41   156   un
   378    46   162   un
   379    49    88   un
   380    52   192   un
   381    55   166   un
   382   102   257    1
   383   106   191    1
   384   114   193    1
   385   122   207    1
   386   130   213    1
   387   134   213    1
   388   138   208    1
   389   142   208    1
   390   146   170    1
   391   150   169    1
   392   157   169    1
   393   161   170    1
   394   164   208    1
   395   166   257    1
   396   168   214    1
   397   192   213    1
   398   219   244    1
@<TRIPOS>SUBSTRUCTURE
     1 RES1        1 GROUP             0 ****  ****    0  
@<TRIPOS>CRYSIN
   14.5966   15.9330   34.1030   87.9030   86.9500   68.1630     2     1
