@<TRIPOS>MOLECULE
VIBMAX
   119   122     5     0     0
SMALL
USER_CHARGES
****
Generated from the CSD

@<TRIPOS>ATOM
     1 Fe1      4.6677  13.0835   8.7419   Fe        1 RES1   2.0000
     2 P1       6.1917  14.6831   8.1799   P.3       1 RES1   0.0000
     3 P2       3.9816  13.1581   6.5535   P.3       1 RES1   0.0000
     4 P3       3.1372  14.6675   9.2769   P.3       1 RES1   0.0000
     5 C1       3.9735  16.0360   6.8742   C.3       1 RES1   0.0000
     6 C2       5.3617  16.2022   7.5370   C.3       1 RES1   0.0000
     7 H1       5.2654  16.8377   8.2889   H         1 RES1   0.0000
     8 H2       5.9667  16.6226   6.8758   H         1 RES1   0.0000
     9 C3       3.9758  14.8661   5.8666   C.3       1 RES1   0.0000
    10 H3       4.7724  14.9648   5.2865   H         1 RES1   0.0000
    11 H4       3.1773  14.9592   5.2884   H         1 RES1   0.0000
    12 C4       2.8530  15.9072   7.9362   C.3       1 RES1   0.0000
    13 H5       2.0113  15.6731   7.4715   H         1 RES1   0.0000
    14 H6       2.7215  16.7932   8.3562   H         1 RES1   0.0000
    15 C5       3.6890  17.3198   6.0692   C.3       1 RES1   0.0000
    16 H7       4.3284  17.3903   5.3300   H         1 RES1   0.0000
    17 H8       3.7800  18.1005   6.6561   H         1 RES1   0.0000
    18 H9       2.7777  17.2864   5.7120   H         1 RES1   0.0000
    19 C6       6.7000  10.7655   8.5021   C.1       1 RES1   0.0000
    20 C7       7.6561   9.6707   8.4629   C.3       1 RES1   0.0000
    21 H10      8.1158   9.6687   7.5982   H         1 RES1   0.0000
    22 H11      7.1839   8.8212   8.5838   H         1 RES1   0.0000
    23 H12      8.3123   9.7837   9.1815   H         1 RES1   0.0000
    24 C8       2.6231  10.8345   9.3395   C.1       1 RES1   0.0000
    25 C9       1.6152   9.8220   9.6253   C.3       1 RES1   0.0000
    26 H13      0.7266  10.1786   9.4151   H         1 RES1   0.0000
    27 H14      1.6557   9.5797  10.5749   H         1 RES1   0.0000
    28 H15      1.7867   9.0271   9.0786   H         1 RES1   0.0000
    29 C10      5.3115  12.6594  11.7484   C.1       1 RES1   0.0000
    30 C11      5.5388  12.3992  13.1647   C.3       1 RES1   0.0000
    31 H16      6.4327  12.7117  13.4150   H         1 RES1   0.0000
    32 H17      5.4708  11.4359  13.3359   H         1 RES1   0.0000
    33 H18      4.8654  12.8730  13.6961   H         1 RES1   0.0000
    34 C12      7.3766  15.3985   9.3969   C.ar      1 RES1   0.0000
    35 C13      7.9733  14.5807  10.3623   C.ar      1 RES1   0.0000
    36 H19      7.7648  13.6537  10.3908   H         1 RES1   0.0000
    37 C14      8.8724  15.1165  11.2852   C.ar      1 RES1   0.0000
    38 H20      9.2704  14.5550  11.9405   H         1 RES1   0.0000
    39 C15      9.1860  16.4703  11.2486   C.ar      1 RES1   0.0000
    40 H21      9.7876  16.8377  11.8871   H         1 RES1   0.0000
    41 C16      8.6193  17.2853  10.2784   C.ar      1 RES1   0.0000
    42 H22      8.8465  18.2081  10.2444   H         1 RES1   0.0000
    43 C17      7.7196  16.7578   9.3553   C.ar      1 RES1   0.0000
    44 H23      7.3357  17.3217   8.6946   H         1 RES1   0.0000
    45 C18      7.4150  14.1548   6.9110   C.ar      1 RES1   0.0000
    46 C19      7.5111  14.7074   5.6334   C.ar      1 RES1   0.0000
    47 H24      6.9244  15.4098   5.3775   H         1 RES1   0.0000
    48 C20      8.4652  14.2353   4.7279   C.ar      1 RES1   0.0000
    49 H25      8.5300  14.6236   3.8634   H         1 RES1   0.0000
    50 C21      9.3179  13.2039   5.0869   C.ar      1 RES1   0.0000
    51 H26      9.9385  12.8582   4.4552   H         1 RES1   0.0000
    52 C22      9.2651  12.6748   6.3730   C.ar      1 RES1   0.0000
    53 H27      9.8649  11.9829   6.6284   H         1 RES1   0.0000
    54 C23      8.3328  13.1588   7.2849   C.ar      1 RES1   0.0000
    55 H28      8.3171  12.8118   8.1702   H         1 RES1   0.0000
    56 C24      4.9087  12.1951   5.2946   C.ar      1 RES1   0.0000
    57 C25      5.1833  12.7037   4.0174   C.ar      1 RES1   0.0000
    58 H29      4.9640  13.6037   3.8100   H         1 RES1   0.0000
    59 C26      5.7769  11.8945   3.0498   C.ar      1 RES1   0.0000
    60 H30      5.9706  12.2481   2.1890   H         1 RES1   0.0000
    61 C27      6.0856  10.5729   3.3399   C.ar      1 RES1   0.0000
    62 H31      6.4775  10.0210   2.6739   H         1 RES1   0.0000
    63 C28      5.8225  10.0570   4.6011   C.ar      1 RES1   0.0000
    64 H32      6.0411   9.1532   4.7996   H         1 RES1   0.0000
    65 C29      5.2375  10.8616   5.5766   C.ar      1 RES1   0.0000
    66 H33      5.0608  10.5050   6.4384   H         1 RES1   0.0000
    67 C30      2.2835  12.5194   6.2428   C.ar      1 RES1   0.0000
    68 C31      2.0553  11.1368   6.3160   C.ar      1 RES1   0.0000
    69 H34      2.7812  10.5495   6.4938   H         1 RES1   0.0000
    70 C32      0.7812  10.6163   6.1332   C.ar      1 RES1   0.0000
    71 H35      0.6414   9.6780   6.1850   H         1 RES1   0.0000
    72 C33     -0.2916  11.4633   5.8729   C.ar      1 RES1   0.0000
    73 H36     -1.1657  11.1095   5.7575   H         1 RES1   0.0000
    74 C34     -0.0742  12.8285   5.7840   C.ar      1 RES1   0.0000
    75 H37     -0.8031  13.4108   5.6031   H         1 RES1   0.0000
    76 C35      1.2054  13.3576   5.9566   C.ar      1 RES1   0.0000
    77 H38      1.3440  14.2935   5.8782   H         1 RES1   0.0000
    78 C36      1.4868  14.0276   9.7454   C.ar      1 RES1   0.0000
    79 C37      0.3189  14.2523   9.0297   C.ar      1 RES1   0.0000
    80 H39      0.3389  14.7979   8.2513   H         1 RES1   0.0000
    81 C38     -0.8857  13.6804   9.4483   C.ar      1 RES1   0.0000
    82 H40     -1.6783  13.8392   8.9500   H         1 RES1   0.0000
    83 C39     -0.9394  12.8873  10.5786   C.ar      1 RES1   0.0000
    84 H41     -1.7600  12.4947  10.8520   H         1 RES1   0.0000
    85 C40      0.2201  12.6715  11.3080   C.ar      1 RES1   0.0000
    86 H42      0.1934  12.1331  12.0910   H         1 RES1   0.0000
    87 C41      1.4210  13.2387  10.8997   C.ar      1 RES1   0.0000
    88 H43      2.2076  13.0881  11.4101   H         1 RES1   0.0000
    89 C42      3.4886  15.7466  10.7338   C.ar      1 RES1   0.0000
    90 C43      2.4570  16.4855  11.3327   C.ar      1 RES1   0.0000
    91 H44      1.5678  16.4038  11.0083   H         1 RES1   0.0000
    92 C44      2.7281  17.3387  12.4005   C.ar      1 RES1   0.0000
    93 H45      2.0188  17.8224  12.8074   H         1 RES1   0.0000
    94 C45      4.0238  17.4902  12.8781   C.ar      1 RES1   0.0000
    95 H46      4.2052  18.0875  13.5952   H         1 RES1   0.0000
    96 C46      5.0484  16.7626  12.2978   C.ar      1 RES1   0.0000
    97 H47      5.9372  16.8562  12.6174   H         1 RES1   0.0000
    98 C47      4.7757  15.8912  11.2415   C.ar      1 RES1   0.0000
    99 H48      5.4853  15.3857  10.8619   H         1 RES1   0.0000
   100 N1       5.9740  11.6451   8.4957   N.1       1 RES1   0.0000
   101 N2       3.3782  11.6542   9.0966   N.1       1 RES1   0.0000
   102 N3       5.1315  12.9025  10.6465   N.1       1 RES1   0.0000
   103 B1       2.4766  10.0143  13.4186   B         2 RES2  -1.0000
   104 F1       2.2739   8.8459  12.6853   F         2 RES2   0.0000
   105 F2       1.3041  10.3325  14.0911   F         2 RES2   0.0000
   106 F3       2.8307  11.0333  12.5307   F         2 RES2   0.0000
   107 F4       3.5124   9.8070  14.3170   F         2 RES2   0.0000
   108 B2       3.8893   7.3921   7.7060   B         3 RES3  -1.0000
   109 F5       3.7539   7.0171   9.0422   F         3 RES3   0.0000
   110 F6       4.1805   6.2770   6.9296   F         3 RES3   0.0000
   111 F7       2.7045   7.9545   7.2738   F         3 RES3   0.0000
   112 F8       4.9301   8.3000   7.6027   F         3 RES3   0.0000
   113 C48      4.9234  11.5236  16.6140   C.1       4 RES4   0.0000
   114 C49      3.5412  11.6403  17.0128   C.3       4 RES4   0.0000
   115 H49      3.4281  11.2653  17.9118   H         4 RES4   0.0000
   116 H50      2.9759  11.1485  16.3799   H         4 RES4   0.0000
   117 H51      3.2808  12.5856  17.0172   H         4 RES4   0.0000
   118 N4       6.0302  11.4472  16.3126   N.1       4 RES4   0.0000
   119 O1       5.5609   9.8764  19.6931   O.3       5 RES5   0.0000
@<TRIPOS>BOND
     1     1     2    1
     2     2     6    1
     3     3     1    1
     4     4     1    1
     5     5     6    1
     6     6     7    1
     7     8     6    1
     8     9     3    1
     9    10     9    1
    10    11     9    1
    11    12     4    1
    12    13    12    1
    13    14    12    1
    14    15     5    1
    15    16    15    1
    16    17    15    1
    17    18    15    1
    18    19    20    1
    19    20    21    1
    20    22    20    1
    21    23    20    1
    22    24    25    1
    23    25    26    1
    24    27    25    1
    25    28    25    1
    26    29    30    1
    27    30    31    1
    28    32    30    1
    29    33    30    1
    30    34     2    1
    31    35    34   ar
    32    36    35    1
    33    37    35   ar
    34    38    37    1
    35    39    37   ar
    36    40    39    1
    37    41    39   ar
    38    42    41    1
    39    43    34   ar
    40    44    43    1
    41    45     2    1
    42    46    45   ar
    43    47    46    1
    44    48    46   ar
    45    49    48    1
    46    50    48   ar
    47    51    50    1
    48    52    50   ar
    49    53    52    1
    50    54    45   ar
    51    55    54    1
    52    56     3    1
    53    57    56   ar
    54    58    57    1
    55    59    57   ar
    56    60    59    1
    57    61    59   ar
    58    62    61    1
    59    63    61   ar
    60    64    63    1
    61    65    56   ar
    62    66    65    1
    63    67     3    1
    64    68    67   ar
    65    69    68    1
    66    70    68   ar
    67    71    70    1
    68    72    70   ar
    69    73    72    1
    70    74    72   ar
    71    75    74    1
    72    76    67   ar
    73    77    76    1
    74    78     4    1
    75    79    78   ar
    76    80    79    1
    77    81    79   ar
    78    82    81    1
    79    83    81   ar
    80    84    83    1
    81    85    83   ar
    82    86    85    1
    83    87    78   ar
    84    88    87    1
    85    89     4    1
    86    90    89   ar
    87    91    90    1
    88    92    90   ar
    89    93    92    1
    90    94    92   ar
    91    95    94    1
    92    96    94   ar
    93    97    96    1
    94    98    89   ar
    95    99    98    1
    96   100     1    1
    97   101     1    1
    98   102     1    1
    99     5     9    1
   100     5    12    1
   101    19   100    3
   102    24   101    3
   103    29   102    3
   104    41    43   ar
   105    52    54   ar
   106    63    65   ar
   107    74    76   ar
   108    85    87   ar
   109    96    98   ar
   110   103   104    1
   111   105   103    1
   112   106   103    1
   113   107   103    1
   114   108   109    1
   115   110   108    1
   116   111   108    1
   117   112   108    1
   118   113   114    1
   119   114   115    1
   120   116   114    1
   121   117   114    1
   122   118   113    3
@<TRIPOS>SUBSTRUCTURE
     1 RES1        1 GROUP             0 ****  ****    0  
     2 RES2      103 GROUP             0 ****  ****    0  
     3 RES3      108 GROUP             0 ****  ****    0  
     4 RES4      113 GROUP             0 ****  ****    0  
     5 RES5      119 GROUP             0 ****  ****    0  
@<TRIPOS>CRYSIN
   13.2701   18.5437   19.7957   90.0000   91.1020   90.0000   231     1
