@<TRIPOS>MOLECULE
VIHCOF
   104   113     2     0     0
SMALL
USER_CHARGES
****
Generated from the CSD

@<TRIPOS>ATOM
     1 Fe1      6.0932   6.1949   5.0253   Fe        1 RES1   1.0000
     2 O1       5.0095   7.3765   6.2158   O.co2     1 RES1   0.0000
     3 O2       3.1654   8.6478   6.4316   O.co2     1 RES1   0.0000
     4 O3       4.2176   6.6402   3.8195   O.2       1 RES1   0.0000
     5 N1       6.7858   5.1460   3.2707   N.3       1 RES1   0.0000
     6 N2       7.3134   7.7561   3.9225   N.ar      1 RES1   0.0000
     7 N3       8.0012   5.5513   5.8146   N.ar      1 RES1   0.0000
     8 N4       5.2317   4.1638   5.2768   N.ar      1 RES1   0.0000
     9 C1       6.9365   6.1416   2.1864   C.3       1 RES1   0.0000
    10 H1       6.0445   6.3551   1.8134   H         1 RES1   0.0000
    11 H2       7.4832   5.7485   1.4595   H         1 RES1   0.0000
    12 C2       7.5853   7.4021   2.6622   C.ar      1 RES1   0.0000
    13 C3       8.3990   8.1587   1.8166   C.ar      1 RES1   0.0000
    14 H3       8.5994   7.8588   0.9365   H         1 RES1   0.0000
    15 C4       8.9008   9.3408   2.2864   C.ar      1 RES1   0.0000
    16 H4       9.4284   9.8974   1.7257   H         1 RES1   0.0000
    17 C5       8.6356   9.7069   3.5642   C.ar      1 RES1   0.0000
    18 H5       9.0105  10.5108   3.9056   H         1 RES1   0.0000
    19 C6       7.8152   8.9207   4.3942   C.ar      1 RES1   0.0000
    20 C7       7.5853   9.2922   5.8193   C.3       1 RES1   0.0000
    21 H6       6.6332   9.2003   6.0291   H         1 RES1   0.0000
    22 H7       7.8629  10.2217   5.9633   H         1 RES1   0.0000
    23 H8       8.1080   8.7018   6.3987   H         1 RES1   0.0000
    24 C8       8.0966   4.5137   3.5930   C.3       1 RES1   0.0000
    25 H9       8.7119   4.6691   2.8345   H         1 RES1   0.0000
    26 H10      7.9602   3.5356   3.6676   H         1 RES1   0.0000
    27 C9       8.7701   4.9919   4.8524   C.ar      1 RES1   0.0000
    28 C10     10.1191   4.7663   5.0081   C.ar      1 RES1   0.0000
    29 H11     10.6447   4.4218   4.2971   H         1 RES1   0.0000
    30 C11     10.6743   5.0568   6.2233   C.ar      1 RES1   0.0000
    31 H12     11.6006   4.9014   6.3674   H         1 RES1   0.0000
    32 C12      9.9063   5.5675   7.2318   C.ar      1 RES1   0.0000
    33 H13     10.2889   5.7499   8.0806   H         1 RES1   0.0000
    34 C13      8.5879   5.8107   7.0010   C.ar      1 RES1   0.0000
    35 C14      7.7045   6.3767   8.0837   C.3       1 RES1   0.0000
    36 H14      6.8163   6.5672   7.7141   H         1 RES1   0.0000
    37 H15      8.0995   7.2062   8.4282   H         1 RES1   0.0000
    38 H16      7.6234   5.7282   8.8134   H         1 RES1   0.0000
    39 C15      5.7831   4.1341   2.9140   C.3       1 RES1   0.0000
    40 H17      6.1896   3.4653   2.3083   H         1 RES1   0.0000
    41 H18      5.0314   4.5664   2.4367   H         1 RES1   0.0000
    42 C16      5.2670   3.4464   4.1411   C.ar      1 RES1   0.0000
    43 C17      4.7643   2.1575   4.0747   C.ar      1 RES1   0.0000
    44 H19      4.8053   1.6698   3.2604   H         1 RES1   0.0000
    45 C18      4.2062   1.5915   5.1897   C.ar      1 RES1   0.0000
    46 H20      3.8580   0.7079   5.1584   H         1 RES1   0.0000
    47 C19      4.1594   2.3116   6.3423   C.ar      1 RES1   0.0000
    48 H21      3.7569   1.9387   7.1190   H         1 RES1   0.0000
    49 C20      4.7089   3.6085   6.3861   C.ar      1 RES1   0.0000
    50 C21      4.7652   4.3826   7.6640   C.3       1 RES1   0.0000
    51 H22      4.6059   5.3324   7.4792   H         1 RES1   0.0000
    52 H23      5.6486   4.2732   8.0743   H         1 RES1   0.0000
    53 H24      4.0774   4.0503   8.2779   H         1 RES1   0.0000
    54 C22      3.8837   7.8588   5.8318   C.2       1 RES1   0.0000
    55 C23      3.4363   7.3616   4.4390   C.2       1 RES1   0.0000
    56 C24      2.1160   7.8047   3.9181   C.3       1 RES1   0.0000
    57 H25      1.9080   7.3130   3.0944   H         1 RES1   0.0000
    58 H26      2.1465   8.7653   3.7239   H         1 RES1   0.0000
    59 H27      1.4234   7.6277   4.5884   H         1 RES1   0.0000
    60 B1       9.0296   7.0914  13.3808   B         2 RES2  -1.0000
    61 C25      7.5853   6.4186  12.9355   C.ar      2 RES2   0.0000
    62 C26      6.4137   6.5510  13.6737   C.ar      2 RES2   0.0000
    63 H28      6.4137   7.1427  14.4166   H         2 RES2   0.0000
    64 C27      5.2546   5.8701  13.3799   C.ar      2 RES2   0.0000
    65 H29      4.4752   5.9984  13.9061   H         2 RES2   0.0000
    66 C28      5.2365   4.9865  12.2994   C.ar      2 RES2   0.0000
    67 H30      4.4409   4.5137  12.0895   H         2 RES2   0.0000
    68 C29      6.3594   4.8042  11.5477   C.ar      2 RES2   0.0000
    69 H31      6.3517   4.1895  10.8242   H         2 RES2   0.0000
    70 C30      7.5232   5.5215  11.8452   C.ar      2 RES2   0.0000
    71 H32      8.2922   5.4013  11.3003   H         2 RES2   0.0000
    72 C31      9.9731   7.2333  12.0385   C.ar      2 RES2   0.0000
    73 C32      9.5934   8.1654  11.0516   C.ar      2 RES2   0.0000
    74 H33      8.8064   8.6802  11.1812   H         2 RES2   0.0000
    75 C33     10.3404   8.3559   9.8887   C.ar      2 RES2   0.0000
    76 H34     10.0523   8.9950   9.2488   H         2 RES2   0.0000
    77 C34     11.4804   7.6359   9.6560   C.ar      2 RES2   0.0000
    78 H35     12.0032   7.7966   8.8761   H         2 RES2   0.0000
    79 C35     11.8592   6.6672  10.5736   C.ar      2 RES2   0.0000
    80 H36     12.6233   6.1268  10.4045   H         2 RES2   0.0000
    81 C36     11.1236   6.4875  11.7372   C.ar      2 RES2   0.0000
    82 H37     11.4127   5.8296  12.3589   H         2 RES2   0.0000
    83 C37      9.6945   6.1133  14.5475   C.ar      2 RES2   0.0000
    84 C38     11.0521   6.1281  14.8748   C.ar      2 RES2   0.0000
    85 H38     11.6216   6.7280  14.4072   H         2 RES2   0.0000
    86 C39     11.6159   5.3135  15.8479   C.ar      2 RES2   0.0000
    87 H39     12.5470   5.3581  16.0296   H         2 RES2   0.0000
    88 C40     10.8021   4.4259  16.5620   C.ar      2 RES2   0.0000
    89 H40     11.1742   3.8368  17.2072   H         2 RES2   0.0000
    90 C41      9.4828   4.4286  16.3130   C.ar      2 RES2   0.0000
    91 H41      8.9151   3.8652  16.8251   H         2 RES2   0.0000
    92 C42      8.9151   5.2405  15.3142   C.ar      2 RES2   0.0000
    93 H42      7.9793   5.1959  15.1557   H         2 RES2   0.0000
    94 C43      8.8379   8.6072  13.9878   C.ar      2 RES2   0.0000
    95 C44      9.6984   9.1679  14.9293   C.ar      2 RES2   0.0000
    96 H43     10.4015   8.6275  15.2716   H         2 RES2   0.0000
    97 C45      9.5848  10.4865  15.4007   C.ar      2 RES2   0.0000
    98 H44     10.1992  10.8134  16.0484   H         2 RES2   0.0000
    99 C46      8.5898  11.2984  14.9302   C.ar      2 RES2   0.0000
   100 H45      8.5192  12.1941  15.2372   H         2 RES2   0.0000
   101 C47      7.6911  10.8080  14.0063   C.ar      2 RES2   0.0000
   102 H46      6.9919  11.3592  13.6774   H         2 RES2   0.0000
   103 C48      7.8257   9.4705  13.5584   C.ar      2 RES2   0.0000
   104 H47      7.1922   9.1422  12.9320   H         2 RES2   0.0000
@<TRIPOS>BOND
     1     1     2    1
     2     2    54    1
     3     3    54    2
     4     4     1    1
     5     5     1    1
     6     6     1    1
     7     7     1    1
     8     8     1    1
     9     9     5    1
    10    10     9    1
    11    11     9    1
    12    12     6   ar
    13    13    12   ar
    14    14    13    1
    15    15    13   ar
    16    16    15    1
    17    17    15   ar
    18    18    17    1
    19    19     6   ar
    20    20    19    1
    21    21    20    1
    22    22    20    1
    23    23    20    1
    24    24     5    1
    25    25    24    1
    26    26    24    1
    27    27     7   ar
    28    28    27   ar
    29    29    28    1
    30    30    28   ar
    31    31    30    1
    32    32    30   ar
    33    33    32    1
    34    34     7   ar
    35    35    34    1
    36    36    35    1
    37    37    35    1
    38    38    35    1
    39    39     5    1
    40    40    39    1
    41    41    39    1
    42    42     8   ar
    43    43    42   ar
    44    44    43    1
    45    45    43   ar
    46    46    45    1
    47    47    45   ar
    48    48    47    1
    49    49     8   ar
    50    50    49    1
    51    51    50    1
    52    52    50    1
    53    53    50    1
    54    54    55    1
    55    55     4    2
    56    56    55    1
    57    57    56    1
    58    58    56    1
    59    59    56    1
    60     9    12    1
    61    17    19   ar
    62    24    27    1
    63    32    34   ar
    64    39    42    1
    65    47    49   ar
    66    60    61    1
    67    61    62   ar
    68    62    63    1
    69    64    62   ar
    70    65    64    1
    71    66    64   ar
    72    67    66    1
    73    68    66   ar
    74    69    68    1
    75    70    61   ar
    76    71    70    1
    77    72    60    1
    78    73    72   ar
    79    74    73    1
    80    75    73   ar
    81    76    75    1
    82    77    75   ar
    83    78    77    1
    84    79    77   ar
    85    80    79    1
    86    81    72   ar
    87    82    81    1
    88    83    60    1
    89    84    83   ar
    90    85    84    1
    91    86    84   ar
    92    87    86    1
    93    88    86   ar
    94    89    88    1
    95    90    88   ar
    96    91    90    1
    97    92    83   ar
    98    93    92    1
    99    94    60    1
   100    95    94   ar
   101    96    95    1
   102    97    95   ar
   103    98    97    1
   104    99    97   ar
   105   100    99    1
   106   101    99   ar
   107   102   101    1
   108   103    94   ar
   109   104   103    1
   110    68    70   ar
   111    79    81   ar
   112    90    92   ar
   113   101   103   ar
@<TRIPOS>SUBSTRUCTURE
     1 RES1        1 GROUP             0 ****  ****    0  
     2 RES2       60 GROUP             0 ****  ****    0  
@<TRIPOS>CRYSIN
    9.5400   13.5100   31.3200   90.0000   90.0000   90.0000    19     1
