@<TRIPOS>MOLECULE
VIHCUL
   126   135     3     0     0
SMALL
USER_CHARGES
****
Generated from the CSD

@<TRIPOS>ATOM
     1 Fe1     17.1727  10.9370  10.7767   Fe        1 RES1   1.0000
     2 O1      18.2077  12.9366  10.3866   O.2       1 RES1   0.0000
     3 O2      18.7803  14.1693   8.6079   O.3       1 RES1   0.0000
     4 O3      17.5135  10.9558   8.8247   O.3       1 RES1   0.0000
     5 N1      17.1426  11.4534  12.8833   N.3       1 RES1   0.0000
     6 N2      19.0350   9.9114  11.5184   N.ar      1 RES1   0.0000
     7 N3      16.0611   9.2150  11.5247   N.ar      1 RES1   0.0000
     8 N4      15.3639  12.2285  10.9778   N.ar      1 RES1   0.0000
     9 N5      20.4029  13.5555   6.0699   N.1       1 RES1   0.0000
    10 C1      18.5434  11.4155  13.3583   C.3       1 RES1   0.0000
    11 H1      18.5521  11.3810  14.3476   H         1 RES1   0.0000
    12 H2      19.0065  12.2427  13.0758   H         1 RES1   0.0000
    13 C2      19.2837  10.2212  12.8128   C.ar      1 RES1   0.0000
    14 C3      20.2196   9.5576  13.5665   C.ar      1 RES1   0.0000
    15 H3      20.3483   9.7808  14.4799   H         1 RES1   0.0000
    16 C4      20.9694   8.5638  12.9790   C.ar      1 RES1   0.0000
    17 H4      21.6233   8.0922  13.4809   H         1 RES1   0.0000
    18 C5      20.7546   8.2674  11.6653   C.ar      1 RES1   0.0000
    19 H5      21.2778   7.5988  11.2392   H         1 RES1   0.0000
    20 C6      19.7773   8.9381  10.9503   C.ar      1 RES1   0.0000
    21 C7      19.5302   8.6049   9.5204   C.3       1 RES1   0.0000
    22 H6      19.6146   9.4151   8.9765   H         1 RES1   0.0000
    23 H7      18.6275   8.2377   9.4220   H         1 RES1   0.0000
    24 H8      20.1867   7.9415   9.2218   H         1 RES1   0.0000
    25 C8      16.2780  10.5008  13.6003   C.3       1 RES1   0.0000
    26 H9      15.4440  10.9709  13.8537   H         1 RES1   0.0000
    27 H10     16.7363  10.2410  14.4396   H         1 RES1   0.0000
    28 C9      15.9036   9.2482  12.8660   C.ar      1 RES1   0.0000
    29 C10     15.3403   8.2214  13.5665   C.ar      1 RES1   0.0000
    30 H11     15.2597   8.2743  14.5106   H         1 RES1   0.0000
    31 C11     14.8922   7.1083  12.8918   C.ar      1 RES1   0.0000
    32 H12     14.5086   6.3768  13.3615   H         1 RES1   0.0000
    33 C12     15.0088   7.0790  11.5249   C.ar      1 RES1   0.0000
    34 H13     14.6748   6.3383  11.0342   H         1 RES1   0.0000
    35 C13     15.6143   8.1259  10.8664   C.ar      1 RES1   0.0000
    36 C14     15.8148   8.0811   9.3671   C.3       1 RES1   0.0000
    37 H14     16.3031   8.8789   9.0782   H         1 RES1   0.0000
    38 H15     14.9418   8.0539   8.9216   H         1 RES1   0.0000
    39 H16     16.3270   7.2802   9.1298   H         1 RES1   0.0000
    40 C15     16.5993  12.8249  12.9838   C.3       1 RES1   0.0000
    41 H17     17.2962  13.4771  12.7208   H         1 RES1   0.0000
    42 H18     16.3443  13.0114  13.9215   H         1 RES1   0.0000
    43 C16     15.4001  12.9915  12.0978   C.ar      1 RES1   0.0000
    44 C17     14.4286  13.8919  12.4109   C.ar      1 RES1   0.0000
    45 H19     14.4755  14.3854  13.2211   H         1 RES1   0.0000
    46 C18     13.3784  14.0778  11.5442   C.ar      1 RES1   0.0000
    47 H20     12.6975  14.7137  11.7314   H         1 RES1   0.0000
    48 C19     13.3423  13.3144  10.3919   C.ar      1 RES1   0.0000
    49 H21     12.6390  13.4403   9.7657   H         1 RES1   0.0000
    50 C20     14.3137  12.3748  10.1450   C.ar      1 RES1   0.0000
    51 C21     14.2513  11.4817   8.9442   C.3       1 RES1   0.0000
    52 H22     15.1388  11.4237   8.5327   H         1 RES1   0.0000
    53 H23     13.6134  11.8487   8.2955   H         1 RES1   0.0000
    54 H24     13.9578  10.5872   9.2170   H         1 RES1   0.0000
    55 C22     18.4514  13.0464   9.2009   C.2       1 RES1   0.0000
    56 C23     18.9330  15.3539   9.4381   C.3       1 RES1   0.0000
    57 H25     19.5927  15.1874  10.1563   H         1 RES1   0.0000
    58 H26     18.0669  15.5942   9.8545   H         1 RES1   0.0000
    59 C24     19.3995  16.4494   8.5521   C.3       1 RES1   0.0000
    60 H27     19.4807  17.2767   9.0717   H         1 RES1   0.0000
    61 H28     18.7539  16.5802   7.8258   H         1 RES1   0.0000
    62 H29     20.2728  16.2139   8.1744   H         1 RES1   0.0000
    63 C25     18.2553  11.8530   8.2874   C.2       1 RES1   0.0000
    64 C26     18.7925  11.7720   7.0285   C.2       1 RES1   0.0000
    65 C27     19.6884  12.7943   6.5444   C.1       1 RES1   0.0000
    66 C28     18.5272  10.6626   6.0586   C.ar      1 RES1   0.0000
    67 C29     19.2577  10.5696   4.8901   C.ar      1 RES1   0.0000
    68 H30     19.9673  11.1824   4.7336   H         1 RES1   0.0000
    69 C30     18.9771   9.6071   3.9508   C.ar      1 RES1   0.0000
    70 H31     19.4890   9.5709   3.1519   H         1 RES1   0.0000
    71 C31     17.9729   8.6984   4.1477   C.ar      1 RES1   0.0000
    72 H32     17.7910   8.0253   3.5022   H         1 RES1   0.0000
    73 C32     17.2350   8.7861   5.3001   C.ar      1 RES1   0.0000
    74 H33     16.5246   8.1726   5.4485   H         1 RES1   0.0000
    75 C33     17.5040   9.7385   6.2377   C.ar      1 RES1   0.0000
    76 H34     16.9828   9.7716   7.0302   H         1 RES1   0.0000
    77 B1      12.4818   8.7556   2.1207   B         2 RES2  -1.0000
    78 C34     12.4818   7.3802   1.2040   C.ar      2 RES2   0.0000
    79 C35     11.4204   6.4702   1.2459   C.ar      2 RES2   0.0000
    80 H35     10.6431   6.7048   1.7398   H         2 RES2   0.0000
    81 C36     11.4476   5.2407   0.6020   C.ar      2 RES2   0.0000
    82 H36     10.7115   4.6465   0.6859   H         2 RES2   0.0000
    83 C37     12.5358   4.8812  -0.1533   C.ar      2 RES2   0.0000
    84 H37     12.5663   4.0312  -0.5762   H         2 RES2   0.0000
    85 C38     13.5728   5.7615  -0.2905   C.ar      2 RES2   0.0000
    86 H38     14.3135   5.5418  -0.8425   H         2 RES2   0.0000
    87 C39     13.5406   6.9849   0.3841   C.ar      2 RES2   0.0000
    88 H39     14.2762   7.5772   0.2792   H         2 RES2   0.0000
    89 C40     12.6777   8.3773   3.7249   C.ar      2 RES2   0.0000
    90 C41     13.4499   9.1511   4.5996   C.ar      2 RES2   0.0000
    91 H40     13.9585   9.8704   4.2462   H         2 RES2   0.0000
    92 C42     13.4956   8.9026   5.9730   C.ar      2 RES2   0.0000
    93 H41     14.0414   9.4496   6.5266   H         2 RES2   0.0000
    94 C43     12.7814   7.8995   6.5315   C.ar      2 RES2   0.0000
    95 H42     12.8054   7.7463   7.4691   H         2 RES2   0.0000
    96 C44     12.0202   7.1075   5.7051   C.ar      2 RES2   0.0000
    97 H43     11.5168   6.3920   6.0731   H         2 RES2   0.0000
    98 C45     11.9812   7.3432   4.3430   C.ar      2 RES2   0.0000
    99 H44     11.4519   6.7696   3.8007   H         2 RES2   0.0000
   100 C46     13.6808   9.7356   1.5832   C.ar      2 RES2   0.0000
   101 C47     13.4494  10.8600   0.7827   C.ar      2 RES2   0.0000
   102 H45     12.5517  11.1048   0.5907   H         2 RES2   0.0000
   103 C48     14.4745  11.6303   0.2566   C.ar      2 RES2   0.0000
   104 H46     14.2715  12.3815  -0.2873   H         2 RES2   0.0000
   105 C49     15.7894  11.3081   0.5229   C.ar      2 RES2   0.0000
   106 H47     16.4978  11.8302   0.1646   H         2 RES2   0.0000
   107 C50     16.0525  10.2146   1.3186   C.ar      2 RES2   0.0000
   108 H48     16.9533   9.9821   1.5090   H         2 RES2   0.0000
   109 C51     15.0302   9.4490   1.8415   C.ar      2 RES2   0.0000
   110 H49     15.2467   8.7060   2.3934   H         2 RES2   0.0000
   111 C52     11.0488   9.5485   2.0158   C.ar      2 RES2   0.0000
   112 C53     10.6522  10.4568   2.9938   C.ar      2 RES2   0.0000
   113 H50     11.1995  10.5594   3.7636   H         2 RES2   0.0000
   114 C54      9.4982  11.2194   2.9002   C.ar      2 RES2   0.0000
   115 H51      9.2817  11.8338   3.5909   H         2 RES2   0.0000
   116 C55      8.6664  11.0910   1.8124   C.ar      2 RES2   0.0000
   117 H52      7.8624  11.5936   1.7559   H         2 RES2   0.0000
   118 C56      9.0185  10.2276   0.8182   C.ar      2 RES2   0.0000
   119 H53      8.4626  10.1393   0.0533   H         2 RES2   0.0000
   120 C57     10.1919   9.4727   0.9135   C.ar      2 RES2   0.0000
   121 H54     10.4148   8.8840   0.2017   H         2 RES2   0.0000
   122 C58     10.9075  11.0378  12.5529   C.3       3 RES3   0.0000
   123 H55     10.3073  10.3080  12.8450   H         3 RES3   0.0000
   124 H56     10.5726  11.3674  11.6814   H         3 RES3   0.0000
   125 Cl1     10.7937  12.3545  13.7246   Cl        3 RES3   0.0000
   126 Cl2     12.4389  10.4004  12.3205   Cl        3 RES3   0.0000
@<TRIPOS>BOND
     1     1     2    1
     2     2    55    2
     3     3    55    1
     4     4     1    1
     5     5     1    1
     6     6     1    1
     7     7     1    1
     8     8     1    1
     9     9    65    3
    10    10     5    1
    11    11    10    1
    12    12    10    1
    13    13     6   ar
    14    14    13   ar
    15    15    14    1
    16    16    14   ar
    17    17    16    1
    18    18    16   ar
    19    19    18    1
    20    20     6   ar
    21    21    20    1
    22    22    21    1
    23    23    21    1
    24    24    21    1
    25    25     5    1
    26    26    25    1
    27    27    25    1
    28    28     7   ar
    29    29    28   ar
    30    30    29    1
    31    31    29   ar
    32    32    31    1
    33    33    31   ar
    34    34    33    1
    35    35     7   ar
    36    36    35    1
    37    37    36    1
    38    38    36    1
    39    39    36    1
    40    40     5    1
    41    41    40    1
    42    42    40    1
    43    43     8   ar
    44    44    43   ar
    45    45    44    1
    46    46    44   ar
    47    47    46    1
    48    48    46   ar
    49    49    48    1
    50    50     8   ar
    51    51    50    1
    52    52    51    1
    53    53    51    1
    54    54    51    1
    55    55    63    1
    56    56     3    1
    57    57    56    1
    58    58    56    1
    59    59    56    1
    60    60    59    1
    61    61    59    1
    62    62    59    1
    63    63     4    1
    64    64    63    2
    65    65    64    1
    66    66    64    1
    67    67    66   ar
    68    68    67    1
    69    69    67   ar
    70    70    69    1
    71    71    69   ar
    72    72    71    1
    73    73    71   ar
    74    74    73    1
    75    75    66   ar
    76    76    75    1
    77    10    13    1
    78    18    20   ar
    79    25    28    1
    80    33    35   ar
    81    40    43    1
    82    48    50   ar
    83    73    75   ar
    84    77    78    1
    85    78    79   ar
    86    79    80    1
    87    81    79   ar
    88    82    81    1
    89    83    81   ar
    90    84    83    1
    91    85    83   ar
    92    86    85    1
    93    87    78   ar
    94    88    87    1
    95    89    77    1
    96    90    89   ar
    97    91    90    1
    98    92    90   ar
    99    93    92    1
   100    94    92   ar
   101    95    94    1
   102    96    94   ar
   103    97    96    1
   104    98    89   ar
   105    99    98    1
   106   100    77    1
   107   101   100   ar
   108   102   101    1
   109   103   101   ar
   110   104   103    1
   111   105   103   ar
   112   106   105    1
   113   107   105   ar
   114   108   107    1
   115   109   100   ar
   116   110   109    1
   117   111    77    1
   118   112   111   ar
   119   113   112    1
   120   114   112   ar
   121   115   114    1
   122   116   114   ar
   123   117   116    1
   124   118   116   ar
   125   119   118    1
   126   120   111   ar
   127   121   120    1
   128    85    87   ar
   129    96    98   ar
   130   107   109   ar
   131   118   120   ar
   132   122   123    1
   133   124   122    1
   134   125   122    1
   135   126   122    1
@<TRIPOS>SUBSTRUCTURE
     1 RES1        1 GROUP             0 ****  ****    0  
     2 RES2       77 GROUP             0 ****  ****    0  
     3 RES3      122 GROUP             0 ****  ****    0  
@<TRIPOS>CRYSIN
   12.7625   13.9179   16.7730   79.0680   75.0220   64.2420     2     1
