@<TRIPOS>MOLECULE
VIJFEZ
   180   200     1     0     0
SMALL
NO_CHARGES
****
Generated from the CSD

@<TRIPOS>ATOM
     1 Fe1      2.1985  11.5126  10.5089   Fe        1 RES1   0.0000
     2 Fe2      0.9370  13.4802   8.5756   Fe        1 RES1   0.0000
     3 Fe3      0.8685  16.3855   7.7218   Fe        1 RES1   0.0000
     4 Fe4      2.0393  19.1292   8.2237   Fe        1 RES1   0.0000
     5 Fe5      3.9991  20.6398   9.9602   Fe        1 RES1   0.0000
     6 Cl1      3.2463   8.6668   6.7590   Cl        1 RES1   0.0000
     7 Cl2     -4.0021  15.2941   8.3333   Cl        1 RES1   0.0000
     8 Cl3      2.5672  19.0794   3.2806   Cl        1 RES1   0.0000
     9 Cl4     -0.3811  23.3737   7.5626   Cl        1 RES1   0.0000
    10 Cl5      8.4309  24.2578  10.2917   Cl        1 RES1   0.0000
    11 O1       2.7010  12.9962   9.3116   O.3       1 RES1   0.0000
    12 O2       0.4473  12.3930  10.1670   O.3       1 RES1   0.0000
    13 O3       0.7879  15.2862   9.3685   O.3       1 RES1   0.0000
    14 O4       1.5759  14.6399   7.0957   O.3       1 RES1   0.0000
    15 O5       2.6160  17.2538   8.0057   O.3       1 RES1   0.0000
    16 O6       0.3257  18.1395   8.4903   O.3       1 RES1   0.0000
    17 O7       2.5355  19.3188  10.1306   O.3       1 RES1   0.0000
    18 O8       3.8315  19.9666   8.0967   O.3       1 RES1   0.0000
    19 O9       2.6765  12.4169  12.1917   O.3       1 RES1   0.0000
    20 O10      3.9906  10.7701  10.8791   O.3       1 RES1   0.0000
    21 O11      2.0100  10.3599   8.8043   O.co2     1 RES1   0.0000
    22 O12      1.0437  11.8041   7.3824   O.co2     1 RES1   0.0000
    23 O13     -1.0110  13.6361   7.9261   O.co2     1 RES1   0.0000
    24 O14     -1.0688  15.8112   7.3141   O.co2     1 RES1   0.0000
    25 O15      0.8357  17.1756   5.8331   O.co2     1 RES1   0.0000
    26 O16      1.6964  19.2230   6.1948   O.co2     1 RES1   0.0000
    27 O17      1.1471  20.9720   8.3129   O.co2     1 RES1   0.0000
    28 O18      2.6020  22.0811   9.6233   O.co2     1 RES1   0.0000
    29 O19      5.3890  22.0587   9.4208   O.co2     1 RES1   0.0000
    30 O20      1.3436   9.9738  11.5980   O.co2     1 RES1   0.0000
    31 C1       3.9285  13.1973   8.7315   C.3       1 RES1   0.0000
    32 C2      -0.8210  11.8807  10.5037   C.3       1 RES1   0.0000
    33 C3      -0.0182  15.6085  10.4878   C.3       1 RES1   0.0000
    34 C4       1.8920  14.2649   5.7717   C.3       1 RES1   0.0000
    35 C5       3.8135  16.8820   7.3824   C.3       1 RES1   0.0000
    36 C6      -0.9775  18.7219   8.3902   C.3       1 RES1   0.0000
    37 C7       1.6057  19.2980  11.1930   C.3       1 RES1   0.0000
    38 C8       4.4155  20.5395   6.9251   C.3       1 RES1   0.0000
    39 C9       1.8718  13.1973  12.9721   C.3       1 RES1   0.0000
    40 C10      4.5195   9.5987  10.2739   C.3       1 RES1   0.0000
    41 C11      1.6476  10.7365   7.6690   C.2       1 RES1   0.0000
    42 C12      1.9763   9.8956   6.4451   C.3       1 RES1   0.0000
    43 C13     -1.5760  14.6846   7.4757   C.2       1 RES1   0.0000
    44 C14     -3.0418  14.5218   7.1208   C.3       1 RES1   0.0000
    45 C15      1.2100  18.3134   5.4623   C.2       1 RES1   0.0000
    46 C16      1.0322  18.6278   3.9972   C.3       1 RES1   0.0000
    47 C17      1.5401  21.9837   8.9430   C.2       1 RES1   0.0000
    48 C18      0.6772  23.2045   8.9772   C.3       1 RES1   0.0000
    49 C19      6.4318  22.3859  10.0419   C.2       1 RES1   0.0000
    50 C20      7.2809  23.3912   9.2957   C.3       1 RES1   0.0000
    51 H1       4.0125  14.1005   8.4676   H         1 RES1   0.0000
    52 H2       4.6106  12.9802   9.3594   H         1 RES1   0.0000
    53 H3       4.0131  12.6308   7.9716   H         1 RES1   0.0000
    54 H4      -1.4967  12.4265  10.1192   H         1 RES1   0.0000
    55 H5      -0.9204  11.8728  11.4478   H         1 RES1   0.0000
    56 H6      -0.9034  10.9935  10.1693   H         1 RES1   0.0000
    57 H7      -0.9045  15.7968  10.1943   H         1 RES1   0.0000
    58 H8      -0.0356  14.8729  11.0884   H         1 RES1   0.0000
    59 H9       0.3372  16.3713  10.9268   H         1 RES1   0.0000
    60 H10      1.0887  14.1244   5.2826   H         1 RES1   0.0000
    61 H11      2.3959  14.9558   5.3599   H         1 RES1   0.0000
    62 H12      2.4003  13.4638   5.7831   H         1 RES1   0.0000
    63 H13      4.0494  15.9979   7.6463   H         1 RES1   0.0000
    64 H14      3.7053  16.9075   6.4383   H         1 RES1   0.0000
    65 H15      4.5059  17.4804   7.6372   H         1 RES1   0.0000
    66 H16     -1.0620  19.4177   9.0295   H         1 RES1   0.0000
    67 H17     -1.0971  19.0794   7.5166   H         1 RES1   0.0000
    68 H18     -1.6347  18.0581   8.5517   H         1 RES1   0.0000
    69 H19      0.9814  20.0018  11.0815   H         1 RES1   0.0000
    70 H20      2.0660  19.4065  12.0166   H         1 RES1   0.0000
    71 H21      1.1478  18.4634  11.1953   H         1 RES1   0.0000
    72 H22      5.2832  20.8667   7.1299   H         1 RES1   0.0000
    73 H23      4.4773  19.8773   6.2472   H         1 RES1   0.0000
    74 H24      3.8709  21.2561   6.6180   H         1 RES1   0.0000
    75 H25      1.7616  12.7536  13.8366   H         1 RES1   0.0000
    76 H26      1.0016  13.2547  12.5808   H         1 RES1   0.0000
    77 H27      2.2347  14.0367  13.1040   H         1 RES1   0.0000
    78 H28      4.6621   9.7583   9.3480   H         1 RES1   0.0000
    79 H29      5.3446   9.3737  10.6880   H         1 RES1   0.0000
    80 H30      3.9057   8.8822  10.3831   H         1 RES1   0.0000
    81 H31      2.2786  10.4732   5.7535   H         1 RES1   0.0000
    82 H32      1.1863   9.4503   6.1630   H         1 RES1   0.0000
    83 H33     -3.2105  14.9223   6.2745   H         1 RES1   0.0000
    84 H34     -3.2576  13.5978   7.0798   H         1 RES1   0.0000
    85 H35      0.4189  19.3475   3.9039   H         1 RES1   0.0000
    86 H36      0.6909  17.8618   3.5513   H         1 RES1   0.0000
    87 H37      1.2414  23.9689   9.0204   H         1 RES1   0.0000
    88 H38      0.1350  23.1662   9.7552   H         1 RES1   0.0000
    89 H39      7.7630  22.9285   8.6223   H         1 RES1   0.0000
    90 H40      6.7020  24.0264   8.8930   H         1 RES1   0.0000
    91 O9B      5.4990  19.4991  10.5583   O.3       1 RES1   0.0000
    92 O10B     4.1849  21.1459  11.8710   O.3       1 RES1   0.0000
    93 Fe5B     4.1764  11.2762  12.7898   Fe        1 RES1   0.0000
    94 C19B     1.7437   9.5301  12.7082   C.2       1 RES1   0.0000
    95 O20B     6.8319  21.9423  11.1521   O.co2     1 RES1   0.0000
    96 Fe1B     5.9770  20.4034  12.2411   Fe        1 RES1   0.0000
    97 C9B      6.3037  18.7187   9.7780   C.3       1 RES1   0.0000
    98 C10B     3.6561  22.3173  12.4761   C.3       1 RES1   0.0000
    99 O7B      5.6400  12.5972  12.6194   O.3       1 RES1   0.0000
   100 O8B      4.3440  11.9494  14.6533   O.3       1 RES1   0.0000
   101 O18B     5.5735   9.8349  13.1268   O.co2     1 RES1   0.0000
   102 O19B     2.7865   9.8573  13.3292   O.co2     1 RES1   0.0000
   103 C20B     0.8946   8.5248  13.4544   C.3       1 RES1   0.0000
   104 O1B      5.4745  18.9198  13.4384   O.3       1 RES1   0.0000
   105 O2B      7.7282  19.5230  12.5830   O.3       1 RES1   0.0000
   106 O11B     6.1655  21.5561  13.9458   O.co2     1 RES1   0.0000
   107 H25B     6.4139  19.1624   8.9135   H         1 RES1   0.0000
   108 H26B     7.1739  18.6613  10.1693   H         1 RES1   0.0000
   109 H27B     5.9408  17.8793   9.6460   H         1 RES1   0.0000
   110 H28B     3.5135  22.1577  13.4020   H         1 RES1   0.0000
   111 H29B     2.8309  22.5423  12.0621   H         1 RES1   0.0000
   112 H30B     4.2698  23.0338  12.3669   H         1 RES1   0.0000
   113 Fe4B     6.1362  12.7868  14.5264   Fe        1 RES1   0.0000
   114 C7B      6.5698  12.6180  11.5570   C.3       1 RES1   0.0000
   115 C8B      3.7600  11.3765  15.8249   C.3       1 RES1   0.0000
   116 C17B     6.6354   9.9323  13.8070   C.2       1 RES1   0.0000
   117 Cl5B    -0.2554   7.6582  12.4584   Cl        1 RES1   0.0000
   118 H39B     0.4125   8.9875  14.1278   H         1 RES1   0.0000
   119 H40B     1.4735   7.8896  13.8570   H         1 RES1   0.0000
   120 Fe2B     7.2385  18.4358  14.1744   Fe        1 RES1   0.0000
   121 C1B      4.2470  18.7187  14.0186   C.3       1 RES1   0.0000
   122 C2B      8.9965  20.0353  12.2463   C.3       1 RES1   0.0000
   123 C11B     6.5279  21.1795  15.0810   C.2       1 RES1   0.0000
   124 O5B      5.5595  14.6622  14.7443   O.3       1 RES1   0.0000
   125 O6B      7.8498  13.7765  14.2597   O.3       1 RES1   0.0000
   126 O16B     6.4791  12.6930  16.5552   O.co2     1 RES1   0.0000
   127 O17B     7.0284  10.9440  14.4372   O.co2     1 RES1   0.0000
   128 H19B     7.1941  11.9142  11.6685   H         1 RES1   0.0000
   129 H20B     6.1095  12.5095  10.7335   H         1 RES1   0.0000
   130 H21B     7.0277  13.4526  11.5547   H         1 RES1   0.0000
   131 H22B     2.8923  11.0493  15.6202   H         1 RES1   0.0000
   132 H23B     3.6982  12.0387  16.5029   H         1 RES1   0.0000
   133 H24B     4.3046  10.6599  16.1320   H         1 RES1   0.0000
   134 C18B     7.4983   8.7115  13.7729   C.3       1 RES1   0.0000
   135 O3B      7.3876  16.6298  13.3816   O.3       1 RES1   0.0000
   136 O4B      6.5996  17.2761  15.6543   O.3       1 RES1   0.0000
   137 O12B     7.1318  20.1119  15.3676   O.co2     1 RES1   0.0000
   138 O13B     9.1865  18.2799  14.8239   O.co2     1 RES1   0.0000
   139 H1B      4.1630  17.8155  14.2825   H         1 RES1   0.0000
   140 H2B      3.5649  18.9358  13.3907   H         1 RES1   0.0000
   141 H3B      4.1625  19.2852  14.7784   H         1 RES1   0.0000
   142 H4B      9.6722  19.4895  12.6308   H         1 RES1   0.0000
   143 H5B      9.0959  20.0432  11.3022   H         1 RES1   0.0000
   144 H6B      9.0790  20.9225  12.5808   H         1 RES1   0.0000
   145 C12B     6.1992  22.0204  16.3049   C.3       1 RES1   0.0000
   146 Fe3B     7.3070  15.5305  15.0282   Fe        1 RES1   0.0000
   147 C5B      4.3620  15.0340  15.3676   C.3       1 RES1   0.0000
   148 C6B      9.1530  13.1941  14.3598   C.3       1 RES1   0.0000
   149 C15B     6.9656  13.6026  17.2878   C.2       1 RES1   0.0000
   150 Cl4B     8.5566   8.5423  15.1875   Cl        1 RES1   0.0000
   151 H37B     6.9341   7.9471  13.7296   H         1 RES1   0.0000
   152 H38B     8.0405   8.7498  12.9948   H         1 RES1   0.0000
   153 C3B      8.1937  16.3075  12.2623   C.3       1 RES1   0.0000
   154 C4B      6.2835  17.6511  16.9784   C.3       1 RES1   0.0000
   155 C13B     9.7515  17.2314  15.2744   C.2       1 RES1   0.0000
   156 Cl1B     4.9292  23.2492  15.9910   Cl        1 RES1   0.0000
   157 H31B     5.8969  21.4428  16.9966   H         1 RES1   0.0000
   158 H32B     6.9892  22.4657  16.5871   H         1 RES1   0.0000
   159 O14B     9.2443  16.1048  15.4359   O.co2     1 RES1   0.0000
   160 O15B     7.3398  14.7404  16.9169   O.co2     1 RES1   0.0000
   161 H13B     4.1261  15.9181  15.1037   H         1 RES1   0.0000
   162 H14B     4.4703  15.0085  16.3118   H         1 RES1   0.0000
   163 H15B     3.6696  14.4356  15.1128   H         1 RES1   0.0000
   164 H16B     9.2376  12.4983  13.7205   H         1 RES1   0.0000
   165 H17B     9.2726  12.8366  15.2334   H         1 RES1   0.0000
   166 H18B     9.8102  13.8579  14.1983   H         1 RES1   0.0000
   167 C16B     7.1433  13.2882  18.7529   C.3       1 RES1   0.0000
   168 H7B      9.0800  16.1192  12.5557   H         1 RES1   0.0000
   169 H8B      8.2111  17.0431  11.6617   H         1 RES1   0.0000
   170 H9B      7.8383  15.5447  11.8232   H         1 RES1   0.0000
   171 H10B     7.0868  17.7916  17.4675   H         1 RES1   0.0000
   172 H11B     5.7796  16.9602  17.3901   H         1 RES1   0.0000
   173 H12B     5.7752  18.4522  16.9670   H         1 RES1   0.0000
   174 C14B    11.2173  17.3942  15.6293   C.3       1 RES1   0.0000
   175 Cl3B     5.6084  12.8366  19.4695   Cl        1 RES1   0.0000
   176 H35B     7.7566  12.5685  18.8461   H         1 RES1   0.0000
   177 H36B     7.4846  14.0542  19.1988   H         1 RES1   0.0000
   178 Cl2B    12.1776  16.6219  14.4167   Cl        1 RES1   0.0000
   179 H33B    11.3860  16.9937  16.4756   H         1 RES1   0.0000
   180 H34B    11.4331  18.3182  15.6702   H         1 RES1   0.0000
@<TRIPOS>BOND
     1     1    11    1
     2     2    11    1
     3     3    13    1
     4     4    15    1
     5     5    17    1
     6     6    42    1
     7     7    44    1
     8     8    46    1
     9     9    48    1
    10    10    50    1
    11    11    31    1
    12    12     1    1
    13    13     2    1
    14    14     2    1
    15    15     3    1
    16    16     3    1
    17    17     4    1
    18    18     4    1
    19    19     1    1
    20    20     1    1
    21    21     1    1
    22    22     2    1
    23    23     2    1
    24    24     3    1
    25    25     3    1
    26    26     4    1
    27    27     4    1
    28    28     5    1
    29    29     5    1
    30    30     1    1
    31    31    51    1
    32    32    12    1
    33    33    13    1
    34    34    14    1
    35    35    15    1
    36    36    16    1
    37    37    17    1
    38    38    18    1
    39    39    19    1
    40    40    20    1
    41    41    21   un
    42    42    41    1
    43    43    23   un
    44    44    43    1
    45    45    25   un
    46    46    45    1
    47    47    27   un
    48    48    47    1
    49    49    29   un
    50    50    49    1
    51    52    31    1
    52    53    31    1
    53    54    32    1
    54    55    32    1
    55    56    32    1
    56    57    33    1
    57    58    33    1
    58    59    33    1
    59    60    34    1
    60    61    34    1
    61    62    34    1
    62    63    35    1
    63    64    35    1
    64    65    35    1
    65    66    36    1
    66    67    36    1
    67    68    36    1
    68    69    37    1
    69    70    37    1
    70    71    37    1
    71    72    38    1
    72    73    38    1
    73    74    38    1
    74    75    39    1
    75    76    39    1
    76    77    39    1
    77    78    40    1
    78    79    40    1
    79    80    40    1
    80    81    42    1
    81    82    42    1
    82    83    44    1
    83    84    44    1
    84    85    46    1
    85    86    46    1
    86    87    48    1
    87    88    48    1
    88    89    50    1
    89    90    50    1
    90    91     5    1
    91    92     5    1
    92    93    19    1
    93    94    30   un
    94    95    49   un
    95    96    91    1
    96    97    91    1
    97    98    92    1
    98    99    93    1
    99   100    93    1
   100   101    93    1
   101   102    93    1
   102   103    94    1
   103   104    96    1
   104   105    96    1
   105   106    96    1
   106   107    97    1
   107   108    97    1
   108   109    97    1
   109   110    98    1
   110   111    98    1
   111   112    98    1
   112   113    99    1
   113   114    99    1
   114   115   100    1
   115   116   101   un
   116   117   103    1
   117   118   103    1
   118   119   103    1
   119   120   104    1
   120   121   104    1
   121   122   105    1
   122   123   106   un
   123   124   113    1
   124   125   113    1
   125   126   113    1
   126   127   113    1
   127   128   114    1
   128   129   114    1
   129   130   114    1
   130   131   115    1
   131   132   115    1
   132   133   115    1
   133   134   116    1
   134   135   120    1
   135   136   120    1
   136   137   120    1
   137   138   120    1
   138   139   121    1
   139   140   121    1
   140   141   121    1
   141   142   122    1
   142   143   122    1
   143   144   122    1
   144   145   123    1
   145   146   124    1
   146   147   124    1
   147   148   125    1
   148   149   126   un
   149   150   134    1
   150   151   134    1
   151   152   134    1
   152   153   135    1
   153   154   136    1
   154   155   138   un
   155   156   145    1
   156   157   145    1
   157   158   145    1
   158   159   146    1
   159   160   146    1
   160   161   147    1
   161   162   147    1
   162   163   147    1
   163   164   148    1
   164   165   148    1
   165   166   148    1
   166   167   149    1
   167   168   153    1
   168   169   153    1
   169   170   153    1
   170   171   154    1
   171   172   154    1
   172   173   154    1
   173   174   155    1
   174   175   167    1
   175   176   167    1
   176   177   167    1
   177   178   174    1
   178   179   174    1
   179   180   174    1
   180     2    12    1
   181     3    14    1
   182     4    16    1
   183     5    18    1
   184    20    93    1
   185    22    41   un
   186    24    43   un
   187    26    45   un
   188    28    47   un
   189    92    96    1
   190    94   102   un
   191    95    96    1
   192   100   113    1
   193   105   120    1
   194   116   127   un
   195   123   137   un
   196   125   146    1
   197   135   146    1
   198   136   146    1
   199   149   160   un
   200   155   159   un
@<TRIPOS>SUBSTRUCTURE
     1 RES1        1 GROUP             0 ****  ****    0  
@<TRIPOS>CRYSIN
   11.1060   15.9580   22.9380   90.0000   97.3400   90.0000    14     1
