@<TRIPOS>MOLECULE
VIJFEZ10
   100   120     1     0     0
SMALL
NO_CHARGES
****
Generated from the CSD

@<TRIPOS>ATOM
     1 Fe1      2.1984  11.5124  10.5089   Fe        1 RES1   0.0000
     2 Fe2      0.9369  13.4804   8.5754   Fe        1 RES1   0.0000
     3 Fe3      0.8685  16.3855   7.7218   Fe        1 RES1   0.0000
     4 Fe4      2.0395  19.1292   8.2235   Fe        1 RES1   0.0000
     5 Fe5      3.9991  20.6396   9.9602   Fe        1 RES1   0.0000
     6 Cl1      3.2463   8.6652   6.7590   Cl        1 RES1   0.0000
     7 Cl2     -4.0032  15.2957   8.3333   Cl        1 RES1   0.0000
     8 Cl3      2.5672  19.0794   3.2806   Cl        1 RES1   0.0000
     9 Cl4     -0.3822  23.3737   7.5628   Cl        1 RES1   0.0000
    10 Cl5      8.4321  24.2578  10.2914   Cl        1 RES1   0.0000
    11 O1       2.7021  12.9962   9.3116   O.3       1 RES1   0.0000
    12 O2       0.4462  12.3930  10.1670   O.3       1 RES1   0.0000
    13 O3       0.7879  15.2878   9.3685   O.3       1 RES1   0.0000
    14 O4       1.5759  14.6415   7.0957   O.3       1 RES1   0.0000
    15 O5       2.6149  17.2538   8.0057   O.3       1 RES1   0.0000
    16 O6       0.3246  18.1379   8.4903   O.3       1 RES1   0.0000
    17 O7       2.5369  19.3188  10.1283   O.3       1 RES1   0.0000
    18 O8       3.8315  19.9651   8.0967   O.3       1 RES1   0.0000
    19 O9       2.6765  12.4169  12.1917   O.3       1 RES1   0.0000
    20 O10      3.9906  10.7701  10.8791   O.3       1 RES1   0.0000
    21 O11      2.0089  10.3599   8.8043   O.co2     1 RES1   0.0000
    22 O12      1.0437  11.8025   7.3824   O.co2     1 RES1   0.0000
    23 O13     -1.0124  13.6361   7.9284   O.co2     1 RES1   0.0000
    24 O14     -1.0677  15.8096   7.3141   O.co2     1 RES1   0.0000
    25 O15      0.8357  17.1740   5.8331   O.co2     1 RES1   0.0000
    26 O16      1.6975  19.2230   6.1948   O.co2     1 RES1   0.0000
    27 O17      1.1460  20.9720   8.3129   O.co2     1 RES1   0.0000
    28 O18      2.6009  22.0811   9.6233   O.co2     1 RES1   0.0000
    29 O19      5.3904  22.0587   9.4185   O.co2     1 RES1   0.0000
    30 O20      1.3436   9.9738  11.5980   O.co2     1 RES1   0.0000
    31 C1       3.9285  13.1973   8.7315   C.2       1 RES1   0.0000
    32 C2      -0.8210  11.8839  10.5037   C.2       1 RES1   0.0000
    33 C3      -0.0182  15.6085  10.4878   C.3       1 RES1   0.0000
    34 C4       1.8942  14.2665   5.7717   C.3       1 RES1   0.0000
    35 C5       3.8138  16.8868   7.3801   C.2       1 RES1   0.0000
    36 C6      -0.9808  18.7219   8.3902   C.3       1 RES1   0.0000
    37 C7       1.6057  19.3012  11.1930   C.3       1 RES1   0.0000
    38 C8       4.4177  20.5364   6.9251   C.3       1 RES1   0.0000
    39 C9       1.8827  13.1973  12.9743   C.2       1 RES1   0.0000
    40 C10      4.5195   9.5955  10.2739   C.3       1 RES1   0.0000
    41 C11      1.6454  10.7365   7.6690   C.2       1 RES1   0.0000
    42 C12      1.9729   9.8972   6.4451   C.3       1 RES1   0.0000
    43 C13     -1.5760  14.6830   7.4757   C.2       1 RES1   0.0000
    44 C14     -3.0418  14.5202   7.1208   C.3       1 RES1   0.0000
    45 C15      1.2111  18.3118   5.4623   C.2       1 RES1   0.0000
    46 C16      1.0344  18.6278   3.9972   C.3       1 RES1   0.0000
    47 C17      1.5390  21.9821   8.9430   C.2       1 RES1   0.0000
    48 C18      0.6761  23.2013   8.9772   C.3       1 RES1   0.0000
    49 C19      6.4329  22.3843  10.0419   C.2       1 RES1   0.0000
    50 C20      7.2820  23.3896   9.2957   C.3       1 RES1   0.0000
    51 O9B      5.4990  19.4991  10.5583   O.3       1 RES1   0.0000
    52 O10B     4.1849  21.1459  11.8710   O.3       1 RES1   0.0000
    53 Fe5B     4.1764  11.2764  12.7898   Fe        1 RES1   0.0000
    54 C19B     1.7426   9.5317  12.7082   C.2       1 RES1   0.0000
    55 O20B     6.8319  21.9423  11.1521   O.co2     1 RES1   0.0000
    56 Fe1B     5.9772  20.4036  12.2411   Fe        1 RES1   0.0000
    57 C9B      6.2928  18.7187   9.7757   C.2       1 RES1   0.0000
    58 C10B     3.6561  22.3205  12.4761   C.3       1 RES1   0.0000
    59 O7B      5.6386  12.5972  12.6217   O.3       1 RES1   0.0000
    60 O8B      4.3440  11.9509  14.6533   O.3       1 RES1   0.0000
    61 O18B     5.5747   9.8349  13.1268   O.co2     1 RES1   0.0000
    62 O19B     2.7851   9.8573  13.3315   O.co2     1 RES1   0.0000
    63 C20B     0.8935   8.5264  13.4544   C.3       1 RES1   0.0000
    64 O1B      5.4734  18.9198  13.4384   O.3       1 RES1   0.0000
    65 O2B      7.7293  19.5230  12.5830   O.3       1 RES1   0.0000
    66 O11B     6.1666  21.5561  13.9458   O.co2     1 RES1   0.0000
    67 Fe4B     6.1360  12.7868  14.5266   Fe        1 RES1   0.0000
    68 C7B      6.5698  12.6148  11.5570   C.3       1 RES1   0.0000
    69 C8B      3.7578  11.3796  15.8249   C.3       1 RES1   0.0000
    70 C17B     6.6365   9.9339  13.8070   C.2       1 RES1   0.0000
    71 Cl5B    -0.2566   7.6582  12.4586   Cl        1 RES1   0.0000
    72 Fe2B     7.2386  18.4356  14.1746   Fe        1 RES1   0.0000
    73 C1B      4.2470  18.7187  14.0186   C.2       1 RES1   0.0000
    74 C2B      8.9965  20.0321  12.2463   C.2       1 RES1   0.0000
    75 C11B     6.5301  21.1795  15.0810   C.2       1 RES1   0.0000
    76 O5B      5.5606  14.6622  14.7443   O.3       1 RES1   0.0000
    77 O6B      7.8509  13.7781  14.2597   O.3       1 RES1   0.0000
    78 O16B     6.4780  12.6930  16.5552   O.co2     1 RES1   0.0000
    79 O17B     7.0296  10.9440  14.4372   O.co2     1 RES1   0.0000
    80 C18B     7.4994   8.7147  13.7729   C.3       1 RES1   0.0000
    81 O3B      7.3876  16.6282  13.3816   O.3       1 RES1   0.0000
    82 O4B      6.5996  17.2745  15.6543   O.3       1 RES1   0.0000
    83 O12B     7.1318  20.1135  15.3676   O.co2     1 RES1   0.0000
    84 O13B     9.1879  18.2799  14.8216   O.co2     1 RES1   0.0000
    85 C12B     6.2026  22.0188  16.3049   C.3       1 RES1   0.0000
    86 Fe3B     7.3070  15.5305  15.0282   Fe        1 RES1   0.0000
    87 C5B      4.3617  15.0292  15.3699   C.2       1 RES1   0.0000
    88 C6B      9.1563  13.1941  14.3598   C.3       1 RES1   0.0000
    89 C15B     6.9644  13.6042  17.2878   C.2       1 RES1   0.0000
    90 Cl4B     8.5577   8.5423  15.1872   Cl        1 RES1   0.0000
    91 C3B      8.1937  16.3075  12.2623   C.3       1 RES1   0.0000
    92 C4B      6.2813  17.6495  16.9784   C.3       1 RES1   0.0000
    93 C13B     9.7515  17.2330  15.2744   C.2       1 RES1   0.0000
    94 Cl1B     4.9292  23.2508  15.9910   Cl        1 RES1   0.0000
    95 O14B     9.2432  16.1064  15.4359   O.co2     1 RES1   0.0000
    96 O15B     7.3398  14.7420  16.9169   O.co2     1 RES1   0.0000
    97 C16B     7.1411  13.2882  18.7529   C.3       1 RES1   0.0000
    98 C14B    11.2173  17.3958  15.6293   C.3       1 RES1   0.0000
    99 Cl3B     5.6084  12.8366  19.4695   Cl        1 RES1   0.0000
   100 Cl2B    12.1787  16.6203  14.4167   Cl        1 RES1   0.0000
@<TRIPOS>BOND
     1     1    11    1
     2     2    11    1
     3     3    13    1
     4     4    15    1
     5     5    17    1
     6     6    42    1
     7     7    44    1
     8     8    46    1
     9     9    48    1
    10    10    50    1
    11    11    31    1
    12    12     1    1
    13    13     2    1
    14    14     2    1
    15    15     3    1
    16    16     3    1
    17    17     4    1
    18    18     4    1
    19    19     1    1
    20    20     1    1
    21    21     1    1
    22    22     2    1
    23    23     2    1
    24    24     3    1
    25    25     3    1
    26    26     4    1
    27    27     4    1
    28    28     5    1
    29    29     5    1
    30    30     1    1
    31    32    12    1
    32    33    13    1
    33    34    14    1
    34    35    15    1
    35    36    16    1
    36    37    17    1
    37    38    18    1
    38    39    19    1
    39    40    20    1
    40    41    21   un
    41    42    41    1
    42    43    23   un
    43    44    43    1
    44    45    25   un
    45    46    45    1
    46    47    27   un
    47    48    47    1
    48    49    29   un
    49    50    49    1
    50    51     5    1
    51    52     5    1
    52    53    19    1
    53    54    30   un
    54    55    49   un
    55    56    51    1
    56    57    51    1
    57    58    52    1
    58    59    53    1
    59    60    53    1
    60    61    53    1
    61    62    53    1
    62    63    54    1
    63    64    56    1
    64    65    56    1
    65    66    56    1
    66    67    59    1
    67    68    59    1
    68    69    60    1
    69    70    61   un
    70    71    63    1
    71    72    64    1
    72    73    64    1
    73    74    65    1
    74    75    66   un
    75    76    67    1
    76    77    67    1
    77    78    67    1
    78    79    67    1
    79    80    70    1
    80    81    72    1
    81    82    72    1
    82    83    72    1
    83    84    72    1
    84    85    75    1
    85    86    76    1
    86    87    76    1
    87    88    77    1
    88    89    78   un
    89    90    80    1
    90    91    81    1
    91    92    82    1
    92    93    84   un
    93    94    85    1
    94    95    86    1
    95    96    86    1
    96    97    89    1
    97    98    93    1
    98    99    97    1
    99   100    98    1
   100     2    12    1
   101     3    14    1
   102     4    16    1
   103     5    18    1
   104    20    53    1
   105    22    41   un
   106    24    43   un
   107    26    45   un
   108    28    47   un
   109    52    56    1
   110    54    62   un
   111    55    56    1
   112    60    67    1
   113    65    72    1
   114    70    79   un
   115    75    83   un
   116    77    86    1
   117    81    86    1
   118    82    86    1
   119    89    96   un
   120    93    95   un
@<TRIPOS>SUBSTRUCTURE
     1 RES1        1 GROUP             0 ****  ****    0  
@<TRIPOS>CRYSIN
   11.1060   15.9580   22.9380   90.0000   97.3400   90.0000    14     1
