@<TRIPOS>MOLECULE
VILZEX
   113   124     3     0     0
SMALL
USER_CHARGES
****
Generated from the CSD

@<TRIPOS>ATOM
     1 Fe1      7.7963   2.3231   5.5778   Fe        1 RES1   2.0000
     2 N1       7.1321   1.7737   3.6152   N.ar      1 RES1   0.0000
     3 C1       7.1185   2.7130   2.6344   C.ar      1 RES1   0.0000
     4 C2       6.8407   2.3702   1.3029   C.ar      1 RES1   0.0000
     5 H1       6.8092   3.0339   0.6232   H         1 RES1   0.0000
     6 C3       6.6104   1.0244   1.0010   C.ar      1 RES1   0.0000
     7 H2       6.4203   0.7694   0.1053   H         1 RES1   0.0000
     8 C4       6.6566   0.0475   2.0059   C.ar      1 RES1   0.0000
     9 H3       6.5160  -0.8707   1.8036   H         1 RES1   0.0000
    10 C5       6.9163   0.4677   3.3185   C.ar      1 RES1   0.0000
    11 C6       7.4738   4.0621   3.1039   C.2       1 RES1   0.0000
    12 N2       7.7525   4.2025   4.4349   N.2       1 RES1   0.0000
    13 N3       8.0153   5.5237   4.6047   N.pl3     1 RES1   0.0000
    14 C7       7.9288   6.2019   3.4273   C.2       1 RES1   0.0000
    15 H4       8.0732   7.1327   3.3089   H         1 RES1   0.0000
    16 C8       7.5940   5.2992   2.4395   C.2       1 RES1   0.0000
    17 H5       7.4713   5.4729   1.5140   H         1 RES1   0.0000
    18 C9       8.3430   6.0583   5.9296   C.3       1 RES1   0.0000
    19 H6       7.7306   5.6600   6.5958   H         1 RES1   0.0000
    20 H7       8.1920   7.0370   5.9287   H         1 RES1   0.0000
    21 C10      9.7769   5.7831   6.3522   C.ar      1 RES1   0.0000
    22 C11     10.1059   5.9032   7.7091   C.ar      1 RES1   0.0000
    23 H8       9.4360   6.1326   8.3423   H         1 RES1   0.0000
    24 C12     11.4152   5.6864   8.1317   C.ar      1 RES1   0.0000
    25 H9      11.6352   5.7669   9.0533   H         1 RES1   0.0000
    26 C13     12.4037   5.3520   7.2044   C.ar      1 RES1   0.0000
    27 H10     13.2928   5.1874   7.4954   H         1 RES1   0.0000
    28 C14     12.0867   5.2590   5.8506   C.ar      1 RES1   0.0000
    29 H11     12.7650   5.0524   5.2178   H         1 RES1   0.0000
    30 C15     10.7748   5.4694   5.4236   C.ar      1 RES1   0.0000
    31 H12     10.5595   5.3998   4.5025   H         1 RES1   0.0000
    32 C16      7.0199  -0.4304   4.4876   C.2       1 RES1   0.0000
    33 N4       7.2676   0.1400   5.6957   N.2       1 RES1   0.0000
    34 N5       7.3318  -0.9029   6.5712   N.pl3     1 RES1   0.0000
    35 C17      7.1251  -2.0948   5.9436   C.2       1 RES1   0.0000
    36 H13      7.1148  -2.9510   6.3544   H         1 RES1   0.0000
    37 C18      6.9328  -1.8335   4.5973   C.2       1 RES1   0.0000
    38 H14      6.7768  -2.4615   3.9013   H         1 RES1   0.0000
    39 C19      7.4235  -0.6721   8.0202   C.3       1 RES1   0.0000
    40 H15      8.0748   0.0549   8.1888   H         1 RES1   0.0000
    41 H16      7.7707  -1.4924   8.4521   H         1 RES1   0.0000
    42 C20      6.0957  -0.2990   8.6680   C.ar      1 RES1   0.0000
    43 C21      4.8854  -0.2988   7.9715   C.ar      1 RES1   0.0000
    44 H17      4.8739  -0.4965   7.0434   H         1 RES1   0.0000
    45 C22      3.6877  -0.0087   8.6372   C.ar      1 RES1   0.0000
    46 H18      2.8660  -0.0155   8.1624   H         1 RES1   0.0000
    47 C23      3.7039   0.2895  10.0003   C.ar      1 RES1   0.0000
    48 H19      2.8907   0.4726  10.4532   H         1 RES1   0.0000
    49 C24      4.9066   0.3199  10.6941   C.ar      1 RES1   0.0000
    50 H20      4.9155   0.5401  11.6161   H         1 RES1   0.0000
    51 C25      6.1025   0.0270  10.0385   C.ar      1 RES1   0.0000
    52 H21      6.9234   0.0478  10.5190   H         1 RES1   0.0000
    53 N6       8.6885   2.6305   7.4936   N.ar      1 RES1   0.0000
    54 C26     10.0163   2.4235   7.6613   C.ar      1 RES1   0.0000
    55 C27     10.6197   2.5533   8.9225   C.ar      1 RES1   0.0000
    56 H22     11.5504   2.3968   9.0357   H         1 RES1   0.0000
    57 C28      9.8241   2.9171  10.0034   C.ar      1 RES1   0.0000
    58 H23     10.2138   3.0086  10.8657   H         1 RES1   0.0000
    59 C29      8.4583   3.1477   9.8326   C.ar      1 RES1   0.0000
    60 H24      7.9112   3.4039  10.5673   H         1 RES1   0.0000
    61 C30      7.9149   2.9903   8.5495   C.ar      1 RES1   0.0000
    62 C31     10.7313   2.0903   6.4172   C.2       1 RES1   0.0000
    63 N7       9.9978   1.9688   5.2792   N.2       1 RES1   0.0000
    64 N8      10.9105   1.7651   4.2905   N.pl3     1 RES1   0.0000
    65 C32     12.1785   1.7664   4.7803   C.2       1 RES1   0.0000
    66 H25     12.9733   1.6513   4.2743   H         1 RES1   0.0000
    67 C33     12.1050   1.9654   6.1446   C.2       1 RES1   0.0000
    68 H26     12.8252   2.0086   6.7625   H         1 RES1   0.0000
    69 C34     10.5009   1.6509   2.8718   C.3       1 RES1   0.0000
    70 H27     10.8327   2.4418   2.3785   H         1 RES1   0.0000
    71 H28      9.5116   1.6569   2.8217   H         1 RES1   0.0000
    72 C35     11.0224   0.3931   2.1990   C.ar      1 RES1   0.0000
    73 C36     12.1268   0.4581   1.3429   C.ar      1 RES1   0.0000
    74 H29     12.5612   1.2898   1.1936   H         1 RES1   0.0000
    75 C37     12.5949  -0.6977   0.7070   C.ar      1 RES1   0.0000
    76 H30     13.3468  -0.6498   0.1273   H         1 RES1   0.0000
    77 C38     11.9655  -1.9087   0.9167   C.ar      1 RES1   0.0000
    78 H31     12.2865  -2.6893   0.4827   H         1 RES1   0.0000
    79 C39     10.8697  -1.9904   1.7597   C.ar      1 RES1   0.0000
    80 H32     10.4392  -2.8258   1.8958   H         1 RES1   0.0000
    81 C40     10.3939  -0.8452   2.4092   C.ar      1 RES1   0.0000
    82 H33      9.6459  -0.9058   2.9929   H         1 RES1   0.0000
    83 C41      6.4961   3.1503   8.2024   C.2       1 RES1   0.0000
    84 N9       6.1433   2.8975   6.9188   N.2       1 RES1   0.0000
    85 N10      4.7913   3.0414   6.8797   N.pl3     1 RES1   0.0000
    86 C42      4.3014   3.3847   8.0992   C.2       1 RES1   0.0000
    87 H34      3.3892   3.5403   8.3116   H         1 RES1   0.0000
    88 C43      5.3630   3.4672   8.9769   C.2       1 RES1   0.0000
    89 H35      5.3353   3.6880   9.9002   H         1 RES1   0.0000
    90 C44      4.0664   2.8521   5.6202   C.3       1 RES1   0.0000
    91 H36      3.1067   2.7118   5.8234   H         1 RES1   0.0000
    92 H37      4.4031   2.0325   5.1783   H         1 RES1   0.0000
    93 C45      4.1971   4.0157   4.6517   C.ar      1 RES1   0.0000
    94 C46      3.8213   3.8315   3.3146   C.ar      1 RES1   0.0000
    95 H38      3.5312   2.9763   3.0192   H         1 RES1   0.0000
    96 C47      3.8716   4.8920   2.4154   C.ar      1 RES1   0.0000
    97 H39      3.6006   4.7570   1.5140   H         1 RES1   0.0000
    98 C48      4.3130   6.1439   2.8169   C.ar      1 RES1   0.0000
    99 H40      4.3491   6.8612   2.1942   H         1 RES1   0.0000
   100 C49      4.7039   6.3430   4.1475   C.ar      1 RES1   0.0000
   101 H41      5.0128   7.1960   4.4279   H         1 RES1   0.0000
   102 C50      4.6397   5.2846   5.0603   C.ar      1 RES1   0.0000
   103 H42      4.8970   5.4251   5.9638   H         1 RES1   0.0000
   104 B1       7.6013   9.1857   8.5398   B         2 RES2  -1.0000
   105 F1       7.6059   8.9543   7.1772   F         2 RES2   0.0000
   106 F2       6.6379  10.1443   8.8360   F         2 RES2   0.0000
   107 F3       8.8389   9.6996   8.9076   F         2 RES2   0.0000
   108 F4       7.3585   8.0147   9.2389   F         2 RES2   0.0000
   109 B2       7.4962   9.5600   1.9019   B         3 RES3  -1.0000
   110 F5       7.9903   8.8309   0.8492   F         3 RES3   0.0000
   111 F6       6.3959   8.9068   2.4040   F         3 RES3   0.0000
   112 F7       8.4252   9.5933   2.9064   F         3 RES3   0.0000
   113 F8       7.1034  10.8236   1.5021   F         3 RES3   0.0000
@<TRIPOS>BOND
     1     1     2    1
     2     2     3   ar
     3     3     4   ar
     4     4     5    1
     5     6     4   ar
     6     7     6    1
     7     8     6   ar
     8     9     8    1
     9    10     2   ar
    10    11     3    1
    11    12     1    1
    12    13    12    1
    13    14    13    1
    14    15    14    1
    15    16    11    1
    16    17    16    1
    17    18    13    1
    18    19    18    1
    19    20    18    1
    20    21    18    1
    21    22    21   ar
    22    23    22    1
    23    24    22   ar
    24    25    24    1
    25    26    24   ar
    26    27    26    1
    27    28    26   ar
    28    29    28    1
    29    30    21   ar
    30    31    30    1
    31    32    10    1
    32    33     1    1
    33    34    33    1
    34    35    34    1
    35    36    35    1
    36    37    32    1
    37    38    37    1
    38    39    34    1
    39    40    39    1
    40    41    39    1
    41    42    39    1
    42    43    42   ar
    43    44    43    1
    44    45    43   ar
    45    46    45    1
    46    47    45   ar
    47    48    47    1
    48    49    47   ar
    49    50    49    1
    50    51    42   ar
    51    52    51    1
    52    53     1    1
    53    54    53   ar
    54    55    54   ar
    55    56    55    1
    56    57    55   ar
    57    58    57    1
    58    59    57   ar
    59    60    59    1
    60    61    53   ar
    61    62    54    1
    62    63     1    1
    63    64    63    1
    64    65    64    1
    65    66    65    1
    66    67    62    1
    67    68    67    1
    68    69    64    1
    69    70    69    1
    70    71    69    1
    71    72    69    1
    72    73    72   ar
    73    74    73    1
    74    75    73   ar
    75    76    75    1
    76    77    75   ar
    77    78    77    1
    78    79    77   ar
    79    80    79    1
    80    81    72   ar
    81    82    81    1
    82    83    61    1
    83    84     1    1
    84    85    84    1
    85    86    85    1
    86    87    86    1
    87    88    83    1
    88    89    88    1
    89    90    85    1
    90    91    90    1
    91    92    90    1
    92    93    90    1
    93    94    93   ar
    94    95    94    1
    95    96    94   ar
    96    97    96    1
    97    98    96   ar
    98    99    98    1
    99   100    98   ar
   100   101   100    1
   101   102    93   ar
   102   103   102    1
   103     8    10   ar
   104    11    12    2
   105    14    16    2
   106    28    30   ar
   107    32    33    2
   108    35    37    2
   109    49    51   ar
   110    59    61   ar
   111    62    63    2
   112    65    67    2
   113    79    81   ar
   114    83    84    2
   115    86    88    2
   116   100   102   ar
   117   104   105    1
   118   106   104    1
   119   107   104    1
   120   108   104    1
   121   109   110    1
   122   111   109    1
   123   112   109    1
   124   113   109    1
@<TRIPOS>SUBSTRUCTURE
     1 RES1        1 GROUP             0 ****  ****    0  
     2 RES2      104 GROUP             0 ****  ****    0  
     3 RES3      109 GROUP             0 ****  ****    0  
@<TRIPOS>CRYSIN
   15.4334   14.0656   43.8840   90.0000   90.0000   90.0000    61     1
