@<TRIPOS>MOLECULE
VOBKON
   111   110    13     0     0
SMALL
USER_CHARGES
****
Generated from the CSD

@<TRIPOS>ATOM
     1 C1      11.9381   7.7786   4.1735   C.ar      1 RES1   0.0000
     2 H1      11.7905   8.2264   3.3492   H         1 RES1   0.0000
     3 C2      11.2031   6.6492   4.4509   C.ar      1 RES1   0.0000
     4 H2      10.5634   6.3274   3.8260   H         1 RES1   0.0000
     5 C3      11.4053   5.9872   5.6505   C.ar      1 RES1   0.0000
     6 H3      10.8968   5.2156   5.8701   H         1 RES1   0.0000
     7 C4      12.3630   6.4713   6.5215   C.ar      1 RES1   0.0000
     8 H4      12.5277   6.0254   7.3443   H         1 RES1   0.0000
     9 C5      13.0764   7.6002   6.1957   C.ar      1 RES1   0.0000
    10 C6      14.1301   8.2071   7.0200   C.ar      1 RES1   0.0000
    11 C7      14.6000   7.7771   8.2429   C.ar      1 RES1   0.0000
    12 H5      14.2265   7.0036   8.6494   H         1 RES1   0.0000
    13 C8      15.6293   8.4805   8.8844   C.ar      1 RES1   0.0000
    14 C9      16.1340   9.6244   8.2398   C.ar      1 RES1   0.0000
    15 H6      16.8322  10.1258   8.6437   H         1 RES1   0.0000
    16 C10     15.6222  10.0173   7.0316   C.ar      1 RES1   0.0000
    17 C11     15.9734  11.2207   6.2609   C.ar      1 RES1   0.0000
    18 C12     16.8123  12.2087   6.7058   C.ar      1 RES1   0.0000
    19 H7      17.2910  12.1008   7.5191   H         1 RES1   0.0000
    20 C13     16.9575  13.3666   5.9611   C.ar      1 RES1   0.0000
    21 H8      17.5238  14.0679   6.2596   H         1 RES1   0.0000
    22 C14     16.2585  13.4798   4.7700   C.ar      1 RES1   0.0000
    23 H9      16.3300  14.2650   4.2402   H         1 RES1   0.0000
    24 C15     15.4585  12.4374   4.3659   C.ar      1 RES1   0.0000
    25 H10     14.9989  12.5184   3.5392   H         1 RES1   0.0000
    26 C16     16.0735   7.8511   3.9896   C.ar      1 RES1   0.0000
    27 H11     16.2230   7.7289   4.9203   H         1 RES1   0.0000
    28 C17     16.7749   7.0742   3.1005   C.ar      1 RES1   0.0000
    29 H12     17.4001   6.4322   3.4176   H         1 RES1   0.0000
    30 C18     16.5689   7.2304   1.7438   C.ar      1 RES1   0.0000
    31 H13     17.0571   6.7116   1.1151   H         1 RES1   0.0000
    32 C19     15.6363   8.1591   1.3220   C.ar      1 RES1   0.0000
    33 H14     15.4607   8.2733   0.3951   H         1 RES1   0.0000
    34 C20     14.9654   8.9155   2.2517   C.ar      1 RES1   0.0000
    35 C21     13.9161   9.8995   1.9463   C.ar      1 RES1   0.0000
    36 C22     13.4306  10.2496   0.7010   C.ar      1 RES1   0.0000
    37 H15     13.8165   9.8766  -0.0836   H         1 RES1   0.0000
    38 C23     12.3736  11.1510   0.5988   C.ar      1 RES1   0.0000
    39 C24     11.8630  11.7174   1.7808   C.ar      1 RES1   0.0000
    40 H16     11.1616  12.3559   1.7420   H         1 RES1   0.0000
    41 C25     12.3916  11.3344   2.9972   C.ar      1 RES1   0.0000
    42 C26     12.2512  11.4167   6.6135   C.ar      1 RES1   0.0000
    43 H17     12.6762  10.9556   7.3272   H         1 RES1   0.0000
    44 C27     11.3181  12.3626   6.9216   C.ar      1 RES1   0.0000
    45 H18     11.0932  12.5372   7.8268   H         1 RES1   0.0000
    46 C28     10.7019  13.0670   5.8963   C.ar      1 RES1   0.0000
    47 H19     10.0563  13.7374   6.0867   H         1 RES1   0.0000
    48 C29     11.0488  12.7667   4.5854   C.ar      1 RES1   0.0000
    49 H20     10.6544  13.2440   3.8640   H         1 RES1   0.0000
    50 C30     11.9663  11.7758   4.3374   C.ar      1 RES1   0.0000
    51 C31     16.1778   8.0568  10.1933   C.ar      1 RES1   0.0000
    52 C32     16.0368   6.7438  10.6379   C.ar      1 RES1   0.0000
    53 H21     15.5817   6.1088  10.0970   H         1 RES1   0.0000
    54 C33     16.5533   6.3591  11.8567   C.ar      1 RES1   0.0000
    55 H22     16.4496   5.4604  12.1468   H         1 RES1   0.0000
    56 C34     17.2182   7.2611  12.6620   C.ar      1 RES1   0.0000
    57 H23     17.5673   6.9886  13.5032   H         1 RES1   0.0000
    58 C35     17.3696   8.5601  12.2340   C.ar      1 RES1   0.0000
    59 H24     17.8317   9.1878  12.7775   H         1 RES1   0.0000
    60 C36     16.8484   8.9544  11.0085   C.ar      1 RES1   0.0000
    61 H25     16.9533   9.8544  10.7239   H         1 RES1   0.0000
    62 C37     11.7557  11.4836  -0.7143   C.ar      1 RES1   0.0000
    63 C38     11.1315  12.6958  -0.9195   C.ar      1 RES1   0.0000
    64 H26     11.0917  13.3294  -0.2128   H         1 RES1   0.0000
    65 C39     10.5637  13.0015  -2.1391   C.ar      1 RES1   0.0000
    66 H27     10.1356  13.8393  -2.2664   H         1 RES1   0.0000
    67 C40     10.6183  12.0959  -3.1680   C.ar      1 RES1   0.0000
    68 H28     10.2275  12.3077  -4.0084   H         1 RES1   0.0000
    69 C41     11.2381  10.8772  -2.9848   C.ar      1 RES1   0.0000
    70 H29     11.2721  10.2484  -3.6950   H         1 RES1   0.0000
    71 C42     11.8125  10.5752  -1.7641   C.ar      1 RES1   0.0000
    72 H30     12.2484   9.7407  -1.6414   H         1 RES1   0.0000
    73 N1      12.8582   8.2746   5.0236   N.ar      1 RES1   0.0000
    74 N2      14.6418   9.3128   6.4317   N.ar      1 RES1   0.0000
    75 N3      15.2917  11.3123   5.0740   N.ar      1 RES1   0.0000
    76 N4      15.1851   8.7731   3.5958   N.ar      1 RES1   0.0000
    77 N5      13.3880  10.4226   3.0709   N.ar      1 RES1   0.0000
    78 N6      12.6039  11.0979   5.3466   N.ar      1 RES1   0.0000
    79 Fe1     14.0001   9.8609   4.7531   Fe        1 RES1   2.0000
    80 O1       5.5804   5.2374   5.7370   O.3       2 RES2   0.0000
    81 H33      6.3649   4.9105   5.6992   H         2 RES2   0.0000
    82 H46      5.3107   4.9193   6.4780   H         2 RES2   0.0000
    83 O2       6.1972   9.4282  18.3028   O.3       3 RES3   0.0000
    84 H40      6.2062  10.1786  17.8384   H         3 RES3   0.0000
    85 H41      5.3292   9.2070  18.1993   H         3 RES3   0.0000
    86 O3       3.2801  11.4101  17.2158   O.3       4 RES4   0.0000
    87 H35      3.8947  12.1664  17.4394   H         4 RES4   0.0000
    88 H47      2.6778  11.5931  16.4706   H         4 RES4   0.0000
    89 O4       3.5195   8.7174  18.0532   O.3       5 RES5   0.0000
    90 H43      3.0522   9.4969  17.6294   H         5 RES5   0.0000
    91 H50      3.3120   8.6790  18.9022   H         5 RES5   0.0000
    92 O5       7.3727  11.6238  13.6168   O.3       6 RES6   0.0000
    93 H31      7.1322  11.8229  14.3999   H         6 RES6   0.0000
    94 H39      6.9992  12.1039  13.0511   H         6 RES6   0.0000
    95 O6      14.3526  11.9894   9.4321   O.3       7 RES7   0.0000
    96 H42     14.2384  12.7146   8.9287   H         7 RES7   0.0000
    97 H44     13.6573  11.8224   9.8025   H         7 RES7   0.0000
    98 O7      14.0687  14.3738   7.8122   O.3       8 RES8   0.0000
    99 H45     13.3198  14.6403   8.3208   H         8 RES8   0.0000
   100 H48     14.8450  14.6158   8.3588   H         8 RES8   0.0000
   101 O8       9.4550  12.1571  17.2295   O.3       9 RES9   0.0000
   102 H34      9.5409  11.7541  17.8764   H         9 RES9   0.0000
   103 H49      8.5556  12.0680  17.1735   H         9 RES9   0.0000
   104 O9       8.4428  12.3026   9.5108   O.3      10 RES10   0.0000
   105 H32      8.6200  13.0409   9.2516   H        10 RES10   0.0000
   106 H38      9.1681  12.1292   9.8595   H        10 RES10   0.0000
   107 O10     11.4570  11.8350  15.4060   O.3      11 RES11   0.0000
   108 H36     11.6674  11.0829  15.9006   H        11 RES11   0.0000
   109 H37     11.1110  11.3917  14.6658   H        11 RES11   0.0000
   110 Cl1     11.3950  11.8672  10.6033   Cl       12 RES12  -1.0000
   111 Cl2      6.3215  12.1573  16.6282   Cl       13 RES13  -1.0000
@<TRIPOS>BOND
     1     1     2    1
     2     3     1   ar
     3     4     3    1
     4     5     3   ar
     5     6     5    1
     6     7     5   ar
     7     8     7    1
     8     9     7   ar
     9    10     9    1
    10    11    10   ar
    11    12    11    1
    12    13    11   ar
    13    14    13   ar
    14    15    14    1
    15    16    14   ar
    16    17    16    1
    17    18    17   ar
    18    19    18    1
    19    20    18   ar
    20    21    20    1
    21    22    20   ar
    22    23    22    1
    23    24    22   ar
    24    25    24    1
    25    26    27    1
    26    28    26   ar
    27    29    28    1
    28    30    28   ar
    29    31    30    1
    30    32    30   ar
    31    33    32    1
    32    34    32   ar
    33    35    34    1
    34    36    35   ar
    35    37    36    1
    36    38    36   ar
    37    39    38   ar
    38    40    39    1
    39    41    39   ar
    40    42    43    1
    41    44    42   ar
    42    45    44    1
    43    46    44   ar
    44    47    46    1
    45    48    46   ar
    46    49    48    1
    47    50    41    1
    48    51    13    1
    49    52    51   ar
    50    53    52    1
    51    54    52   ar
    52    55    54    1
    53    56    54   ar
    54    57    56    1
    55    58    56   ar
    56    59    58    1
    57    60    51   ar
    58    61    60    1
    59    62    38    1
    60    63    62   ar
    61    64    63    1
    62    65    63   ar
    63    66    65    1
    64    67    65   ar
    65    68    67    1
    66    69    67   ar
    67    70    69    1
    68    71    62   ar
    69    72    71    1
    70    73     1   ar
    71    74    10   ar
    72    75    17   ar
    73    76    26   ar
    74    77    35   ar
    75    78    42   ar
    76    79    73    1
    77     9    73   ar
    78    16    74   ar
    79    24    75   ar
    80    34    76   ar
    81    41    77   ar
    82    48    50   ar
    83    50    78   ar
    84    58    60   ar
    85    69    71   ar
    86    74    79    1
    87    75    79    1
    88    76    79    1
    89    77    79    1
    90    78    79    1
    91    80    81    1
    92    82    80    1
    93    83    84    1
    94    85    83    1
    95    86    87    1
    96    88    86    1
    97    89    90    1
    98    91    89    1
    99    92    93    1
   100    94    92    1
   101    95    96    1
   102    97    95    1
   103    98    99    1
   104   100    98    1
   105   101   102    1
   106   103   101    1
   107   104   105    1
   108   106   104    1
   109   107   108    1
   110   109   107    1
@<TRIPOS>SUBSTRUCTURE
     1 RES1        1 GROUP             0 ****  ****    0  
     2 RES2       80 GROUP             0 ****  ****    0  
     3 RES3       83 GROUP             0 ****  ****    0  
     4 RES4       86 GROUP             0 ****  ****    0  
     5 RES5       89 GROUP             0 ****  ****    0  
     6 RES6       92 GROUP             0 ****  ****    0  
     7 RES7       95 GROUP             0 ****  ****    0  
     8 RES8       98 GROUP             0 ****  ****    0  
     9 RES9      101 GROUP             0 ****  ****    0  
    10 RES10     104 GROUP             0 ****  ****    0  
    11 RES11     107 GROUP             0 ****  ****    0  
    12 RES12     110 GROUP             0 ****  ****    0  
    13 RES13     111 GROUP             0 ****  ****    0  
@<TRIPOS>CRYSIN
   10.1851   12.2125   19.5622   76.6020   87.8900   67.3210     2     1
