@<TRIPOS>MOLECULE
VOCDOH
   122   133     3     0     0
SMALL
USER_CHARGES
****
Generated from the CSD

@<TRIPOS>ATOM
     1 Fe1      5.4219   0.0000   6.1435   Fe        1 RES1   2.0000
     2 P1       1.3710   4.9042   8.0656   P.3       1 RES1   0.0000
     3 C1       3.8942   2.6153   6.2822   C.3       1 RES1   0.0000
     4 C2       3.1462   3.9500   6.3323   C.3       1 RES1   0.0000
     5 H1       3.7352   4.6842   6.0243   H         1 RES1   0.0000
     6 H2       2.3510   3.9186   5.7441   H         1 RES1   0.0000
     7 C3       1.6603   1.4491   6.7765   C.2       1 RES1   0.0000
     8 H3       1.0703   2.1921   6.8205   H         1 RES1   0.0000
     9 C4       1.3229   0.1340   6.9113   C.2       1 RES1   0.0000
    10 H4       0.4578  -0.2209   7.0797   H         1 RES1   0.0000
    11 C5       2.5077  -0.5790   6.7520   C.2       1 RES1   0.0000
    12 H5       2.5752  -1.5258   6.7922   H         1 RES1   0.0000
    13 C6       4.3336   3.1698   3.8157   C.2       1 RES1   0.0000
    14 H6       3.8432   3.9775   3.7168   H         1 RES1   0.0000
    15 C7       5.0563   2.5287   2.8443   C.2       1 RES1   0.0000
    16 H7       5.1767   2.8050   1.9438   H         1 RES1   0.0000
    17 C8       5.5788   1.3880   3.4505   C.2       1 RES1   0.0000
    18 H8       6.1264   0.7491   3.0115   H         1 RES1   0.0000
    19 C9       5.4284   3.5499   8.1305   C.2       1 RES1   0.0000
    20 H9       5.0697   4.4210   8.2482   H         1 RES1   0.0000
    21 C10      6.4796   3.0060   8.8122   C.2       1 RES1   0.0000
    22 H10      6.9944   3.4198   9.4954   H         1 RES1   0.0000
    23 C11      6.6438   1.7163   8.2985   C.2       1 RES1   0.0000
    24 H11      7.3050   1.0988   8.5898   H         1 RES1   0.0000
    25 C12      1.4978   6.6115   7.5088   C.ar      1 RES1   0.0000
    26 C13      2.2053   7.5803   8.2101   C.ar      1 RES1   0.0000
    27 H12      2.6908   7.3420   8.9916   H         1 RES1   0.0000
    28 C14      2.2021   8.9004   7.7666   C.ar      1 RES1   0.0000
    29 H13      2.6640   9.5691   8.2593   H         1 RES1   0.0000
    30 C15      1.5306   9.2339   6.6178   C.ar      1 RES1   0.0000
    31 H14      1.5378  10.1323   6.3118   H         1 RES1   0.0000
    32 C16      0.8419   8.2696   5.9002   C.ar      1 RES1   0.0000
    33 H15      0.3939   8.5052   5.0966   H         1 RES1   0.0000
    34 C17      0.8069   6.9593   6.3560   C.ar      1 RES1   0.0000
    35 H16      0.3109   6.3021   5.8805   H         1 RES1   0.0000
    36 C18      1.5098   4.7783   9.8400   C.ar      1 RES1   0.0000
    37 C19      0.3958   4.3058  10.5353   C.ar      1 RES1   0.0000
    38 H17     -0.4092   4.1192  10.0667   H         1 RES1   0.0000
    39 C20      0.4578   4.1094  11.8962   C.ar      1 RES1   0.0000
    40 H18     -0.2980   3.7750  12.3644   H         1 RES1   0.0000
    41 C21      1.6234   4.3993  12.5818   C.ar      1 RES1   0.0000
    42 H19      1.6569   4.2811  13.5242   H         1 RES1   0.0000
    43 C22      2.7383   4.8578  11.9122   C.ar      1 RES1   0.0000
    44 H20      3.5357   5.0523  12.3914   H         1 RES1   0.0000
    45 C23      2.6953   5.0350  10.5325   C.ar      1 RES1   0.0000
    46 H21      3.4675   5.3284  10.0642   H         1 RES1   0.0000
    47 N1       3.5287   0.2371   6.5362   N.2       1 RES1   0.0000
    48 N2       3.0003   1.4940   6.5668   N.pl3     1 RES1   0.0000
    49 N3       5.2097   1.3136   4.7230   N.2       1 RES1   0.0000
    50 N4       4.4536   2.4301   4.9465   N.pl3     1 RES1   0.0000
    51 N5       5.7525   1.4712   7.3503   N.2       1 RES1   0.0000
    52 N6       4.9907   2.6044   7.2495   N.pl3     1 RES1   0.0000
    53 O1       2.7503   4.1703   7.6836   O.3       1 RES1   0.0000
    54 O2       0.1858   4.2456   7.4955   O.2       1 RES1   0.0000
    55 P1B      9.4729  -4.9042   4.2213   P.3       1 RES1   0.0000
    56 C1B      6.9497  -2.6153   6.0048   C.3       1 RES1   0.0000
    57 C2B      7.6977  -3.9500   5.9546   C.3       1 RES1   0.0000
    58 H1B      7.1087  -4.6842   6.2627   H         1 RES1   0.0000
    59 H2B      8.4928  -3.9186   6.5428   H         1 RES1   0.0000
    60 C3B      9.1836  -1.4491   5.5105   C.2       1 RES1   0.0000
    61 H3B      9.7736  -2.1921   5.4665   H         1 RES1   0.0000
    62 C4B      9.5210  -0.1340   5.3757   C.2       1 RES1   0.0000
    63 H4B     10.3861   0.2209   5.2072   H         1 RES1   0.0000
    64 C5B      8.3362   0.5790   5.5349   C.2       1 RES1   0.0000
    65 H5B      8.2687   1.5258   5.4947   H         1 RES1   0.0000
    66 C6B      6.5103  -3.1698   8.4712   C.2       1 RES1   0.0000
    67 H6B      7.0007  -3.9775   8.5701   H         1 RES1   0.0000
    68 C7B      5.7876  -2.5287   9.4426   C.2       1 RES1   0.0000
    69 H7B      5.6672  -2.8050  10.3432   H         1 RES1   0.0000
    70 C8B      5.2651  -1.3880   8.8364   C.2       1 RES1   0.0000
    71 H8B      4.7174  -0.7491   9.2754   H         1 RES1   0.0000
    72 C9B      5.4155  -3.5499   4.1564   C.2       1 RES1   0.0000
    73 H9B      5.7741  -4.4210   4.0387   H         1 RES1   0.0000
    74 C10B     4.3643  -3.0060   3.4747   C.2       1 RES1   0.0000
    75 H10B     3.8494  -3.4198   2.7916   H         1 RES1   0.0000
    76 C11B     4.2001  -1.7163   3.9885   C.2       1 RES1   0.0000
    77 H11B     3.5388  -1.0988   3.6971   H         1 RES1   0.0000
    78 C12B     9.3461  -6.6115   4.7781   C.ar      1 RES1   0.0000
    79 C13B     8.6386  -7.5803   4.0768   C.ar      1 RES1   0.0000
    80 H12B     8.1531  -7.3420   3.2954   H         1 RES1   0.0000
    81 C14B     8.6418  -8.9004   4.5204   C.ar      1 RES1   0.0000
    82 H13B     8.1798  -9.5691   4.0277   H         1 RES1   0.0000
    83 C15B     9.3133  -9.2339   5.6692   C.ar      1 RES1   0.0000
    84 H14B     9.3061 -10.1323   5.9751   H         1 RES1   0.0000
    85 C16B    10.0020  -8.2696   6.3868   C.ar      1 RES1   0.0000
    86 H15B    10.4500  -8.5052   7.1903   H         1 RES1   0.0000
    87 C17B    10.0369  -6.9593   5.9309   C.ar      1 RES1   0.0000
    88 H16B    10.5330  -6.3021   6.4064   H         1 RES1   0.0000
    89 C18B     9.3341  -4.7783   2.4469   C.ar      1 RES1   0.0000
    90 C19B    10.4481  -4.3058   1.7516   C.ar      1 RES1   0.0000
    91 H17B    11.2530  -4.1192   2.2203   H         1 RES1   0.0000
    92 C20B    10.3861  -4.1094   0.3907   C.ar      1 RES1   0.0000
    93 H18B    11.1418  -3.7750  -0.0774   H         1 RES1   0.0000
    94 C21B     9.2205  -4.3993  -0.2949   C.ar      1 RES1   0.0000
    95 H19B     9.1870  -4.2811  -1.2373   H         1 RES1   0.0000
    96 C22B     8.1055  -4.8578   0.3748   C.ar      1 RES1   0.0000
    97 H20B     7.3082  -5.0523  -0.1044   H         1 RES1   0.0000
    98 C23B     8.1486  -5.0350   1.7545   C.ar      1 RES1   0.0000
    99 H21B     7.3764  -5.3284   2.2227   H         1 RES1   0.0000
   100 N1B      7.3152  -0.2371   5.7508   N.2       1 RES1   0.0000
   101 N2B      7.8436  -1.4940   5.7202   N.pl3     1 RES1   0.0000
   102 N3B      5.6342  -1.3136   7.5640   N.2       1 RES1   0.0000
   103 N4B      6.3903  -2.4301   7.3405   N.pl3     1 RES1   0.0000
   104 N5B      5.0913  -1.4712   4.9366   N.2       1 RES1   0.0000
   105 N6B      5.8532  -2.6044   5.0374   N.pl3     1 RES1   0.0000
   106 O1B      8.0936  -4.1703   4.6033   O.3       1 RES1   0.0000
   107 O2B     10.6580  -4.2456   4.7914   O.2       1 RES1   0.0000
   108 B1       0.6931   2.1855   3.3924   B         2 RES2  -1.0000
   109 F1       0.3144   2.4664   2.0939   F         2 RES2   0.0000
   110 F2       1.7778   1.3250   3.4326   F         2 RES2   0.0000
   111 F3      -0.3657   1.6088   4.0528   F         2 RES2   0.0000
   112 F4       1.0371   3.3813   4.0172   F         2 RES2   0.0000
   113 C24      5.0066   7.4695   2.4992   C.3       3 RES3   0.0000
   114 H22      5.9728   7.3125   2.4439   H         3 RES3   0.0000
   115 H23      4.8132   8.4003   2.2633   H         3 RES3   0.0000
   116 H24      4.5431   6.8708   1.8762   H         3 RES3   0.0000
   117 C25      4.5394   7.2003   3.8881   C.2       3 RES3   0.0000
   118 C26      4.9054   8.1772   4.9455   C.3       3 RES3   0.0000
   119 H25      4.4839   9.0408   4.7526   H         3 RES3   0.0000
   120 H26      5.8797   8.2862   4.9664   H         3 RES3   0.0000
   121 H27      4.5941   7.8500   5.8154   H         3 RES3   0.0000
   122 O3       3.8842   6.2215   4.1584   O.2       3 RES3   0.0000
@<TRIPOS>BOND
     1     1    47    1
     2     2    25    1
     3     3     4    1
     4     4     5    1
     5     6     4    1
     6     7     8    1
     7     9     7    2
     8    10     9    1
     9    11     9    1
    10    12    11    1
    11    13    14    1
    12    15    13    2
    13    16    15    1
    14    17    15    1
    15    18    17    1
    16    19    20    1
    17    21    19    2
    18    22    21    1
    19    23    21    1
    20    24    23    1
    21    25    26   ar
    22    26    27    1
    23    28    26   ar
    24    29    28    1
    25    30    28   ar
    26    31    30    1
    27    32    30   ar
    28    33    32    1
    29    34    25   ar
    30    35    34    1
    31    36     2    1
    32    37    36   ar
    33    38    37    1
    34    39    37   ar
    35    40    39    1
    36    41    39   ar
    37    42    41    1
    38    43    41   ar
    39    44    43    1
    40    45    36   ar
    41    46    45    1
    42    47    11    2
    43    48     3    1
    44    49     1    1
    45    50     3    1
    46    51     1    1
    47    52     3    1
    48    53     2    1
    49    54     2    2
    50    55    78    1
    51    56    57    1
    52    57    58    1
    53    59    57    1
    54    60    61    1
    55    62    60    2
    56    63    62    1
    57    64    62    1
    58    65    64    1
    59    66    67    1
    60    68    66    2
    61    69    68    1
    62    70    68    1
    63    71    70    1
    64    72    73    1
    65    74    72    2
    66    75    74    1
    67    76    74    1
    68    77    76    1
    69    78    79   ar
    70    79    80    1
    71    81    79   ar
    72    82    81    1
    73    83    81   ar
    74    84    83    1
    75    85    83   ar
    76    86    85    1
    77    87    78   ar
    78    88    87    1
    79    89    55    1
    80    90    89   ar
    81    91    90    1
    82    92    90   ar
    83    93    92    1
    84    94    92   ar
    85    95    94    1
    86    96    94   ar
    87    97    96    1
    88    98    89   ar
    89    99    98    1
    90   100     1    1
    91   101    56    1
    92   102     1    1
    93   103    56    1
    94   104     1    1
    95   105    56    1
    96   106    55    1
    97   107    55    2
    98     4    53    1
    99     7    48    1
   100    13    50    1
   101    17    49    2
   102    19    52    1
   103    23    51    2
   104    32    34   ar
   105    43    45   ar
   106    47    48    1
   107    49    50    1
   108    51    52    1
   109    57   106    1
   110    60   101    1
   111    64   100    2
   112    66   103    1
   113    70   102    2
   114    72   105    1
   115    76   104    2
   116    85    87   ar
   117    96    98   ar
   118   100   101    1
   119   102   103    1
   120   104   105    1
   121   108   109    1
   122   110   108    1
   123   111   108    1
   124   112   108    1
   125   113   114    1
   126   115   113    1
   127   116   113    1
   128   117   113    1
   129   118   117    1
   130   119   118    1
   131   120   118    1
   132   121   118    1
   133   122   117    2
@<TRIPOS>SUBSTRUCTURE
     1 RES1        1 GROUP             0 ****  ****    0  
     2 RES2      108 GROUP             0 ****  ****    0  
     3 RES3      113 GROUP             0 ****  ****    0  
@<TRIPOS>CRYSIN
   12.3175   18.4056   12.3750   90.0000   96.8390   90.0000   231     1
