@<TRIPOS>MOLECULE
VOCGIF
   109   171     1     0     0
SMALL
NO_CHARGES
****
Generated from the CSD

@<TRIPOS>ATOM
     1 Fe1      6.8434   8.2510  11.2479   Fe        1 RES1   0.0000
     2 O1       8.3314   8.6032  12.4086   O.3       1 RES1   0.0000
     3 O2       7.4851   9.2218   9.7529   O.3       1 RES1   0.0000
     4 O3       5.5941   9.5911  11.9183   O.3       1 RES1   0.0000
     5 N1       6.5181   6.8014  12.8615   N.ar      1 RES1   0.0000
     6 N2       7.9417   6.7087  10.1232   N.ar      1 RES1   0.0000
     7 N3       4.9582   7.6495  10.3026   N.ar      1 RES1   0.0000
     8 C1       5.6270   5.7988  12.9112   C.ar      1 RES1   0.0000
     9 H1       4.9237   5.7810  12.2734   H         1 RES1   0.0000
    10 C2       5.6939   4.7929  13.8512   C.ar      1 RES1   0.0000
    11 H2       5.0474   4.0967  13.8600   H         1 RES1   0.0000
    12 C3       6.7168   4.8161  14.7799   C.ar      1 RES1   0.0000
    13 H3       6.8003   4.1210  15.4225   H         1 RES1   0.0000
    14 C4       7.6176   5.8670  14.7593   C.ar      1 RES1   0.0000
    15 H4       8.3234   5.9066  15.3942   H         1 RES1   0.0000
    16 C5       7.4807   6.8615  13.8028   C.ar      1 RES1   0.0000
    17 C6       8.4425   8.0426  13.6540   C.3       1 RES1   0.0000
    18 H5       9.3725   7.6846  13.7397   H         1 RES1   0.0000
    19 C7       8.2613   9.1397  14.7476   C.3       1 RES1   0.0000
    20 C8       7.4762  10.4986  14.2850   C.3       1 RES1   0.0000
    21 H6       7.0399  10.5718  13.2556   H         1 RES1   0.0000
    22 C9       8.0770   5.3949  10.3873   C.ar      1 RES1   0.0000
    23 H7       7.7157   5.0562  11.1978   H         1 RES1   0.0000
    24 C10      8.7136   4.5222   9.5382   C.ar      1 RES1   0.0000
    25 H8       8.8029   3.6032   9.7627   H         1 RES1   0.0000
    26 C11      9.2189   5.0099   8.3555   C.ar      1 RES1   0.0000
    27 H9       9.6386   4.4239   7.7360   H         1 RES1   0.0000
    28 C12      9.1114   6.3562   8.0760   C.ar      1 RES1   0.0000
    29 H10      9.4520   6.7075   7.2619   H         1 RES1   0.0000
    30 C13      8.4974   7.1924   9.0014   C.ar      1 RES1   0.0000
    31 C14      8.3548   8.6976   8.8221   C.3       1 RES1   0.0000
    32 H11      7.9560   8.8544   7.9186   H         1 RES1   0.0000
    33 C15      9.7127   9.4651   8.8733   C.3       1 RES1   0.0000
    34 C16     10.3402   9.8063  10.3455   C.3       1 RES1   0.0000
    35 H12      9.8245   9.4372  11.2686   H         1 RES1   0.0000
    36 C17      4.6790   6.5675   9.5740   C.ar      1 RES1   0.0000
    37 H13      5.3728   5.9408   9.4075   H         1 RES1   0.0000
    38 C18      3.4275   6.3196   9.0535   C.ar      1 RES1   0.0000
    39 H14      3.2708   5.5453   8.5257   H         1 RES1   0.0000
    40 C19      2.4054   7.2093   9.3092   C.ar      1 RES1   0.0000
    41 H15      1.5307   7.0478   8.9772   H         1 RES1   0.0000
    42 C20      2.6750   8.3400  10.0575   C.ar      1 RES1   0.0000
    43 H16      1.9863   8.9657  10.2510   H         1 RES1   0.0000
    44 C21      3.9693   8.5490  10.5237   C.ar      1 RES1   0.0000
    45 C22      4.3794   9.7686  11.3338   C.3       1 RES1   0.0000
    46 H17      3.7080   9.8822  12.0668   H         1 RES1   0.0000
    47 C23      4.3758  11.0895  10.4838   C.3       1 RES1   0.0000
    48 C24      5.8555  11.7410  10.2493   C.3       1 RES1   0.0000
    49 H18      6.7681  11.2052  10.6147   H         1 RES1   0.0000
    50 B1       9.1854  10.5641  14.4126   B         1 RES1   0.0000
    51 H19      9.8971  10.6709  13.5543   H         1 RES1   0.0000
    52 B2       8.1513  11.8992  14.9543   B         1 RES1   0.0000
    53 H20      8.1872  12.8994  14.4516   H         1 RES1   0.0000
    54 B3       7.8837  11.7196  16.7034   B         1 RES1   0.0000
    55 H21      7.7543  12.6053  17.3756   H         1 RES1   0.0000
    56 B4       8.7531  10.2523  17.2347   B         1 RES1   0.0000
    57 H22      9.1966  10.1697  18.2601   H         1 RES1   0.0000
    58 B5       8.0130   8.8555  16.4153   B         1 RES1   0.0000
    59 H23      7.9721   7.8388  16.8830   H         1 RES1   0.0000
    60 B6       9.5422   9.5418  15.8177   B         1 RES1   0.0000
    61 H24     10.5036   8.9734  15.8952   H         1 RES1   0.0000
    62 B7       9.4736  11.3076  15.9859   B         1 RES1   0.0000
    63 H25     10.3905  11.9212  16.1839   H         1 RES1   0.0000
    64 B8       6.6917   9.4504  15.3889   B         1 RES1   0.0000
    65 H26      5.7834   8.8357  15.1649   H         1 RES1   0.0000
    66 B9       6.9806  10.1983  16.9706   B         1 RES1   0.0000
    67 H27      6.2572  10.0805  17.8171   H         1 RES1   0.0000
    68 B10      6.6185  11.2206  15.5606   B         1 RES1   0.0000
    69 H28      5.6519  11.7758  15.4578   H         1 RES1   0.0000
    70 B11     11.1464   8.6418   9.3814   B         1 RES1   0.0000
    71 H29     11.2050   7.5458   9.6084   H         1 RES1   0.0000
    72 B12     11.7747  10.8494   7.6375   B         1 RES1   0.0000
    73 H30     12.2684  11.2063   6.6986   H         1 RES1   0.0000
    74 B13     10.0070  10.7634   7.7970   B         1 RES1   0.0000
    75 H31      9.3164  11.0554   6.9647   H         1 RES1   0.0000
    76 B14      9.5951  11.0862   9.4874   B         1 RES1   0.0000
    77 H32      8.6374  11.5852   9.7839   H         1 RES1   0.0000
    78 B15     11.0906  11.3407  10.3884   B         1 RES1   0.0000
    79 H33     11.1233  12.0115  11.2841   H         1 RES1   0.0000
    80 B16     12.0451   9.8469  10.3226   B         1 RES1   0.0000
    81 H34     12.7040   9.5440  11.1752   H         1 RES1   0.0000
    82 B17     12.4541  11.2085   9.2502   B         1 RES1   0.0000
    83 H35     13.3950  11.8033   9.3749   H         1 RES1   0.0000
    84 B18     12.4740   9.5308   8.6300   B         1 RES1   0.0000
    85 H36     13.4294   9.0197   8.3474   H         1 RES1   0.0000
    86 B19     10.9194  11.9730   8.7343   B         1 RES1   0.0000
    87 H37     10.8488  13.0701   8.5201   H         1 RES1   0.0000
    88 B20     10.9596   9.2675   7.7223   B         1 RES1   0.0000
    89 H38     10.8989   8.5801   6.8401   H         1 RES1   0.0000
    90 B21      5.8397  13.4226  10.3536   B         1 RES1   0.0000
    91 H39      6.6766  14.0494  10.7548   H         1 RES1   0.0000
    92 B22      4.1354  13.8500  10.6182   B         1 RES1   0.0000
    93 H40      3.8317  14.7687  11.1822   H         1 RES1   0.0000
    94 B23      4.8326  12.4488  11.4360   B         1 RES1   0.0000
    95 H41      5.0002  12.4169  12.5423   H         1 RES1   0.0000
    96 B24      3.2126  12.3332  10.7240   B         1 RES1   0.0000
    97 H42      2.2983  12.2329  11.3634   H         1 RES1   0.0000
    98 B25      3.3495  11.4839   9.1656   B         1 RES1   0.0000
    99 H43      2.5231  10.8295   8.7876   H         1 RES1   0.0000
   100 B26      5.0590  11.0620   8.8909   B         1 RES1   0.0000
   101 H44      5.3672  10.1344   8.3446   H         1 RES1   0.0000
   102 B27      4.3637  12.4709   8.0798   B         1 RES1   0.0000
   103 H45      4.2071  12.4830   6.9703   H         1 RES1   0.0000
   104 B28      3.2115  13.2574   9.2044   B         1 RES1   0.0000
   105 H46      2.2965  13.7873   8.8357   H         1 RES1   0.0000
   106 B29      4.8484  13.9316   8.9751   B         1 RES1   0.0000
   107 H47      5.0139  14.9097   8.4550   H         1 RES1   0.0000
   108 B30      5.9807  12.5821   8.7952   B         1 RES1   0.0000
   109 H48      6.9083  12.6570   8.1719   H         1 RES1   0.0000
@<TRIPOS>BOND
     1     1     2    1
     2     2    17    1
     3     3     1    1
     4     4     1    1
     5     5     1    1
     6     6     1    1
     7     7     1    1
     8     8     5   ar
     9     9     8    1
    10    10     8   ar
    11    11    10    1
    12    12    10   ar
    13    13    12    1
    14    14    12   ar
    15    15    14    1
    16    16     5   ar
    17    17    16    1
    18    18    17    1
    19    19    17    1
    20    20    19    1
    21    21    20    1
    22    22     6   ar
    23    23    22    1
    24    24    22   ar
    25    25    24    1
    26    26    24   ar
    27    27    26    1
    28    28    26   ar
    29    29    28    1
    30    30     6   ar
    31    31     3    1
    32    32    31    1
    33    33    31    1
    34    34    33    1
    35    35    34    1
    36    36     7   ar
    37    37    36    1
    38    38    36   ar
    39    39    38    1
    40    40    38   ar
    41    41    40    1
    42    42    40   ar
    43    43    42    1
    44    44     7   ar
    45    45     4    1
    46    46    45    1
    47    47    45    1
    48    48    47    1
    49    49    48    1
    50    50    19    1
    51    51    50    1
    52    52    20    1
    53    53    52    1
    54    54    52    1
    55    55    54    1
    56    56    54    1
    57    57    56    1
    58    58    19    1
    59    59    58    1
    60    60    19    1
    61    61    60    1
    62    62    50    1
    63    63    62    1
    64    64    19    1
    65    65    64    1
    66    66    54    1
    67    67    66    1
    68    68    20    1
    69    69    68    1
    70    70    33    1
    71    71    70    1
    72    72    73    1
    73    74    33    1
    74    75    74    1
    75    76    33    1
    76    77    76    1
    77    78    34    1
    78    79    78    1
    79    80    34    1
    80    81    80    1
    81    82    72    1
    82    83    82    1
    83    84    70    1
    84    85    84    1
    85    86    72    1
    86    87    86    1
    87    88    33    1
    88    89    88    1
    89    90    48    1
    90    91    90    1
    91    92    90    1
    92    93    92    1
    93    94    47    1
    94    95    94    1
    95    96    47    1
    96    97    96    1
    97    98    47    1
    98    99    98    1
    99   100    47    1
   100   101   100    1
   101   102    98    1
   102   103   102    1
   103   104    92    1
   104   105   104    1
   105   106    90    1
   106   107   106    1
   107   108    48    1
   108   109   108    1
   109    14    16   ar
   110    20    50    1
   111    20    64    1
   112    28    30   ar
   113    30    31    1
   114    34    70    1
   115    34    76    1
   116    42    44   ar
   117    44    45    1
   118    48    94    1
   119    48   100    1
   120    50    52    1
   121    50    60    1
   122    52    62    1
   123    52    68    1
   124    54    62    1
   125    54    68    1
   126    56    58    1
   127    56    60    1
   128    56    62    1
   129    56    66    1
   130    58    60    1
   131    58    64    1
   132    58    66    1
   133    60    62    1
   134    64    66    1
   135    64    68    1
   136    66    68    1
   137    70    80    1
   138    70    88    1
   139    72    74    1
   140    72    84    1
   141    72    88    1
   142    74    76    1
   143    74    86    1
   144    74    88    1
   145    76    78    1
   146    76    86    1
   147    78    80    1
   148    78    82    1
   149    78    86    1
   150    80    82    1
   151    80    84    1
   152    82    84    1
   153    82    86    1
   154    84    88    1
   155    90    94    1
   156    90   108    1
   157    92    94    1
   158    92    96    1
   159    92   106    1
   160    94    96    1
   161    96    98    1
   162    96   104    1
   163    98   100    1
   164    98   104    1
   165   100   102    1
   166   100   108    1
   167   102   104    1
   168   102   106    1
   169   102   108    1
   170   104   106    1
   171   106   108    1
@<TRIPOS>SUBSTRUCTURE
     1 RES1        1 GROUP             0 ****  ****    0  
@<TRIPOS>CRYSIN
   13.5349   11.0157   14.4578   90.0000  101.7870   90.0000     4     1
