@<TRIPOS>MOLECULE
VODHIG
   130   135     3     0     0
SMALL
USER_CHARGES
****
Generated from the CSD

@<TRIPOS>ATOM
     1 Fe1      1.5449   3.1569   1.5026   Fe        1 RES1   2.0000
     2 O1       5.0745   2.3741   5.6428   O.3       1 RES1   0.0000
     3 O2      -0.5412   7.0307   4.7388   O.3       1 RES1   0.0000
     4 O3      -1.9809   0.3565   4.6672   O.3       1 RES1   0.0000
     5 N1       1.9966   1.6483   0.4203   N.2       1 RES1   0.0000
     6 N2       2.8344   4.1751   0.5213   N.2       1 RES1   0.0000
     7 N3       0.3468   3.6682   0.0796   N.2       1 RES1   0.0000
     8 N4      -0.2165   2.2615   2.2001   N.ar      1 RES1   0.0000
     9 N5       2.9752   2.2917   2.7380   N.ar      1 RES1   0.0000
    10 N6       1.2462   4.9962   2.4190   N.ar      1 RES1   0.0000
    11 C1       2.0868   3.1010  -1.5273   C.3       1 RES1   0.0000
    12 C2       2.8308   5.4466   0.7177   C.2       1 RES1   0.0000
    13 H1       3.3612   6.0155   0.2062   H         1 RES1   0.0000
    14 C3       4.7937   0.5866   4.0385   C.ar      1 RES1   0.0000
    15 H2       5.3726   0.0144   4.4892   H         1 RES1   0.0000
    16 C4       0.4415   5.4052   3.4087   C.ar      1 RES1   0.0000
    17 C5      -1.2659   2.6988   1.4329   C.ar      1 RES1   0.0000
    18 C6       1.8682   7.3035   2.0265   C.ar      1 RES1   0.0000
    19 H3       2.3676   7.9175   1.5374   H         1 RES1   0.0000
    20 C7       2.7789   0.7657   0.9308   C.2       1 RES1   0.0000
    21 H4       2.9900  -0.0187   0.4775   H         1 RES1   0.0000
    22 C8       0.8777   4.0188  -1.2513   C.3       1 RES1   0.0000
    23 H5       1.1529   4.9486  -1.2661   H         1 RES1   0.0000
    24 H6       0.1968   3.8875  -1.9281   H         1 RES1   0.0000
    25 C9       1.0192   7.7424   3.0267   C.ar      1 RES1   0.0000
    26 H7       0.9317   8.6474   3.2231   H         1 RES1   0.0000
    27 C10      0.3082   6.7849   3.7187   C.ar      1 RES1   0.0000
    28 C11      3.3229   3.6531  -0.7600   C.3       1 RES1   0.0000
    29 H8       3.9704   2.9458  -0.6113   H         1 RES1   0.0000
    30 H9       3.7492   4.3597  -1.2697   H         1 RES1   0.0000
    31 C12     -0.5020   1.4519   3.2383   C.ar      1 RES1   0.0000
    32 C13     -0.3084   4.4306   4.2454   C.3       1 RES1   0.0000
    33 H10      0.1800   3.6053   4.2902   H         1 RES1   0.0000
    34 H11     -1.1716   4.2719   3.8561   H         1 RES1   0.0000
    35 H12     -0.4180   4.7859   5.1295   H         1 RES1   0.0000
    36 C14      1.9753   5.9563   1.7548   C.ar      1 RES1   0.0000
    37 C15      3.5998   2.6930   3.8540   C.ar      1 RES1   0.0000
    38 C16      1.7606   1.6741  -1.0310   C.3       1 RES1   0.0000
    39 H13      0.8361   1.4542  -1.2227   H         1 RES1   0.0000
    40 H14      2.3301   1.0266  -1.4759   H         1 RES1   0.0000
    41 C17     -0.8927   3.4166   0.2387   C.2       1 RES1   0.0000
    42 H15     -1.5278   3.6844  -0.3871   H         1 RES1   0.0000
    43 C18      3.3465   4.0598   4.4154   C.3       1 RES1   0.0000
    44 H16      3.3143   4.6995   3.7006   H         1 RES1   0.0000
    45 H17      4.0529   4.2935   5.0210   H         1 RES1   0.0000
    46 H18      2.5082   4.0631   4.8835   H         1 RES1   0.0000
    47 C19      4.5217   1.8506   4.5207   C.ar      1 RES1   0.0000
    48 C20      3.3092   1.0473   2.2323   C.ar      1 RES1   0.0000
    49 C21      4.1830   0.2006   2.8715   C.ar      1 RES1   0.0000
    50 H19      4.3622  -0.6378   2.5105   H         1 RES1   0.0000
    51 C22     -0.8723   8.4018   5.0293   C.3       1 RES1   0.0000
    52 H20     -1.2260   8.8404   4.2396   H         1 RES1   0.0000
    53 H21     -0.0862   8.8850   5.3284   H         1 RES1   0.0000
    54 C23      6.2495   1.7273   6.1688   C.3       1 RES1   0.0000
    55 H22      6.9266   1.6471   5.4804   H         1 RES1   0.0000
    56 H23      6.0306   0.8394   6.4896   H         1 RES1   0.0000
    57 C24     -1.9143   8.3576   6.1232   C.3       1 RES1   0.0000
    58 H24     -2.6657   7.8239   5.8204   H         1 RES1   0.0000
    59 H25     -2.2364   9.2579   6.2870   H         1 RES1   0.0000
    60 C25     -1.3874   7.7745   7.4316   C.3       1 RES1   0.0000
    61 H26     -1.0310   6.8894   7.2565   H         1 RES1   0.0000
    62 H27     -0.6580   8.3292   7.7485   H         1 RES1   0.0000
    63 C26      5.7584   2.6798   8.4477   C.3       1 RES1   0.0000
    64 H28      4.9752   3.1604   8.1392   H         1 RES1   0.0000
    65 H29      5.4757   1.7839   8.6890   H         1 RES1   0.0000
    66 C27      2.4064   3.0547  -3.0231   C.3       1 RES1   0.0000
    67 H30      1.6740   2.6492  -3.4944   H         1 RES1   0.0000
    68 H31      3.2037   2.5384  -3.1652   H         1 RES1   0.0000
    69 H32      2.5420   3.9479  -3.3497   H         1 RES1   0.0000
    70 C28     -1.8459   1.1252   3.5628   C.ar      1 RES1   0.0000
    71 C29      6.2925   3.3706   9.6874   C.3       1 RES1   0.0000
    72 H33      6.5592   4.2733   9.4559   H         1 RES1   0.0000
    73 H34      7.0804   2.8983   9.9985   H         1 RES1   0.0000
    74 C30      0.5785   0.9120   4.1242   C.3       1 RES1   0.0000
    75 H35      1.1435   1.6313   4.4132   H         1 RES1   0.0000
    76 H36      1.1004   0.2707   3.6355   H         1 RES1   0.0000
    77 H37      0.1837   0.4867   4.8871   H         1 RES1   0.0000
    78 C31     -2.8910   1.5967   2.7973   C.ar      1 RES1   0.0000
    79 H38     -3.7736   1.3880   3.0061   H         1 RES1   0.0000
    80 C32     -2.5789   2.3898   1.7128   C.ar      1 RES1   0.0000
    81 H39     -3.2581   2.7169   1.1684   H         1 RES1   0.0000
    82 C33      5.2746   3.4273  10.8102   C.3       1 RES1   0.0000
    83 H40      4.9433   2.5312  10.9788   H         1 RES1   0.0000
    84 H41      4.5234   3.9695  10.5230   H         1 RES1   0.0000
    85 C34     -3.3015   0.0903   5.1866   C.3       1 RES1   0.0000
    86 H42     -3.7398  -0.6033   4.6701   H         1 RES1   0.0000
    87 H43     -3.8467   0.8912   5.1584   H         1 RES1   0.0000
    88 C35     -1.8980   7.1116   9.8278   C.3       1 RES1   0.0000
    89 H44     -1.5203   6.2343   9.6621   H         1 RES1   0.0000
    90 H45     -1.1847   7.6857  10.1468   H         1 RES1   0.0000
    91 C36      6.7546   2.5830   7.3028   C.3       1 RES1   0.0000
    92 H46      6.9416   3.4742   6.9707   H         1 RES1   0.0000
    93 H47      7.5865   2.2101   7.6363   H         1 RES1   0.0000
    94 C37     -2.4317   7.6715   8.5251   C.3       1 RES1   0.0000
    95 H48     -2.7988   8.5539   8.6926   H         1 RES1   0.0000
    96 H49     -3.1550   7.1054   8.2151   H         1 RES1   0.0000
    97 C38     -2.2045  -1.4268   6.9389   C.3       1 RES1   0.0000
    98 H50     -1.3385  -1.2382   6.5439   H         1 RES1   0.0000
    99 H51     -2.5401  -2.2461   6.5439   H         1 RES1   0.0000
   100 C39     -1.1248  -3.2180  10.1168   C.3       1 RES1   0.0000
   101 H52     -0.6936  -2.5067  10.5954   H         1 RES1   0.0000
   102 H53     -0.6055  -4.0214  10.2011   H         1 RES1   0.0000
   103 H54     -2.0021  -3.3648  10.4796   H         1 RES1   0.0000
   104 C40      5.8233   3.9954  12.1071   C.3       1 RES1   0.0000
   105 H55      5.1252   4.0199  12.7658   H         1 RES1   0.0000
   106 H56      6.1506   4.8852  11.9555   H         1 RES1   0.0000
   107 H57      6.5405   3.4411  12.4222   H         1 RES1   0.0000
   108 C41     -3.0901  -0.3700   6.6365   C.3       1 RES1   0.0000
   109 H58     -2.7950   0.4046   7.1407   H         1 RES1   0.0000
   110 H59     -3.9592  -0.6177   6.9888   H         1 RES1   0.0000
   111 C42     -2.9504   6.9931  10.9079   C.3       1 RES1   0.0000
   112 H60     -2.5626   6.5972  11.6914   H         1 RES1   0.0000
   113 H61     -3.6705   6.4417  10.5954   H         1 RES1   0.0000
   114 H62     -3.2880   7.8656  11.1235   H         1 RES1   0.0000
   115 C43     -1.2391  -2.8508   8.6847   C.3       1 RES1   0.0000
   116 H63     -0.3506  -2.7169   8.3200   H         1 RES1   0.0000
   117 H64     -1.6496  -3.5837   8.2006   H         1 RES1   0.0000
   118 C44     -2.0296  -1.6371   8.4799   C.3       1 RES1   0.0000
   119 H65     -1.5765  -0.8740   8.8699   H         1 RES1   0.0000
   120 H66     -2.8963  -1.7292   8.9024   H         1 RES1   0.0000
   121 Cl1     15.4756   6.4877   2.0947   Cl        2 RES2   0.0000
   122 O4      15.1582   5.4813   3.0592   O.3       2 RES2  -1.0000
   123 O5      15.5742   7.7723   2.7261   O.2       2 RES2   0.0000
   124 O6      14.4209   6.5587   1.1048   O.2       2 RES2   0.0000
   125 O7      16.7162   6.1756   1.4593   O.2       2 RES2   0.0000
   126 Cl2      7.3100   4.4150   3.3922   Cl        3 RES3   0.0000
   127 O8       6.5992   3.3952   2.6667   O.3       3 RES3  -1.0000
   128 O9       6.4561   5.0811   4.3213   O.2       3 RES3   0.0000
   129 O10      8.3916   3.7785   4.1083   O.2       3 RES3   0.0000
   130 O11      7.8463   5.3653   2.4508   O.2       3 RES3   0.0000
@<TRIPOS>BOND
     1     1     5    1
     2     2    47    1
     3     3    27    1
     4     4    70    1
     5     5    20    2
     6     6     1    1
     7     7     1    1
     8     8     1    1
     9     9     1    1
    10    10     1    1
    11    11    22    1
    12    12     6    2
    13    13    12    1
    14    14    15    1
    15    16    10   ar
    16    17     8   ar
    17    18    19    1
    18    20    21    1
    19    22     7    1
    20    23    22    1
    21    24    22    1
    22    25    18   ar
    23    26    25    1
    24    27    16   ar
    25    28     6    1
    26    29    28    1
    27    30    28    1
    28    31     8   ar
    29    32    16    1
    30    33    32    1
    31    34    32    1
    32    35    32    1
    33    36    10   ar
    34    37     9   ar
    35    38     5    1
    36    39    38    1
    37    40    38    1
    38    41     7    2
    39    42    41    1
    40    43    37    1
    41    44    43    1
    42    45    43    1
    43    46    43    1
    44    47    14   ar
    45    48     9   ar
    46    49    14   ar
    47    50    49    1
    48    51     3    1
    49    52    51    1
    50    53    51    1
    51    54     2    1
    52    55    54    1
    53    56    54    1
    54    57    51    1
    55    58    57    1
    56    59    57    1
    57    60    57    1
    58    61    60    1
    59    62    60    1
    60    63    64    1
    61    65    63    1
    62    66    11    1
    63    67    66    1
    64    68    66    1
    65    69    66    1
    66    70    31   ar
    67    71    63    1
    68    72    71    1
    69    73    71    1
    70    74    31    1
    71    75    74    1
    72    76    74    1
    73    77    74    1
    74    78    70   ar
    75    79    78    1
    76    80    17   ar
    77    81    80    1
    78    82    71    1
    79    83    82    1
    80    84    82    1
    81    85     4    1
    82    86    85    1
    83    87    85    1
    84    88    89    1
    85    90    88    1
    86    91    54    1
    87    92    91    1
    88    93    91    1
    89    94    60    1
    90    95    94    1
    91    96    94    1
    92    97    98    1
    93    99    97    1
    94   100   101    1
    95   102   100    1
    96   103   100    1
    97   104    82    1
    98   105   104    1
    99   106   104    1
   100   107   104    1
   101   108    85    1
   102   109   108    1
   103   110   108    1
   104   111    88    1
   105   112   111    1
   106   113   111    1
   107   114   111    1
   108   115   100    1
   109   116   115    1
   110   117   115    1
   111   118    97    1
   112   119   118    1
   113   120   118    1
   114    11    28    1
   115    11    38    1
   116    12    36    1
   117    17    41    1
   118    18    36   ar
   119    20    48    1
   120    25    27   ar
   121    37    47   ar
   122    48    49   ar
   123    63    91    1
   124    78    80   ar
   125    88    94    1
   126    97   108    1
   127   115   118    1
   128   121   122    1
   129   123   121    2
   130   124   121    2
   131   125   121    2
   132   126   127    1
   133   128   126    2
   134   129   126    2
   135   130   126    2
@<TRIPOS>SUBSTRUCTURE
     1 RES1        1 GROUP             0 ****  ****    0  
     2 RES2      121 GROUP             0 ****  ****    0  
     3 RES3      126 GROUP             0 ****  ****    0  
@<TRIPOS>CRYSIN
   18.7460   14.3980   36.1740   90.0000   90.0000   90.0000    61     1
