@<TRIPOS>MOLECULE
VOTTEG
   149   157     5     0     0
SMALL
USER_CHARGES
****
Generated from the CSD

@<TRIPOS>ATOM
     1 Fe1      3.3497  13.9795  20.0476   Fe        1 RES1   2.0000
     2 N1       3.4482  16.4549  22.0402   N.pl3     1 RES1   0.0000
     3 N2       3.3804  16.7896  19.9331   N.pl3     1 RES1   0.0000
     4 N3       3.3912  15.0902  18.4818   N.ar      1 RES1   0.0000
     5 N4       3.3850  13.1482  17.3583   N.pl3     1 RES1   0.0000
     6 N5       3.4227  11.2728  18.3444   N.pl3     1 RES1   0.0000
     7 N6       5.2709  13.7614  20.3454   N.ar      1 RES1   0.0000
     8 N7       3.2703  12.8971  21.5556   N.ar      1 RES1   0.0000
     9 N8       1.4062  13.8587  20.2176   N.ar      1 RES1   0.0000
    10 N9       2.8083   8.4119  26.9584   N.ar      1 RES1   0.0000
    11 C1       3.5354  15.8878  23.3759   C.ar      1 RES1   0.0000
    12 C2       4.7914  15.7102  23.9689   C.ar      1 RES1   0.0000
    13 C3       4.8240  15.1807  25.2371   C.ar      1 RES1   0.0000
    14 H1       5.6617  15.0577  25.6662   H         1 RES1   0.0000
    15 C4       3.6593  14.8220  25.9121   C.ar      1 RES1   0.0000
    16 H2       3.7080  14.4309  26.7752   H         1 RES1   0.0000
    17 C5       2.4331  15.0406  25.3142   C.ar      1 RES1   0.0000
    18 H3       1.6417  14.8101  25.7867   H         1 RES1   0.0000
    19 C6       2.3239  15.5838  24.0509   C.ar      1 RES1   0.0000
    20 C7       0.9757  15.9903  23.4868   C.3       1 RES1   0.0000
    21 H4       1.0002  15.8861  22.4935   H         1 RES1   0.0000
    22 C8      -0.1502  15.1243  24.0388   C.3       1 RES1   0.0000
    23 H5       0.0328  14.1832  23.8363   H         1 RES1   0.0000
    24 H6      -0.9984  15.3891  23.6266   H         1 RES1   0.0000
    25 H7      -0.2076  15.2456  25.0104   H         1 RES1   0.0000
    26 C9       0.6786  17.4523  23.8195   C.3       1 RES1   0.0000
    27 H8       1.3973  18.0211  23.4723   H         1 RES1   0.0000
    28 H9       0.6183  17.5617  24.7910   H         1 RES1   0.0000
    29 H10     -0.1714  17.7154  23.4096   H         1 RES1   0.0000
    30 C10      6.0910  16.1748  23.3059   C.3       1 RES1   0.0000
    31 H11      6.0049  16.0313  22.3199   H         1 RES1   0.0000
    32 C11      6.3589  17.6607  23.5518   C.3       1 RES1   0.0000
    33 H12      5.5901  18.1868  23.2505   H         1 RES1   0.0000
    34 H13      7.1584  17.9340  23.0576   H         1 RES1   0.0000
    35 H14      6.5018  17.8110  24.5114   H         1 RES1   0.0000
    36 C12      7.3267  15.4096  23.7953   C.3       1 RES1   0.0000
    37 H15      8.1232  15.7461  23.3300   H         1 RES1   0.0000
    38 H16      7.2171  14.4548  23.6049   H         1 RES1   0.0000
    39 H17      7.4325  15.5428  24.7597   H         1 RES1   0.0000
    40 C13      3.3960  15.7836  20.8637   C.3       1 RES1   0.0000
    41 C14      3.4528  17.8401  21.8353   C.2       1 RES1   0.0000
    42 H18      3.4769  18.5096  22.5079   H         1 RES1   0.0000
    43 C15      3.4173  18.0467  20.5093   C.2       1 RES1   0.0000
    44 H19      3.4173  18.8836  20.0609   H         1 RES1   0.0000
    45 C16      3.4027  16.4207  18.5854   C.ar      1 RES1   0.0000
    46 C17      3.4220  17.2713  17.4981   C.ar      1 RES1   0.0000
    47 H20      3.4164  18.2175  17.5970   H         1 RES1   0.0000
    48 C18      3.4494  16.6598  16.2445   C.ar      1 RES1   0.0000
    49 H21      3.4856  17.2064  15.4682   H         1 RES1   0.0000
    50 C19      3.4267  15.2883  16.0926   C.ar      1 RES1   0.0000
    51 H22      3.4219  14.8886  15.2295   H         1 RES1   0.0000
    52 C20      3.4108  14.5078  17.2474   C.ar      1 RES1   0.0000
    53 C21      3.3705  12.6085  18.6144   C.3       1 RES1   0.0000
    54 C22      3.4501  12.1968  16.3530   C.2       1 RES1   0.0000
    55 H23      3.4748  12.3557  15.4151   H         1 RES1   0.0000
    56 C23      3.4706  11.0268  16.9605   C.2       1 RES1   0.0000
    57 H24      3.5104  10.1763  16.5386   H         1 RES1   0.0000
    58 C24      3.3746  10.1899  19.3111   C.ar      1 RES1   0.0000
    59 C25      2.1216   9.6587  19.6583   C.ar      1 RES1   0.0000
    60 C26      2.1008   8.6032  20.5865   C.ar      1 RES1   0.0000
    61 H25      1.2745   8.2257  20.8685   H         1 RES1   0.0000
    62 C27      3.3143   8.1130  21.0928   C.ar      1 RES1   0.0000
    63 H26      3.2967   7.4196  21.7437   H         1 RES1   0.0000
    64 C28      4.4883   8.5947  20.6877   C.ar      1 RES1   0.0000
    65 H27      5.2843   8.1984  21.0228   H         1 RES1   0.0000
    66 C29      4.5974   9.6639  19.7836   C.ar      1 RES1   0.0000
    67 C30      5.9416  10.1233  19.2581   C.3       1 RES1   0.0000
    68 H28      5.8882  11.1088  19.0917   H         1 RES1   0.0000
    69 C31      6.2928   9.4299  17.9297   C.3       1 RES1   0.0000
    70 H29      5.5799   9.5938  17.2787   H         1 RES1   0.0000
    71 H30      6.3830   8.4648  18.0792   H         1 RES1   0.0000
    72 H31      7.1384   9.7885  17.5873   H         1 RES1   0.0000
    73 C32      7.0824   9.8705  20.2369   C.3       1 RES1   0.0000
    74 H32      6.8847  10.3095  21.0903   H         1 RES1   0.0000
    75 H33      7.9146  10.2309  19.8680   H         1 RES1   0.0000
    76 H34      7.1804   8.9055  20.3815   H         1 RES1   0.0000
    77 C33      0.8388  10.1079  18.9977   C.3       1 RES1   0.0000
    78 H35      0.9316  11.0747  18.7614   H         1 RES1   0.0000
    79 C34     -0.3991   9.9508  19.8897   C.3       1 RES1   0.0000
    80 H36     -0.2735  10.4615  20.7167   H         1 RES1   0.0000
    81 H37     -0.5265   9.0046  20.1067   H         1 RES1   0.0000
    82 H38     -1.1883  10.2873  19.4148   H         1 RES1   0.0000
    83 C35      0.6062   9.3120  17.6958   C.3       1 RES1   0.0000
    84 H39     -0.2250   9.6160  17.2739   H         1 RES1   0.0000
    85 H40      0.5366   8.3572  17.9056   H         1 RES1   0.0000
    86 H41      1.3574   9.4606  17.0859   H         1 RES1   0.0000
    87 C36      6.2641  14.2943  19.6294   C.ar      1 RES1   0.0000
    88 H42      6.0468  14.8408  18.8844   H         1 RES1   0.0000
    89 C37      7.6137  14.0756  19.9331   C.ar      1 RES1   0.0000
    90 H43      8.2998  14.4616  19.4027   H         1 RES1   0.0000
    91 C38      7.9211  13.2985  21.0036   C.ar      1 RES1   0.0000
    92 H44      8.8303  13.1396  21.2326   H         1 RES1   0.0000
    93 C39      6.9015  12.7331  21.7630   C.ar      1 RES1   0.0000
    94 H45      7.1054  12.1866  22.5103   H         1 RES1   0.0000
    95 C40      5.6002  12.9791  21.4158   C.ar      1 RES1   0.0000
    96 C41      4.4248  12.4377  22.1101   C.ar      1 RES1   0.0000
    97 C42      4.3732  11.5717  23.1830   C.ar      1 RES1   0.0000
    98 H46      5.1783  11.2199  23.5446   H         1 RES1   0.0000
    99 C43      3.1534  11.2113  23.7375   C.ar      1 RES1   0.0000
   100 C44      1.9948  11.7305  23.1806   C.ar      1 RES1   0.0000
   101 H47      1.1494  11.5239  23.5639   H         1 RES1   0.0000
   102 C45      2.0676  12.5470  22.0716   C.ar      1 RES1   0.0000
   103 C46      0.9785  13.1243  21.3049   C.ar      1 RES1   0.0000
   104 C47     -0.3687  12.9466  21.5556   C.ar      1 RES1   0.0000
   105 H48     -0.6405  12.4257  22.3030   H         1 RES1   0.0000
   106 C48     -1.3277  13.5171  20.7335   C.ar      1 RES1   0.0000
   107 H49     -2.2545  13.4129  20.9095   H         1 RES1   0.0000
   108 C49     -0.8770  14.2464  19.6366   C.ar      1 RES1   0.0000
   109 H50     -1.5010  14.6324  19.0339   H         1 RES1   0.0000
   110 C50      0.4702  14.4070  19.4292   C.ar      1 RES1   0.0000
   111 H51      0.7542  14.9330  18.6915   H         1 RES1   0.0000
   112 C51      3.0579  10.2497  24.8682   C.ar      1 RES1   0.0000
   113 C52      2.3662  10.5759  26.0182   C.ar      1 RES1   0.0000
   114 H52      1.9625  11.4299  26.1170   H         1 RES1   0.0000
   115 C53      2.2718   9.6348  27.0235   C.ar      1 RES1   0.0000
   116 H53      1.7955   9.8705  27.8095   H         1 RES1   0.0000
   117 C54      3.4958   8.1215  25.8349   C.ar      1 RES1   0.0000
   118 H54      3.8913   7.2607  25.7602   H         1 RES1   0.0000
   119 C55      3.6554   9.0012  24.7934   C.ar      1 RES1   0.0000
   120 H55      4.1687   8.7569  24.0316   H         1 RES1   0.0000
   121 P1      10.6089  12.8517  17.6693   P.3       2 RES2  -1.0000
   122 F1      10.5732  12.0380  16.3072   F         2 RES2   0.0000
   123 F2       9.5048  11.8808  18.2865   F         2 RES2   0.0000
   124 F3      10.6553  13.6538  19.0387   F         2 RES2   0.0000
   125 F4      11.7281  13.8075  17.0594   F         2 RES2   0.0000
   126 F5      11.7493  11.8706  18.2093   F         2 RES2   0.0000
   127 F6       9.4641  13.8160  17.1269   F         2 RES2   0.0000
   128 P2       3.4544   4.1499  24.0591   P.3       3 RES3  -1.0000
   129 F7       3.5892   3.6756  22.5128   F         3 RES3   0.0000
   130 F8       5.0636   4.0343  24.1280   F         3 RES3   0.0000
   131 F9       3.3761   2.6235  24.5307   F         3 RES3   0.0000
   132 F10      1.9199   4.1094  23.8773   F         3 RES3   0.0000
   133 F11      3.4085   4.5706  25.5553   F         3 RES3   0.0000
   134 F12      3.5437   5.6108  23.5253   F         3 RES3   0.0000
   135 C56     -1.5141   3.2896  27.1151   C.3       4 RES4   0.0000
   136 H56     -2.4287   3.4314  26.7366   H         4 RES4   0.0000
   137 Cl1     -1.4507   1.6962  27.8049   Cl        4 RES4   0.0000
   138 Cl2     -1.2322   4.5141  28.3642   Cl        4 RES4   0.0000
   139 Cl3     -0.3490   3.4860  25.8287   Cl        4 RES4   0.0000
   140 O1       6.1850  13.4625  16.8255   O.2       5 RES5   0.0000
   141 C57      6.8101  13.4505  15.8274   C.2       5 RES5   0.0000
   142 C58      7.3305  12.1388  15.2705   C.3       5 RES5   0.0000
   143 H57      7.0779  11.4060  15.8708   H         5 RES5   0.0000
   144 H58      8.3068  12.1780  15.1982   H         5 RES5   0.0000
   145 H59      6.9446  11.9816  14.3833   H         5 RES5   0.0000
   146 C59      7.0885  14.6905  15.0583   C.3       5 RES5   0.0000
   147 H60      6.7069  15.4608  15.5309   H         5 RES5   0.0000
   148 H61      6.6838  14.6205  14.1687   H         5 RES5   0.0000
   149 H62      8.0563  14.8101  14.9691   H         5 RES5   0.0000
@<TRIPOS>BOND
     1     1     4    1
     2     2    11    1
     3     3    40    1
     4     4    45   ar
     5     5    52    1
     6     6    53    1
     7     7     1    1
     8     8     1    1
     9     9     1    1
    10    10   115   ar
    11    11    12   ar
    12    12    13   ar
    13    13    14    1
    14    15    13   ar
    15    16    15    1
    16    17    15   ar
    17    18    17    1
    18    19    11   ar
    19    20    19    1
    20    21    20    1
    21    22    20    1
    22    23    22    1
    23    24    22    1
    24    25    22    1
    25    26    20    1
    26    27    26    1
    27    28    26    1
    28    29    26    1
    29    30    12    1
    30    31    30    1
    31    32    30    1
    32    33    32    1
    33    34    32    1
    34    35    32    1
    35    36    30    1
    36    37    36    1
    37    38    36    1
    38    39    36    1
    39    40     1    1
    40    41     2    1
    41    42    41    1
    42    43     3    1
    43    44    43    1
    44    45     3    1
    45    46    45   ar
    46    47    46    1
    47    48    46   ar
    48    49    48    1
    49    50    48   ar
    50    51    50    1
    51    52     4   ar
    52    53     1    1
    53    54     5    1
    54    55    54    1
    55    56     6    1
    56    57    56    1
    57    58     6    1
    58    59    58   ar
    59    60    59   ar
    60    61    60    1
    61    62    60   ar
    62    63    62    1
    63    64    62   ar
    64    65    64    1
    65    66    58   ar
    66    67    66    1
    67    68    67    1
    68    69    67    1
    69    70    69    1
    70    71    69    1
    71    72    69    1
    72    73    67    1
    73    74    73    1
    74    75    73    1
    75    76    73    1
    76    77    59    1
    77    78    77    1
    78    79    77    1
    79    80    79    1
    80    81    79    1
    81    82    79    1
    82    83    77    1
    83    84    83    1
    84    85    83    1
    85    86    83    1
    86    87     7   ar
    87    88    87    1
    88    89    87   ar
    89    90    89    1
    90    91    89   ar
    91    92    91    1
    92    93    91   ar
    93    94    93    1
    94    95     7   ar
    95    96     8   ar
    96    97    96   ar
    97    98    97    1
    98    99    97   ar
    99   100    99   ar
   100   101   100    1
   101   102     8   ar
   102   103     9   ar
   103   104   103   ar
   104   105   104    1
   105   106   104   ar
   106   107   106    1
   107   108   106   ar
   108   109   108    1
   109   110     9   ar
   110   111   110    1
   111   112    99    1
   112   113   112   ar
   113   114   113    1
   114   115   113   ar
   115   116   115    1
   116   117    10   ar
   117   118   117    1
   118   119   112   ar
   119   120   119    1
   120     2    40    1
   121     5    53    1
   122    17    19   ar
   123    41    43    2
   124    50    52   ar
   125    54    56    2
   126    64    66   ar
   127    93    95   ar
   128    95    96    1
   129   100   102   ar
   130   102   103    1
   131   108   110   ar
   132   117   119   ar
   133   121   122    1
   134   123   121    1
   135   124   121    1
   136   125   121    1
   137   126   121    1
   138   127   121    1
   139   128   129    1
   140   130   128    1
   141   131   128    1
   142   132   128    1
   143   133   128    1
   144   134   128    1
   145   135   136    1
   146   137   135    1
   147   138   135    1
   148   139   135    1
   149   140   141    2
   150   141   142    1
   151   142   143    1
   152   144   142    1
   153   145   142    1
   154   146   141    1
   155   147   146    1
   156   148   146    1
   157   149   146    1
@<TRIPOS>SUBSTRUCTURE
     1 RES1        1 GROUP             0 ****  ****    0  
     2 RES2      121 GROUP             0 ****  ****    0  
     3 RES3      128 GROUP             0 ****  ****    0  
     4 RES4      135 GROUP             0 ****  ****    0  
     5 RES5      140 GROUP             0 ****  ****    0  
@<TRIPOS>CRYSIN
   14.6380   17.0800   24.2320   90.0000   95.7810   90.0000     9     1
