@<TRIPOS>MOLECULE
VOTYOV01
   113   120     1     0     0
SMALL
NO_CHARGES
****
Generated from the CSD

@<TRIPOS>ATOM
     1 Fe1     -0.4507   7.9337  11.2235   Fe        1 RES1   0.0000
     2 N1       2.6537   6.7922   8.8063   N.pl3     1 RES1   0.0000
     3 N2       0.9465   7.3005   7.5256   N.pl3     1 RES1   0.0000
     4 N3       0.6442   7.4716   9.8992   N.2       1 RES1   0.0000
     5 C1       1.3213   7.2181   8.8749   C.2       1 RES1   0.0000
     6 C2       3.0370   6.6120   7.4809   C.2       1 RES1   0.0000
     7 H1       3.8813   6.3232   7.1854   H         1 RES1   0.0000
     8 C3       1.9988   6.9201   6.7020   C.2       1 RES1   0.0000
     9 H2       1.9820   6.8859   5.7627   H         1 RES1   0.0000
    10 C4       3.4088   6.4047   9.9536   C.ar      1 RES1   0.0000
    11 C5       3.9001   7.4038  10.7973   C.ar      1 RES1   0.0000
    12 C6       4.6296   6.9894  11.9135   C.ar      1 RES1   0.0000
    13 H3       4.9731   7.6337  12.5055   H         1 RES1   0.0000
    14 C7       4.8544   5.6603  12.1613   C.ar      1 RES1   0.0000
    15 H4       5.3566   5.4059  12.9139   H         1 RES1   0.0000
    16 C8       4.3566   4.7042  11.3265   C.ar      1 RES1   0.0000
    17 H5       4.5172   3.7980  11.5166   H         1 RES1   0.0000
    18 C9       3.6140   5.0441  10.1979   C.ar      1 RES1   0.0000
    19 C10      3.6952   8.8688  10.4971   C.3       1 RES1   0.0000
    20 H6       2.9808   8.9403   9.8154   H         1 RES1   0.0000
    21 C11      3.2477   9.6518  11.7219   C.3       1 RES1   0.0000
    22 H7       2.4636   9.2299  12.1067   H         1 RES1   0.0000
    23 H8       3.0313  10.5612  11.4629   H         1 RES1   0.0000
    24 H9       3.9628   9.6636  12.3771   H         1 RES1   0.0000
    25 C12      4.9658   9.4721   9.9051   C.3       1 RES1   0.0000
    26 H10      5.6875   9.4029  10.5493   H         1 RES1   0.0000
    27 H11      4.8113  10.4063   9.6922   H         1 RES1   0.0000
    28 H12      5.2060   8.9923   9.0972   H         1 RES1   0.0000
    29 C13      3.0177   3.9559   9.3251   C.3       1 RES1   0.0000
    30 H13      2.5115   4.4005   8.5997   H         1 RES1   0.0000
    31 C14      2.0284   3.1086  10.1214   C.3       1 RES1   0.0000
    32 H14      2.5051   2.6188  10.8096   H         1 RES1   0.0000
    33 H15      1.5872   2.4835   9.5258   H         1 RES1   0.0000
    34 H16      1.3678   3.6861  10.5332   H         1 RES1   0.0000
    35 C15      4.0971   3.1044   8.6737   C.3       1 RES1   0.0000
    36 H17      4.7068   3.6761   8.1800   H         1 RES1   0.0000
    37 H18      3.6868   2.4696   8.0659   H         1 RES1   0.0000
    38 H19      4.5889   2.6245   9.3587   H         1 RES1   0.0000
    39 C16     -0.4088   7.4938   7.1212   C.ar      1 RES1   0.0000
    40 C17     -0.7908   8.7401   6.6014   C.ar      1 RES1   0.0000
    41 C18     -2.1296   8.8932   6.2412   C.ar      1 RES1   0.0000
    42 H20     -2.4201   9.7139   5.8875   H         1 RES1   0.0000
    43 C19     -3.0296   7.8713   6.3918   C.ar      1 RES1   0.0000
    44 H21     -3.9289   8.0033   6.1521   H         1 RES1   0.0000
    45 C20     -2.6298   6.6571   6.8898   C.ar      1 RES1   0.0000
    46 H22     -3.2591   5.9646   6.9808   H         1 RES1   0.0000
    47 C21     -1.3064   6.4337   7.2629   C.ar      1 RES1   0.0000
    48 C22      0.2172   9.8531   6.4625   C.3       1 RES1   0.0000
    49 H23      1.0841   9.4339   6.2329   H         1 RES1   0.0000
    50 C23      0.4069  10.5766   7.7774   C.3       1 RES1   0.0000
    51 H24     -0.4235  11.0084   8.0315   H         1 RES1   0.0000
    52 H25      1.1030  11.2449   7.6811   H         1 RES1   0.0000
    53 H26      0.6628   9.9393   8.4627   H         1 RES1   0.0000
    54 C24     -0.1015  10.8577   5.3604   C.3       1 RES1   0.0000
    55 H27     -0.2464  10.3858   4.5251   H         1 RES1   0.0000
    56 H28      0.6414  11.4730   5.2593   H         1 RES1   0.0000
    57 H29     -0.9018  11.3524   5.5953   H         1 RES1   0.0000
    58 C25     -0.8658   5.0666   7.7382   C.3       1 RES1   0.0000
    59 H30      0.0990   5.1172   7.9539   H         1 RES1   0.0000
    60 C26     -1.6019   4.6321   8.9961   C.3       1 RES1   0.0000
    61 H31     -1.4407   5.2760   9.7035   H         1 RES1   0.0000
    62 H32     -1.2808   3.7599   9.2735   H         1 RES1   0.0000
    63 H33     -2.5532   4.5836   8.8136   H         1 RES1   0.0000
    64 C27     -1.0432   4.0323   6.6258   C.3       1 RES1   0.0000
    65 H34     -1.9806   3.9758   6.3828   H         1 RES1   0.0000
    66 H35     -0.7377   3.1658   6.9380   H         1 RES1   0.0000
    67 H36     -0.5237   4.2980   5.8510   H         1 RES1   0.0000
    68 C28     -0.7283   7.3330  13.4069   C.ar      1 RES1   0.0000
    69 C29     -0.4689   8.7165  13.3571   C.ar      1 RES1   0.0000
    70 H37      0.2723   9.1341  13.7567   H         1 RES1   0.0000
    71 C30     -1.4870   9.4039  12.6153   C.ar      1 RES1   0.0000
    72 C31     -2.4275   8.3855  12.1810   C.ar      1 RES1   0.0000
    73 C32     -1.9313   7.1367  12.6852   C.ar      1 RES1   0.0000
    74 H38     -2.3472   6.3039  12.5547   H         1 RES1   0.0000
    75 C33      0.1134   6.2578  14.0774   C.3       1 RES1   0.0000
    76 C34     -0.7195   5.5391  15.1350   C.3       1 RES1   0.0000
    77 H39     -1.0297   6.1799  15.7934   H         1 RES1   0.0000
    78 H40     -0.1756   4.8644  15.5717   H         1 RES1   0.0000
    79 H41     -1.4825   5.1144  14.7124   H         1 RES1   0.0000
    80 C35      0.6223   5.2632  13.0456   C.3       1 RES1   0.0000
    81 H42     -0.1310   4.8571  12.5891   H         1 RES1   0.0000
    82 H43      1.1413   4.5742  13.4893   H         1 RES1   0.0000
    83 H44      1.1813   5.7240  12.4006   H         1 RES1   0.0000
    84 C36      1.3140   6.8922  14.7947   C.3       1 RES1   0.0000
    85 H45      1.8777   7.3420  14.1457   H         1 RES1   0.0000
    86 H46      1.8254   6.2010  15.2432   H         1 RES1   0.0000
    87 H47      0.9972   7.5356  15.4481   H         1 RES1   0.0000
    88 C37     -1.4477  10.9387  12.4969   C.3       1 RES1   0.0000
    89 C38     -2.6791  11.5713  13.0942   C.3       1 RES1   0.0000
    90 H48     -3.4579  11.3134  12.5773   H         1 RES1   0.0000
    91 H49     -2.5856  12.5369  13.0787   H         1 RES1   0.0000
    92 H50     -2.7843  11.2713  14.0103   H         1 RES1   0.0000
    93 C39     -1.2102  11.4000  11.0876   C.3       1 RES1   0.0000
    94 H51     -0.5832  10.8018  10.6530   H         1 RES1   0.0000
    95 H52     -0.8473  12.2988  11.0983   H         1 RES1   0.0000
    96 H53     -2.0505  11.3963  10.6012   H         1 RES1   0.0000
    97 C40     -0.2964  11.5013  13.3149   C.3       1 RES1   0.0000
    98 H54     -0.3514  11.1646  14.2238   H         1 RES1   0.0000
    99 H55     -0.3501  12.4695  13.3258   H         1 RES1   0.0000
   100 H56      0.5455  11.2276  12.9196   H         1 RES1   0.0000
   101 C41     -3.7574   8.4314  11.4091   C.3       1 RES1   0.0000
   102 C42     -4.8782   8.8567  12.3547   C.3       1 RES1   0.0000
   103 H57     -5.0589   8.1406  12.9833   H         1 RES1   0.0000
   104 H58     -5.6789   9.0460  11.8410   H         1 RES1   0.0000
   105 H59     -4.6080   9.6521  12.8384   H         1 RES1   0.0000
   106 C43     -4.1501   7.0531  10.9327   C.3       1 RES1   0.0000
   107 H60     -3.4182   6.6651  10.4274   H         1 RES1   0.0000
   108 H61     -4.9348   7.1182  10.3660   H         1 RES1   0.0000
   109 H62     -4.3488   6.4908  11.6973   H         1 RES1   0.0000
   110 C44     -3.7033   9.2736  10.1784   C.3       1 RES1   0.0000
   111 H63     -3.5147  10.1929  10.4229   H         1 RES1   0.0000
   112 H64     -4.5561   9.2297   9.7182   H         1 RES1   0.0000
   113 H65     -3.0030   8.9451   9.5921   H         1 RES1   0.0000
@<TRIPOS>BOND
     1     1     4    1
     2     2     5    1
     3     3     5    1
     4     4     5    2
     5     6     2    1
     6     7     6    1
     7     8     3    1
     8     9     8    1
     9    10     2    1
    10    11    10   ar
    11    12    11   ar
    12    13    12    1
    13    14    12   ar
    14    15    14    1
    15    16    14   ar
    16    17    16    1
    17    18    10   ar
    18    19    11    1
    19    20    19    1
    20    21    19    1
    21    22    21    1
    22    23    21    1
    23    24    21    1
    24    25    19    1
    25    26    25    1
    26    27    25    1
    27    28    25    1
    28    29    18    1
    29    30    29    1
    30    31    29    1
    31    32    31    1
    32    33    31    1
    33    34    31    1
    34    35    29    1
    35    36    35    1
    36    37    35    1
    37    38    35    1
    38    39     3    1
    39    40    39   ar
    40    41    40   ar
    41    42    41    1
    42    43    41   ar
    43    44    43    1
    44    45    43   ar
    45    46    45    1
    46    47    39   ar
    47    48    40    1
    48    49    48    1
    49    50    48    1
    50    51    50    1
    51    52    50    1
    52    53    50    1
    53    54    48    1
    54    55    54    1
    55    56    54    1
    56    57    54    1
    57    58    47    1
    58    59    58    1
    59    60    58    1
    60    61    60    1
    61    62    60    1
    62    63    60    1
    63    64    58    1
    64    65    64    1
    65    66    64    1
    66    67    64    1
    67    68     1   un
    68    69     1   un
    69    70    69    1
    70    71     1   un
    71    72     1   un
    72    73     1   un
    73    74    73    1
    74    75    68    1
    75    76    75    1
    76    77    76    1
    77    78    76    1
    78    79    76    1
    79    80    75    1
    80    81    80    1
    81    82    80    1
    82    83    80    1
    83    84    75    1
    84    85    84    1
    85    86    84    1
    86    87    84    1
    87    88    71    1
    88    89    88    1
    89    90    89    1
    90    91    89    1
    91    92    89    1
    92    93    88    1
    93    94    93    1
    94    95    93    1
    95    96    93    1
    96    97    88    1
    97    98    97    1
    98    99    97    1
    99   100    97    1
   100   101    72    1
   101   102   101    1
   102   103   102    1
   103   104   102    1
   104   105   102    1
   105   106   101    1
   106   107   106    1
   107   108   106    1
   108   109   106    1
   109   110   101    1
   110   111   110    1
   111   112   110    1
   112   113   110    1
   113     6     8    2
   114    16    18   ar
   115    45    47   ar
   116    68    69   ar
   117    68    73   ar
   118    69    71   ar
   119    71    72   ar
   120    72    73   ar
@<TRIPOS>SUBSTRUCTURE
     1 RES1        1 GROUP             0 ****  ****    0  
@<TRIPOS>CRYSIN
   22.0003   10.4491   20.7099   90.0000  117.3440   90.0000    14     1
