@<TRIPOS>MOLECULE
VOTYOV
   113   120     1     0     0
SMALL
NO_CHARGES
****
Generated from the CSD

@<TRIPOS>ATOM
     1 Fe1     -0.3885   7.8973  11.2237   Fe        1 RES1   0.0000
     2 N1       2.7088   6.7309   8.7724   N.pl3     1 RES1   0.0000
     3 N2       0.9803   7.2637   7.5177   N.pl3     1 RES1   0.0000
     4 N3       0.7298   7.4401   9.9048   N.2       1 RES1   0.0000
     5 C1       1.3799   7.1764   8.8623   C.2       1 RES1   0.0000
     6 C2       3.0688   6.5310   7.4396   C.2       1 RES1   0.0000
     7 H1       3.9118   6.2224   7.1288   H         1 RES1   0.0000
     8 C3       2.0124   6.8519   6.6727   C.2       1 RES1   0.0000
     9 H2       1.9749   6.8065   5.7247   H         1 RES1   0.0000
    10 C4       3.4636   6.3329   9.9166   C.ar      1 RES1   0.0000
    11 C5       3.9594   7.3248  10.7747   C.ar      1 RES1   0.0000
    12 C6       4.6937   6.9123  11.8892   C.ar      1 RES1   0.0000
    13 H3       5.0452   7.5622  12.4863   H         1 RES1   0.0000
    14 C7       4.9158   5.5656  12.1348   C.ar      1 RES1   0.0000
    15 H4       5.4241   5.3018  12.8927   H         1 RES1   0.0000
    16 C8       4.4037   4.6075  11.2861   C.ar      1 RES1   0.0000
    17 H5       4.5619   3.6887  11.4688   H         1 RES1   0.0000
    18 C9       3.6562   4.9661  10.1621   C.ar      1 RES1   0.0000
    19 C10      3.7551   8.7977  10.4821   C.3       1 RES1   0.0000
    20 H6       3.0285   8.8738   9.7992   H         1 RES1   0.0000
    21 C11      3.3115   9.5761  11.7208   C.3       1 RES1   0.0000
    22 H7       2.4926   9.1766  12.0817   H         1 RES1   0.0000
    23 H8       3.1393  10.5092  11.4760   H         1 RES1   0.0000
    24 H9       4.0182   9.5413  12.3989   H         1 RES1   0.0000
    25 C12      5.0259   9.3962   9.8768   C.3       1 RES1   0.0000
    26 H10      5.7628   9.3144  10.5176   H         1 RES1   0.0000
    27 H11      4.8754  10.3425   9.6711   H         1 RES1   0.0000
    28 H12      5.2536   8.9152   9.0539   H         1 RES1   0.0000
    29 C13      3.0463   3.8840   9.2888   C.3       1 RES1   0.0000
    30 H13      2.5423   4.3349   8.5521   H         1 RES1   0.0000
    31 C14      2.0487   3.0460  10.0910   C.3       1 RES1   0.0000
    32 H14      2.5166   2.5946  10.8242   H         1 RES1   0.0000
    33 H15      1.6381   2.3769   9.5043   H         1 RES1   0.0000
    34 H16      1.3524   3.6298  10.4580   H         1 RES1   0.0000
    35 C15      4.1196   3.0070   8.6492   C.3       1 RES1   0.0000
    36 H17      4.7218   3.5654   8.1145   H         1 RES1   0.0000
    37 H18      3.6943   2.3392   8.0715   H         1 RES1   0.0000
    38 H19      4.6316   2.5533   9.3509   H         1 RES1   0.0000
    39 C16     -0.3884   7.4468   7.1534   C.ar      1 RES1   0.0000
    40 C17     -0.7964   8.6854   6.6262   C.ar      1 RES1   0.0000
    41 C18     -2.1493   8.8454   6.3231   C.ar      1 RES1   0.0000
    42 H20     -2.4544   9.6685   5.9599   H         1 RES1   0.0000
    43 C19     -3.0562   7.8159   6.5459   C.ar      1 RES1   0.0000
    44 H21     -3.9774   7.9495   6.3561   H         1 RES1   0.0000
    45 C20     -2.6278   6.6004   7.0409   C.ar      1 RES1   0.0000
    46 H22     -3.2568   5.9016   7.1776   H         1 RES1   0.0000
    47 C21     -1.2796   6.3851   7.3438   C.ar      1 RES1   0.0000
    48 C22      0.2197   9.7916   6.4063   C.3       1 RES1   0.0000
    49 H23      1.0749   9.3581   6.1224   H         1 RES1   0.0000
    50 C23      0.4989  10.5377   7.7127   C.3       1 RES1   0.0000
    51 H24     -0.3132  11.0030   8.0032   H         1 RES1   0.0000
    52 H25      1.2157  11.1904   7.5693   H         1 RES1   0.0000
    53 H26      0.7731   9.8976   8.4022   H         1 RES1   0.0000
    54 C24     -0.1798  10.7753   5.3046   C.3       1 RES1   0.0000
    55 H27     -0.4021  10.2795   4.4890   H         1 RES1   0.0000
    56 H28      0.5665  11.3840   5.1239   H         1 RES1   0.0000
    57 H29     -0.9600  11.2922   5.5955   H         1 RES1   0.0000
    58 C25     -0.8173   5.0139   7.8023   C.3       1 RES1   0.0000
    59 H30      0.1664   5.0661   7.9749   H         1 RES1   0.0000
    60 C26     -1.4959   4.5779   9.1017   C.3       1 RES1   0.0000
    61 H31     -1.2709   5.2099   9.8159   H         1 RES1   0.0000
    62 H32     -1.1846   3.6819   9.3482   H         1 RES1   0.0000
    63 H33     -2.4674   4.5622   8.9735   H         1 RES1   0.0000
    64 C27     -1.0430   3.9787   6.6934   C.3       1 RES1   0.0000
    65 H34     -2.0032   3.8919   6.5181   H         1 RES1   0.0000
    66 H35     -0.6831   3.1124   6.9771   H         1 RES1   0.0000
    67 H36     -0.5868   4.2702   5.8765   H         1 RES1   0.0000
    68 C28     -0.6057   7.2890  13.4327   C.ar      1 RES1   0.0000
    69 C29     -0.3369   8.6762  13.3752   C.ar      1 RES1   0.0000
    70 H37      0.4216   9.0945  13.7656   H         1 RES1   0.0000
    71 C30     -1.3627   9.3674  12.6480   C.ar      1 RES1   0.0000
    72 C31     -2.3163   8.3498  12.2159   C.ar      1 RES1   0.0000
    73 C32     -1.8177   7.0925  12.7206   C.ar      1 RES1   0.0000
    74 H38     -2.2413   6.2517  12.5938   H         1 RES1   0.0000
    75 C33      0.2406   6.2121  14.0929   C.3       1 RES1   0.0000
    76 C34     -0.6050   5.4644  15.1343   C.3       1 RES1   0.0000
    77 H39     -0.9316   6.0987  15.8061   H         1 RES1   0.0000
    78 H40     -0.0556   4.7803  15.5708   H         1 RES1   0.0000
    79 H41     -1.3671   5.0372  14.6904   H         1 RES1   0.0000
    80 C35      0.7497   5.2145  13.0416   C.3       1 RES1   0.0000
    81 H42     -0.0137   4.8086  12.5801   H         1 RES1   0.0000
    82 H43      1.2744   4.5144  13.4830   H         1 RES1   0.0000
    83 H44      1.3126   5.6841  12.3914   H         1 RES1   0.0000
    84 C36      1.4479   6.8418  14.8003   C.3       1 RES1   0.0000
    85 H45      2.0083   7.3032  14.1418   H         1 RES1   0.0000
    86 H46      1.9715   6.1399  15.2402   H         1 RES1   0.0000
    87 H47      1.1351   7.4846  15.4706   H         1 RES1   0.0000
    88 C37     -1.3200  10.9005  12.5062   C.3       1 RES1   0.0000
    89 C38     -2.6123  11.5492  13.0206   C.3       1 RES1   0.0000
    90 H48     -3.3710  11.2344  12.4861   H         1 RES1   0.0000
    91 H49     -2.5412  12.5236  12.9449   H         1 RES1   0.0000
    92 H50     -2.7497  11.3036  13.9593   H         1 RES1   0.0000
    93 C39     -1.0174  11.3336  11.0661   C.3       1 RES1   0.0000
    94 H51     -0.1436  10.9815  10.7959   H         1 RES1   0.0000
    95 H52     -1.0051  12.3122  11.0150   H         1 RES1   0.0000
    96 H53     -1.7099  10.9839  10.4674   H         1 RES1   0.0000
    97 C40     -0.1860  11.4851  13.3631   C.3       1 RES1   0.0000
    98 H54     -0.3096  11.2151  14.2969   H         1 RES1   0.0000
    99 H55     -0.2006  12.4631  13.3012   H         1 RES1   0.0000
   100 H56      0.6756  11.1502  13.0374   H         1 RES1   0.0000
   101 C41     -3.6761   8.4000  11.4983   C.3       1 RES1   0.0000
   102 C42     -4.7876   8.6685  12.5432   C.3       1 RES1   0.0000
   103 H57     -4.7873   7.9523  13.2120   H         1 RES1   0.0000
   104 H58     -5.6583   8.6958  12.0942   H         1 RES1   0.0000
   105 H59     -4.6206   9.5276  12.9843   H         1 RES1   0.0000
   106 C43     -3.9908   7.0394  10.8595   C.3       1 RES1   0.0000
   107 H60     -3.2791   6.8019  10.2291   H         1 RES1   0.0000
   108 H61     -4.8453   7.0922  10.3826   H         1 RES1   0.0000
   109 H62     -4.0490   6.3557  11.5592   H         1 RES1   0.0000
   110 C44     -3.7755   9.4258  10.3732   C.3       1 RES1   0.0000
   111 H63     -3.6444  10.3255  10.7389   H         1 RES1   0.0000
   112 H64     -4.6605   9.3685   9.9562   H         1 RES1   0.0000
   113 H65     -3.0856   9.2423   9.7018   H         1 RES1   0.0000
@<TRIPOS>BOND
     1     1     4    1
     2     2     5    1
     3     3     5    1
     4     4     5    2
     5     6     2    1
     6     7     6    1
     7     8     3    1
     8     9     8    1
     9    10     2    1
    10    11    10   ar
    11    12    11   ar
    12    13    12    1
    13    14    12   ar
    14    15    14    1
    15    16    14   ar
    16    17    16    1
    17    18    10   ar
    18    19    11    1
    19    20    19    1
    20    21    19    1
    21    22    21    1
    22    23    21    1
    23    24    21    1
    24    25    19    1
    25    26    25    1
    26    27    25    1
    27    28    25    1
    28    29    18    1
    29    30    29    1
    30    31    29    1
    31    32    31    1
    32    33    31    1
    33    34    31    1
    34    35    29    1
    35    36    35    1
    36    37    35    1
    37    38    35    1
    38    39     3    1
    39    40    39   ar
    40    41    40   ar
    41    42    41    1
    42    43    41   ar
    43    44    43    1
    44    45    43   ar
    45    46    45    1
    46    47    39   ar
    47    48    40    1
    48    49    48    1
    49    50    48    1
    50    51    50    1
    51    52    50    1
    52    53    50    1
    53    54    48    1
    54    55    54    1
    55    56    54    1
    56    57    54    1
    57    58    47    1
    58    59    58    1
    59    60    58    1
    60    61    60    1
    61    62    60    1
    62    63    60    1
    63    64    58    1
    64    65    64    1
    65    66    64    1
    66    67    64    1
    67    68     1   un
    68    69     1   un
    69    70    69    1
    70    71     1   un
    71    72     1   un
    72    73     1   un
    73    74    73    1
    74    75    68    1
    75    76    75    1
    76    77    76    1
    77    78    76    1
    78    79    76    1
    79    80    75    1
    80    81    80    1
    81    82    80    1
    82    83    80    1
    83    84    75    1
    84    85    84    1
    85    86    84    1
    86    87    84    1
    87    88    71    1
    88    89    88    1
    89    90    89    1
    90    91    89    1
    91    92    89    1
    92    93    88    1
    93    94    93    1
    94    95    93    1
    95    96    93    1
    96    97    88    1
    97    98    97    1
    98    99    97    1
    99   100    97    1
   100   101    72    1
   101   102   101    1
   102   103   102    1
   103   104   102    1
   104   105   102    1
   105   106   101    1
   106   107   106    1
   107   108   106    1
   108   109   106    1
   109   110   101    1
   110   111   110    1
   111   112   110    1
   112   113   110    1
   113     6     8    2
   114    16    18   ar
   115    45    47   ar
   116    68    69   ar
   117    68    73   ar
   118    69    71   ar
   119    71    72   ar
   120    72    73   ar
@<TRIPOS>SUBSTRUCTURE
     1 RES1        1 GROUP             0 ****  ****    0  
@<TRIPOS>CRYSIN
   21.7096   10.3922   20.5125   90.0000  116.7040   90.0000    14     1
