@<TRIPOS>MOLECULE
VOTYOV02
   113   120     1     0     0
SMALL
NO_CHARGES
****
Generated from the CSD

@<TRIPOS>ATOM
     1 Fe1     12.8822   7.8998   7.1038   Fe        1 RES1   0.0000
     2 N1      11.7572   7.4396   8.4167   N.2       1 RES1   0.0000
     3 N2       9.7757   6.7331   9.5490   N.pl3     1 RES1   0.0000
     4 N3      11.5025   7.2652  10.8036   N.pl3     1 RES1   0.0000
     5 C1      11.1053   7.1729   9.4598   C.2       1 RES1   0.0000
     6 C2       9.4207   6.5374  10.8826   C.2       1 RES1   0.0000
     7 H1       8.5779   6.2299  11.1951   H         1 RES1   0.0000
     8 C3      10.4701   6.8568  11.6460   C.2       1 RES1   0.0000
     9 H2      10.5060   6.8134  12.5942   H         1 RES1   0.0000
    10 C4       9.0227   6.3366   8.4005   C.ar      1 RES1   0.0000
    11 C5       8.8308   4.9701   8.1556   C.ar      1 RES1   0.0000
    12 C6       8.0854   4.6156   7.0320   C.ar      1 RES1   0.0000
    13 H3       7.9287   3.6976   6.8466   H         1 RES1   0.0000
    14 C7       7.5727   5.5731   6.1869   C.ar      1 RES1   0.0000
    15 H4       7.0640   5.3098   5.4290   H         1 RES1   0.0000
    16 C8       7.7921   6.9141   6.4324   C.ar      1 RES1   0.0000
    17 H5       7.4392   7.5640   5.8362   H         1 RES1   0.0000
    18 C9       8.5277   7.3275   7.5483   C.ar      1 RES1   0.0000
    19 C10      9.4397   3.8865   9.0293   C.3       1 RES1   0.0000
    20 H6       9.9430   4.3368   9.7668   H         1 RES1   0.0000
    21 C11      8.3650   3.0085   9.6678   C.3       1 RES1   0.0000
    22 H7       7.7674   3.5650  10.2095   H         1 RES1   0.0000
    23 H8       8.7902   2.3344  10.2384   H         1 RES1   0.0000
    24 H9       7.8478   2.5619   8.9651   H         1 RES1   0.0000
    25 C12     10.4368   3.0501   8.2281   C.3       1 RES1   0.0000
    26 H10      9.9703   2.6021   7.4918   H         1 RES1   0.0000
    27 H11     10.8441   2.3777   8.8136   H         1 RES1   0.0000
    28 H12     11.1357   3.6334   7.8653   H         1 RES1   0.0000
    29 C13      8.7309   8.8009   7.8383   C.3       1 RES1   0.0000
    30 H13      9.4561   8.8776   8.5226   H         1 RES1   0.0000
    31 C14      7.4599   9.3997   8.4418   C.3       1 RES1   0.0000
    32 H14      6.7233   9.3166   7.8006   H         1 RES1   0.0000
    33 H15      7.6097  10.3462   8.6464   H         1 RES1   0.0000
    34 H16      7.2316   8.9196   9.2651   H         1 RES1   0.0000
    35 C15      9.1768   9.5785   6.6031   C.3       1 RES1   0.0000
    36 H17      9.9963   9.1783   6.2440   H         1 RES1   0.0000
    37 H18      9.3489  10.5110   6.8487   H         1 RES1   0.0000
    38 H19      8.4716   9.5439   5.9235   H         1 RES1   0.0000
    39 C16     12.8773   7.4529  11.1698   C.ar      1 RES1   0.0000
    40 C17     13.2772   8.6877  11.7002   C.ar      1 RES1   0.0000
    41 C18     14.6284   8.8467  12.0016   C.ar      1 RES1   0.0000
    42 H20     14.9335   9.6726  12.3593   H         1 RES1   0.0000
    43 C19     15.5337   7.8206  11.7874   C.ar      1 RES1   0.0000
    44 H21     16.4537   7.9543  11.9828   H         1 RES1   0.0000
    45 C20     15.1095   6.6095  11.2942   C.ar      1 RES1   0.0000
    46 H22     15.7400   5.9112  11.1612   H         1 RES1   0.0000
    47 C21     13.7638   6.3907  10.9855   C.ar      1 RES1   0.0000
    48 C22     12.2611   9.7970  11.9123   C.3       1 RES1   0.0000
    49 H23     11.4045   9.3645  12.1936   H         1 RES1   0.0000
    50 C23     12.6559  10.7792  13.0147   C.3       1 RES1   0.0000
    51 H24     12.8807  10.2835  13.8293   H         1 RES1   0.0000
    52 H25     11.9067  11.3845  13.1967   H         1 RES1   0.0000
    53 H26     13.4335  11.3008  12.7245   H         1 RES1   0.0000
    54 C24     11.9856  10.5401  10.6076   C.3       1 RES1   0.0000
    55 H27     12.7979  11.0066  10.3196   H         1 RES1   0.0000
    56 H28     11.2672  11.1917  10.7482   H         1 RES1   0.0000
    57 H29     11.7149   9.8992   9.9175   H         1 RES1   0.0000
    58 C25     13.3063   5.0190  10.5239   C.3       1 RES1   0.0000
    59 H30     12.3232   5.0707  10.3485   H         1 RES1   0.0000
    60 C26     13.5269   3.9826  11.6335   C.3       1 RES1   0.0000
    61 H31     14.4866   3.8901  11.8087   H         1 RES1   0.0000
    62 H32     13.1622   3.1177  11.3501   H         1 RES1   0.0000
    63 H33     13.0723   4.2762  12.4505   H         1 RES1   0.0000
    64 C27     13.9857   4.5845   9.2268   C.3       1 RES1   0.0000
    65 H34     13.7602   5.2166   8.5125   H         1 RES1   0.0000
    66 H35     13.6756   3.6884   8.9800   H         1 RES1   0.0000
    67 H36     14.9570   4.5703   9.3557   H         1 RES1   0.0000
    68 C28     14.8103   8.3464   6.1133   C.ar      1 RES1   0.0000
    69 C29     13.8620   9.3689   5.6816   C.ar      1 RES1   0.0000
    70 C30     12.8397   8.6765   4.9565   C.ar      1 RES1   0.0000
    71 H37     12.0817   9.0955   4.5659   H         1 RES1   0.0000
    72 C31     13.1024   7.2946   4.8975   C.ar      1 RES1   0.0000
    73 C32     14.3142   7.0946   5.6089   C.ar      1 RES1   0.0000
    74 H38     14.7373   6.2533   5.7342   H         1 RES1   0.0000
    75 C33     16.1742   8.4012   6.8367   C.3       1 RES1   0.0000
    76 C34     17.2836   8.6782   5.7928   C.3       1 RES1   0.0000
    77 H39     17.1067   9.5334   5.3474   H         1 RES1   0.0000
    78 H40     17.2934   7.9593   5.1275   H         1 RES1   0.0000
    79 H41     18.1531   8.7189   6.2433   H         1 RES1   0.0000
    80 C35     16.2637   9.4143   7.9654   C.3       1 RES1   0.0000
    81 H42     15.5746   9.2201   8.6346   H         1 RES1   0.0000
    82 H43     16.1253  10.3162   7.6068   H         1 RES1   0.0000
    83 H44     17.1487   9.3615   8.3829   H         1 RES1   0.0000
    84 C36     16.4919   7.0389   7.4600   C.3       1 RES1   0.0000
    85 H45     17.3375   7.0941   7.9520   H         1 RES1   0.0000
    86 H46     16.5691   6.3658   6.7519   H         1 RES1   0.0000
    87 H47     15.7721   6.7852   8.0748   H         1 RES1   0.0000
    88 C37     13.8206  10.9055   5.8240   C.3       1 RES1   0.0000
    89 C38     15.1075  11.5516   5.3079   C.3       1 RES1   0.0000
    90 H48     15.2338  11.3192   4.3641   H         1 RES1   0.0000
    91 H49     15.8696  11.2235   5.8296   H         1 RES1   0.0000
    92 H50     15.0437  12.5250   5.3990   H         1 RES1   0.0000
    93 C39     13.5169  11.3354   7.2630   C.3       1 RES1   0.0000
    94 H51     14.2134  10.9912   7.8606   H         1 RES1   0.0000
    95 H52     12.6467  10.9753   7.5347   H         1 RES1   0.0000
    96 H53     13.4962  12.3135   7.3145   H         1 RES1   0.0000
    97 C40     12.6885  11.4869   4.9710   C.3       1 RES1   0.0000
    98 H54     12.6997  12.4647   5.0359   H         1 RES1   0.0000
    99 H55     11.8280  11.1479   5.2953   H         1 RES1   0.0000
   100 H56     12.8134  11.2200   4.0364   H         1 RES1   0.0000
   101 C41     12.2553   6.2128   4.2331   C.3       1 RES1   0.0000
   102 C42     11.7482   5.2113   5.2782   C.3       1 RES1   0.0000
   103 H57     12.5122   4.7935   5.7279   H         1 RES1   0.0000
   104 H58     11.2121   4.5206   4.8355   H         1 RES1   0.0000
   105 H59     11.1965   5.6797   5.9388   H         1 RES1   0.0000
   106 C43     11.0494   6.8455   3.5281   C.3       1 RES1   0.0000
   107 H60     10.4879   7.3026   4.1885   H         1 RES1   0.0000
   108 H61     10.5268   6.1455   3.0837   H         1 RES1   0.0000
   109 H62     11.3626   7.4920   2.8618   H         1 RES1   0.0000
   110 C44     13.1021   5.4691   3.1908   C.3       1 RES1   0.0000
   111 H63     13.4235   6.1051   2.5176   H         1 RES1   0.0000
   112 H64     12.5557   4.7819   2.7563   H         1 RES1   0.0000
   113 H65     13.8679   5.0472   3.6331   H         1 RES1   0.0000
@<TRIPOS>BOND
     1     1     2    1
     2     2     5    2
     3     3     5    1
     4     4     5    1
     5     6     3    1
     6     7     6    1
     7     8     4    1
     8     9     8    1
     9    10     3    1
    10    11    10   ar
    11    12    11   ar
    12    13    12    1
    13    14    12   ar
    14    15    14    1
    15    16    14   ar
    16    17    16    1
    17    18    10   ar
    18    19    11    1
    19    20    19    1
    20    21    19    1
    21    22    21    1
    22    23    21    1
    23    24    21    1
    24    25    19    1
    25    26    25    1
    26    27    25    1
    27    28    25    1
    28    29    18    1
    29    30    29    1
    30    31    29    1
    31    32    31    1
    32    33    31    1
    33    34    31    1
    34    35    29    1
    35    36    35    1
    36    37    35    1
    37    38    35    1
    38    39     4    1
    39    40    39   ar
    40    41    40   ar
    41    42    41    1
    42    43    41   ar
    43    44    43    1
    44    45    43   ar
    45    46    45    1
    46    47    39   ar
    47    48    40    1
    48    49    48    1
    49    50    48    1
    50    51    50    1
    51    52    50    1
    52    53    50    1
    53    54    48    1
    54    55    54    1
    55    56    54    1
    56    57    54    1
    57    58    47    1
    58    59    58    1
    59    60    58    1
    60    61    60    1
    61    62    60    1
    62    63    60    1
    63    64    58    1
    64    65    64    1
    65    66    64    1
    66    67    64    1
    67    68     1   un
    68    69     1   un
    69    70     1   un
    70    71    70    1
    71    72     1   un
    72    73     1   un
    73    74    73    1
    74    75    68    1
    75    76    75    1
    76    77    76    1
    77    78    76    1
    78    79    76    1
    79    80    75    1
    80    81    80    1
    81    82    80    1
    82    83    80    1
    83    84    75    1
    84    85    84    1
    85    86    84    1
    86    87    84    1
    87    88    69    1
    88    89    88    1
    89    90    89    1
    90    91    89    1
    91    92    89    1
    92    93    88    1
    93    94    93    1
    94    95    93    1
    95    96    93    1
    96    97    88    1
    97    98    97    1
    98    99    97    1
    99   100    97    1
   100   101    72    1
   101   102   101    1
   102   103   102    1
   103   104   102    1
   104   105   102    1
   105   106   101    1
   106   107   106    1
   107   108   106    1
   108   109   106    1
   109   110   101    1
   110   111   110    1
   111   112   110    1
   112   113   110    1
   113     6     8    2
   114    16    18   ar
   115    45    47   ar
   116    68    69   ar
   117    68    73   ar
   118    69    70   ar
   119    70    72   ar
   120    72    73   ar
@<TRIPOS>SUBSTRUCTURE
     1 RES1        1 GROUP             0 ****  ****    0  
@<TRIPOS>CRYSIN
   21.7273   10.3956   20.5216   90.0000  116.7820   90.0000    14     1
