@<TRIPOS>MOLECULE
VUGKOY
   100   107     5     0     0
SMALL
USER_CHARGES
****
Generated from the CSD

@<TRIPOS>ATOM
     1 Fe1      4.7193   4.0985   2.7074   Fe        1 RES1   2.0000
     2 N1       3.8484   3.7524   0.9745   N.ar      1 RES1   0.0000
     3 N2       4.5758   2.2278   2.8218   N.ar      1 RES1   0.0000
     4 N3       5.5882   3.8194   4.4636   N.ar      1 RES1   0.0000
     5 N4       2.9412   4.5892   3.4479   N.ar      1 RES1   0.0000
     6 N5       4.8471   5.9727   2.5813   N.ar      1 RES1   0.0000
     7 N6       6.5002   4.2286   1.8521   N.ar      1 RES1   0.0000
     8 C1       3.5117   4.6544   0.0367   C.ar      1 RES1   0.0000
     9 H1       3.7448   5.5455   0.1710   H         1 RES1   0.0000
    10 C2       2.8357   4.3144  -1.1174   C.ar      1 RES1   0.0000
    11 H2       2.6264   4.9640  -1.7495   H         1 RES1   0.0000
    12 C3       2.4728   2.9979  -1.3239   C.ar      1 RES1   0.0000
    13 H3       2.0013   2.7515  -2.0852   H         1 RES1   0.0000
    14 C4       2.8240   2.0526  -0.3763   C.ar      1 RES1   0.0000
    15 H4       2.5885   1.1594  -0.4953   H         1 RES1   0.0000
    16 C5       3.5262   2.4398   0.7487   C.ar      1 RES1   0.0000
    17 C6       3.9793   1.5427   1.8217   C.ar      1 RES1   0.0000
    18 C7       3.8589   0.1656   1.8800   C.ar      1 RES1   0.0000
    19 H5       3.4667  -0.2943   1.1731   H         1 RES1   0.0000
    20 C8       4.3227  -0.5432   2.9961   C.ar      1 RES1   0.0000
    21 C9       4.9382   0.2010   4.0121   C.ar      1 RES1   0.0000
    22 H6       5.2644  -0.2305   4.7684   H         1 RES1   0.0000
    23 C10      5.0607   1.5746   3.8956   C.ar      1 RES1   0.0000
    24 C11      5.7037   2.5047   4.8444   C.ar      1 RES1   0.0000
    25 C12      6.3867   2.1359   5.9833   C.ar      1 RES1   0.0000
    26 H7       6.4464   1.2410   6.2253   H         1 RES1   0.0000
    27 C13      6.9851   3.1163   6.7662   C.ar      1 RES1   0.0000
    28 H8       7.4602   2.8862   7.5314   H         1 RES1   0.0000
    29 C14      6.8612   4.4392   6.3887   C.ar      1 RES1   0.0000
    30 H9       7.2490   5.1129   6.8993   H         1 RES1   0.0000
    31 C15      6.1559   4.7484   5.2460   C.ar      1 RES1   0.0000
    32 H10      6.0691   5.6412   5.0066   H         1 RES1   0.0000
    33 C16      4.1672  -2.0164   3.0987   C.ar      1 RES1   0.0000
    34 C17      3.3249  -2.7118   2.2221   C.ar      1 RES1   0.0000
    35 H11      2.8629  -2.2444   1.5646   H         1 RES1   0.0000
    36 C18      3.1688  -4.0875   2.3158   C.ar      1 RES1   0.0000
    37 H12      2.6296  -4.5385   1.7064   H         1 RES1   0.0000
    38 C19      3.8183  -4.7892   3.3191   C.ar      1 RES1   0.0000
    39 H13      3.6961  -5.7086   3.4015   H         1 RES1   0.0000
    40 C20      4.6476  -4.1208   4.1920   C.ar      1 RES1   0.0000
    41 H14      5.0839  -4.5917   4.8647   H         1 RES1   0.0000
    42 C21      4.8352  -2.7511   4.0780   C.ar      1 RES1   0.0000
    43 H15      5.4145  -2.3189   4.6620   H         1 RES1   0.0000
    44 C22      1.9478   3.7542   3.8107   C.ar      1 RES1   0.0000
    45 H16      2.1179   2.8401   3.8246   H         1 RES1   0.0000
    46 C23      0.6910   4.1981   4.1603   C.ar      1 RES1   0.0000
    47 H17      0.0255   3.5918   4.3972   H         1 RES1   0.0000
    48 C24      0.4339   5.5586   4.1553   C.ar      1 RES1   0.0000
    49 H18     -0.4061   5.8788   4.3960   H         1 RES1   0.0000
    50 C25      1.4376   6.4365   3.7891   C.ar      1 RES1   0.0000
    51 H19      1.2787   7.3538   3.7752   H         1 RES1   0.0000
    52 C26      2.6831   5.9344   3.4433   C.ar      1 RES1   0.0000
    53 C27      3.8141   6.7482   2.9834   C.ar      1 RES1   0.0000
    54 C28      3.8845   8.1342   2.8897   C.ar      1 RES1   0.0000
    55 H20      3.1690   8.6586   3.1697   H         1 RES1   0.0000
    56 C29      5.0314   8.7331   2.3741   C.ar      1 RES1   0.0000
    57 C30      6.0765   7.9062   1.9446   C.ar      1 RES1   0.0000
    58 H21      6.8506   8.2792   1.5874   H         1 RES1   0.0000
    59 C31      5.9524   6.5344   2.0548   C.ar      1 RES1   0.0000
    60 C32      6.9151   5.5107   1.6114   C.ar      1 RES1   0.0000
    61 C33      8.1181   5.7777   0.9831   C.ar      1 RES1   0.0000
    62 H22      8.3863   6.6553   0.8298   H         1 RES1   0.0000
    63 C34      8.9150   4.7222   0.5853   C.ar      1 RES1   0.0000
    64 H23      9.7243   4.8824   0.1546   H         1 RES1   0.0000
    65 C35      8.5066   3.4308   0.8311   C.ar      1 RES1   0.0000
    66 H24      9.0349   2.7125   0.5701   H         1 RES1   0.0000
    67 C36      7.2985   3.2206   1.4695   C.ar      1 RES1   0.0000
    68 H25      7.0296   2.3473   1.6406   H         1 RES1   0.0000
    69 C37      5.1435  10.2141   2.2601   C.ar      1 RES1   0.0000
    70 C38      4.4894  11.0484   3.1633   C.ar      1 RES1   0.0000
    71 H26      3.9680  10.6832   3.8423   H         1 RES1   0.0000
    72 C39      4.6221  12.4334   3.0468   C.ar      1 RES1   0.0000
    73 H27      4.1835  12.9914   3.6485   H         1 RES1   0.0000
    74 C40      5.3952  12.9833   2.0472   C.ar      1 RES1   0.0000
    75 H28      5.4823  13.9062   1.9801   H         1 RES1   0.0000
    76 C41      6.0418  12.1568   1.1440   C.ar      1 RES1   0.0000
    77 H29      6.5577  12.5270   0.4637   H         1 RES1   0.0000
    78 C42      5.9207  10.7807   1.2504   C.ar      1 RES1   0.0000
    79 H30      6.3622  10.2293   0.6436   H         1 RES1   0.0000
    80 P1       9.2468  -0.1315   3.0545   P.3       2 RES2  -1.0000
    81 F1       8.4436  -1.2417   3.8550   F         2 RES2   0.0000
    82 F2       9.7015  -1.2396   2.0206   F         2 RES2   0.0000
    83 F3      10.0549   0.9729   2.2626   F         2 RES2   0.0000
    84 F4       8.7796   0.9733   4.0869   F         2 RES2   0.0000
    85 F5      10.5477  -0.4095   3.9399   F         2 RES2   0.0000
    86 F6       7.9548   0.1493   2.1701   F         2 RES2   0.0000
    87 P2       5.1778   8.3327   6.8040   P.3       3 RES3  -1.0000
    88 F7       5.8483   7.9835   5.4051   F         3 RES3   0.0000
    89 F8       3.9203   8.9653   6.0505   F         3 RES3   0.0000
    90 F9       4.4687   8.6997   8.1926   F         3 RES3   0.0000
    91 F10      6.3825   7.6736   7.5834   F         3 RES3   0.0000
    92 F11      4.4346   6.9180   6.7846   F         3 RES3   0.0000
    93 F12      5.9013   9.7542   6.8327   F         3 RES3   0.0000
    94 O1      11.1304   1.3055   6.2785   O.3       4 RES4   0.0000
    95 N7       5.7862   7.5243  11.3332   N.1       5 RES5   0.0000
    96 C43      4.7363   7.8076  11.1749   C.1       5 RES5   0.0000
    97 C44      3.3667   8.1140  10.9354   C.3       5 RES5   0.0000
    98 H31      3.0586   7.6233  10.1690   H         5 RES5   0.0000
    99 H32      3.2726   9.0557  10.7707   H         5 RES5   0.0000
   100 H33      2.8440   7.8679  11.7031   H         5 RES5   0.0000
@<TRIPOS>BOND
     1     1     2    1
     2     2     8   ar
     3     3     1    1
     4     4     1    1
     5     5     1    1
     6     6     1    1
     7     7     1    1
     8     8     9    1
     9    10     8   ar
    10    11    10    1
    11    12    10   ar
    12    13    12    1
    13    14    12   ar
    14    15    14    1
    15    16     2   ar
    16    17     3   ar
    17    18    17   ar
    18    19    18    1
    19    20    18   ar
    20    21    20   ar
    21    22    21    1
    22    23     3   ar
    23    24     4   ar
    24    25    24   ar
    25    26    25    1
    26    27    25   ar
    27    28    27    1
    28    29    27   ar
    29    30    29    1
    30    31     4   ar
    31    32    31    1
    32    33    20    1
    33    34    33   ar
    34    35    34    1
    35    36    34   ar
    36    37    36    1
    37    38    36   ar
    38    39    38    1
    39    40    38   ar
    40    41    40    1
    41    42    33   ar
    42    43    42    1
    43    44     5   ar
    44    45    44    1
    45    46    44   ar
    46    47    46    1
    47    48    46   ar
    48    49    48    1
    49    50    48   ar
    50    51    50    1
    51    52     5   ar
    52    53     6   ar
    53    54    53   ar
    54    55    54    1
    55    56    54   ar
    56    57    56   ar
    57    58    57    1
    58    59     6   ar
    59    60     7   ar
    60    61    60   ar
    61    62    61    1
    62    63    61   ar
    63    64    63    1
    64    65    63   ar
    65    66    65    1
    66    67     7   ar
    67    68    67    1
    68    69    56    1
    69    70    69   ar
    70    71    70    1
    71    72    70   ar
    72    73    72    1
    73    74    72   ar
    74    75    74    1
    75    76    74   ar
    76    77    76    1
    77    78    69   ar
    78    79    78    1
    79    14    16   ar
    80    16    17    1
    81    21    23   ar
    82    23    24    1
    83    29    31   ar
    84    40    42   ar
    85    50    52   ar
    86    52    53    1
    87    57    59   ar
    88    59    60    1
    89    65    67   ar
    90    76    78   ar
    91    80    81    1
    92    82    80    1
    93    83    80    1
    94    84    80    1
    95    85    80    1
    96    86    80    1
    97    87    88    1
    98    89    87    1
    99    90    87    1
   100    91    87    1
   101    92    87    1
   102    93    87    1
   103    95    96    3
   104    96    97    1
   105    97    98    1
   106    99    97    1
   107   100    97    1
@<TRIPOS>SUBSTRUCTURE
     1 RES1        1 GROUP             0 ****  ****    0  
     2 RES2       80 GROUP             0 ****  ****    0  
     3 RES3       87 GROUP             0 ****  ****    0  
     4 RES4       94 GROUP             0 ****  ****    0  
     5 RES5       95 GROUP             0 ****  ****    0  
@<TRIPOS>CRYSIN
    9.3232   35.4570   12.6761   90.0000   91.9870   90.0000   231     1
