@<TRIPOS>MOLECULE
VUTZOC
   227   240     9     0     0
SMALL
USER_CHARGES
****
Generated from the CSD

@<TRIPOS>ATOM
     1 Fe1     14.1594  10.1423  18.3992   Fe        1 RES1   2.0000
     2 O1      10.8319  14.5940  18.8176   O.3       1 RES1   0.0000
     3 H1      10.5156  15.0117  19.4729   H         1 RES1   0.0000
     4 O2      17.3130  14.6805  17.8624   O.3       1 RES1   0.0000
     5 H2      17.8382  14.9293  17.2561   H         1 RES1   0.0000
     6 O3      17.3792   5.6546  18.9239   O.3       1 RES1   0.0000
     7 H3      17.6377   5.1909  19.5764   H         1 RES1   0.0000
     8 O4      11.2837   5.3301  17.8520   O.3       1 RES1   0.0000
     9 H4      11.8301   4.7110  18.0082   H         1 RES1   0.0000
    10 N1      14.1787  10.1953  20.5532   N.ar      1 RES1   0.0000
    11 N2      14.0857  10.1547  16.2412   N.ar      1 RES1   0.0000
    12 N3      12.6655  11.6417  19.0243   N.2       1 RES1   0.0000
    13 N4      15.5151  11.7106  17.7442   N.2       1 RES1   0.0000
    14 N5      11.9347  12.6055  18.3913   N.pl3     1 RES1   0.0000
    15 N6      16.2189  12.7123  18.3462   N.pl3     1 RES1   0.0000
    16 N7      15.5321   8.6015  19.0679   N.2       1 RES1   0.0000
    17 N8      12.8510   8.4717  17.7774   N.2       1 RES1   0.0000
    18 N9      16.2060   7.5863  18.4540   N.pl3     1 RES1   0.0000
    19 N10     12.3285   7.3700  18.4019   N.pl3     1 RES1   0.0000
    20 C1      11.5961  13.5978  19.2536   C.2       1 RES1   0.0000
    21 C2      16.6126  13.6424  17.4397   C.2       1 RES1   0.0000
    22 C3      12.1383  13.2950  20.4966   C.2       1 RES1   0.0000
    23 C4      16.1370  13.2747  16.1873   C.2       1 RES1   0.0000
    24 C5      12.7700  12.0729  20.2969   C.2       1 RES1   0.0000
    25 C6      15.4620  12.0526  16.4373   C.2       1 RES1   0.0000
    26 C7      13.4997  11.1794  21.2012   C.ar      1 RES1   0.0000
    27 C8      14.7451  11.1267  15.5704   C.ar      1 RES1   0.0000
    28 C9      13.4895  11.2578  22.5992   C.ar      1 RES1   0.0000
    29 H5      13.0379  11.9634  23.0477   H         1 RES1   0.0000
    30 C10     14.7572  11.1605  14.1770   C.ar      1 RES1   0.0000
    31 H6      15.1969  11.8620  13.7117   H         1 RES1   0.0000
    32 C11     14.1619  10.2777  23.3081   C.ar      1 RES1   0.0000
    33 H7      14.1684  10.3061  24.2566   H         1 RES1   0.0000
    34 C12     14.1114  10.1399  13.4873   C.ar      1 RES1   0.0000
    35 H8      14.1200  10.1317  12.5363   H         1 RES1   0.0000
    36 C13     14.8260   9.2544  22.6449   C.ar      1 RES1   0.0000
    37 H9      15.2655   8.5664  23.1330   H         1 RES1   0.0000
    38 C14     13.4584   9.1368  14.1812   C.ar      1 RES1   0.0000
    39 H10     13.0198   8.4339  13.7147   H         1 RES1   0.0000
    40 C15     14.8383   9.2558  21.2466   C.ar      1 RES1   0.0000
    41 C16     13.4504   9.1747  15.5783   C.ar      1 RES1   0.0000
    42 C17     15.5666   8.3055  20.3882   C.2       1 RES1   0.0000
    43 C18     12.8188   8.1933  16.4617   C.2       1 RES1   0.0000
    44 C19     16.2628   7.1132  20.6352   C.2       1 RES1   0.0000
    45 C20     12.2375   6.9185  16.2196   C.2       1 RES1   0.0000
    46 C21     16.6623   6.6779  19.3657   C.2       1 RES1   0.0000
    47 C22     11.9510   6.4332  17.4884   C.2       1 RES1   0.0000
    48 C23     11.5829  12.4649  17.0186   C.ar      1 RES1   0.0000
    49 C24     16.5283  12.6461  19.7408   C.ar      1 RES1   0.0000
    50 C25     11.9662  13.4585  16.1142   C.ar      1 RES1   0.0000
    51 H11     12.4615  14.2142  16.4065   H         1 RES1   0.0000
    52 C26     17.1858  11.5282  20.2201   C.ar      1 RES1   0.0000
    53 H12     17.4578  10.8374  19.6282   H         1 RES1   0.0000
    54 C27     11.6139  13.3206  14.7927   C.ar      1 RES1   0.0000
    55 H13     11.8538  13.9925  14.1654   H         1 RES1   0.0000
    56 C28     17.4465  11.4308  21.5800   C.ar      1 RES1   0.0000
    57 H14     17.8897  10.6644  21.9272   H         1 RES1   0.0000
    58 C29     10.9164  12.2203  14.3789   C.ar      1 RES1   0.0000
    59 H15     10.6930  12.1297  13.4590   H         1 RES1   0.0000
    60 C30     17.0660  12.4447  22.4326   C.ar      1 RES1   0.0000
    61 H16     17.2440  12.3784  23.3644   H         1 RES1   0.0000
    62 C31     10.5267  11.2186  15.2835   C.ar      1 RES1   0.0000
    63 H17     10.0361  10.4616  14.9815   H         1 RES1   0.0000
    64 C32     16.4226  13.5545  21.9296   C.ar      1 RES1   0.0000
    65 H18     16.1677  14.2534  22.5209   H         1 RES1   0.0000
    66 C33     10.8650  11.3524  16.6270   C.ar      1 RES1   0.0000
    67 H19     10.6099  10.6927  17.2591   H         1 RES1   0.0000
    68 C34     16.1425  13.6721  20.5755   C.ar      1 RES1   0.0000
    69 H20     15.6968  14.4386  20.2341   H         1 RES1   0.0000
    70 C35     16.4684   7.6296  17.0454   C.ar      1 RES1   0.0000
    71 C36     12.0705   7.3957  19.8057   C.ar      1 RES1   0.0000
    72 C37     16.0497   6.5792  16.2598   C.ar      1 RES1   0.0000
    73 H21     15.6190   5.8236  16.6410   H         1 RES1   0.0000
    74 C38     12.5286   6.3602  20.6087   C.ar      1 RES1   0.0000
    75 H22     13.0289   5.6397  20.2433   H         1 RES1   0.0000
    76 C39     16.2828   6.6617  14.8804   C.ar      1 RES1   0.0000
    77 H23     15.9947   5.9547  14.3146   H         1 RES1   0.0000
    78 C40     12.2300   6.4102  21.9795   C.ar      1 RES1   0.0000
    79 H24     12.5183   5.7019  22.5422   H         1 RES1   0.0000
    80 C41     16.9256   7.7607  14.3292   C.ar      1 RES1   0.0000
    81 H25     17.1038   7.7918  13.3950   H         1 RES1   0.0000
    82 C42     11.5322   7.4552  22.5231   C.ar      1 RES1   0.0000
    83 H26     11.3393   7.4673  23.4527   H         1 RES1   0.0000
    84 C43     17.3024   8.8002  15.1392   C.ar      1 RES1   0.0000
    85 H27     17.7034   9.5721  14.7561   H         1 RES1   0.0000
    86 C44     11.1089   8.4974  21.7058   C.ar      1 RES1   0.0000
    87 H28     10.6381   9.2328  22.0794   H         1 RES1   0.0000
    88 C45     17.1019   8.7380  16.5089   C.ar      1 RES1   0.0000
    89 H29     17.3966   9.4437  17.0704   H         1 RES1   0.0000
    90 C46     11.3734   8.4650  20.3352   C.ar      1 RES1   0.0000
    91 H30     11.0767   9.1693  19.7713   H         1 RES1   0.0000
    92 C47     12.1005  14.1831  21.7033   C.ar      1 RES1   0.0000
    93 C48     16.2958  14.0601  14.9513   C.ar      1 RES1   0.0000
    94 C49     13.0125  15.2240  21.8285   C.ar      1 RES1   0.0000
    95 H31     13.6441  15.3781  21.1354   H         1 RES1   0.0000
    96 C50     17.1058  13.6072  13.8914   C.ar      1 RES1   0.0000
    97 H32     17.5608  12.7745  13.9523   H         1 RES1   0.0000
    98 C51     13.0156  16.0405  22.9506   C.ar      1 RES1   0.0000
    99 H33     13.6391  16.7556  23.0112   H         1 RES1   0.0000
   100 C52     17.2300  14.4061  12.7422   C.ar      1 RES1   0.0000
   101 H34     17.7716  14.1114  12.0187   H         1 RES1   0.0000
   102 C53     12.1311  15.8296  23.9710   C.ar      1 RES1   0.0000
   103 H35     12.1517  16.3825  24.7438   H         1 RES1   0.0000
   104 C54     16.5654  15.6255  12.6545   C.ar      1 RES1   0.0000
   105 H36     16.6645  16.1608  11.8756   H         1 RES1   0.0000
   106 C55     11.2070  14.8103  23.8726   C.ar      1 RES1   0.0000
   107 H37     10.5938  14.6562  24.5794   H         1 RES1   0.0000
   108 C56     15.7635  16.0634  13.6843   C.ar      1 RES1   0.0000
   109 H38     15.3026  16.8921  13.6143   H         1 RES1   0.0000
   110 C57     11.1750  14.0046  22.7323   C.ar      1 RES1   0.0000
   111 H39     10.5139  13.3247  22.6580   H         1 RES1   0.0000
   112 C58     15.6399  15.2848  14.8240   C.ar      1 RES1   0.0000
   113 H40     15.0923  15.5917  15.5387   H         1 RES1   0.0000
   114 C59     16.5646   6.4102  21.9068   C.ar      1 RES1   0.0000
   115 C60     11.9498   6.1858  14.9623   C.ar      1 RES1   0.0000
   116 C61     16.1073   5.1098  22.1153   C.ar      1 RES1   0.0000
   117 H41     15.5707   4.6867  21.4552   H         1 RES1   0.0000
   118 C62     11.1111   6.7184  13.9873   C.ar      1 RES1   0.0000
   119 H42     10.7177   7.5728  14.1197   H         1 RES1   0.0000
   120 C63     16.4317   4.4271  23.2874   C.ar      1 RES1   0.0000
   121 H43     16.1391   3.5323  23.4101   H         1 RES1   0.0000
   122 C64     10.8438   6.0074  12.8223   C.ar      1 RES1   0.0000
   123 H44     10.2976   6.3886  12.1435   H         1 RES1   0.0000
   124 C65     17.1804   5.0490  24.2706   C.ar      1 RES1   0.0000
   125 H45     17.3869   4.5894  25.0757   H         1 RES1   0.0000
   126 C66     11.3754   4.7435  12.6572   C.ar      1 RES1   0.0000
   127 H46     11.1743   4.2474  11.8725   H         1 RES1   0.0000
   128 C67     17.6220   6.3426  24.0766   C.ar      1 RES1   0.0000
   129 H47     18.1365   6.7712  24.7499   H         1 RES1   0.0000
   130 C68     12.1914   4.1973  13.6200   C.ar      1 RES1   0.0000
   131 H48     12.5608   3.3308  13.4955   H         1 RES1   0.0000
   132 C69     17.3194   7.0226  22.8955   C.ar      1 RES1   0.0000
   133 H49     17.6336   7.9094  22.7676   H         1 RES1   0.0000
   134 C70     12.4721   4.9151  14.7744   C.ar      1 RES1   0.0000
   135 H50     13.0272   4.5312  15.4443   H         1 RES1   0.0000
   136 Cl1     14.0562   3.0989  18.4528   Cl        2 RES2   0.0000
   137 O5      14.4117   3.8634  17.3328   O.2       2 RES2   0.0000
   138 O6      12.7353   3.4538  18.9762   O.3       2 RES2  -1.0000
   139 O7      14.0953   1.7019  18.1806   O.2       2 RES2   0.0000
   140 O8      15.0114   3.3592  19.5289   O.2       2 RES2   0.0000
   141 Cl2     17.5977  10.2754  11.0360   Cl        3 RES3   0.0000
   142 O9      18.2230   9.0003  11.1935   O.3       3 RES3  -1.0000
   143 O10     18.1742  11.1456  11.9121   O.2       3 RES3   0.0000
   144 O11     16.2022  10.1804  11.1843   O.2       3 RES3   0.0000
   145 O12     17.8927  10.6170   9.7081   O.2       3 RES3   0.0000
   146 O13     11.8920   5.9331  25.4965   O.3       4 RES4   0.0000
   147 C71     13.9773   7.0172  25.5355   C.3       4 RES4   0.0000
   148 H51     14.3446   6.2886  24.9935   H         4 RES4   0.0000
   149 H52     14.6831   7.3876  26.1049   H         4 RES4   0.0000
   150 H53     13.6309   7.7201  24.9448   H         4 RES4   0.0000
   151 C72      9.7609   4.9246  25.2493   C.3       4 RES4   0.0000
   152 H54      9.5564   5.5924  24.5611   H         4 RES4   0.0000
   153 H55      8.9463   4.7083  25.7456   H         4 RES4   0.0000
   154 H56     10.1089   4.1135  24.8230   H         4 RES4   0.0000
   155 C73     10.7954   5.4788  26.1932   C.3       4 RES4   0.0000
   156 H57     10.4037   6.2237  26.7139   H         4 RES4   0.0000
   157 H58     11.0753   4.7732  26.8296   H         4 RES4   0.0000
   158 C74     12.9010   6.5089  26.3637   C.3       4 RES4   0.0000
   159 H59     13.2478   5.8195  26.9849   H         4 RES4   0.0000
   160 H60     12.5084   7.2429  26.8997   H         4 RES4   0.0000
   161 O14     19.8198  10.0858  18.4589   O.3       5 RES5   0.0000
   162 C75     20.0809   8.1365  19.9235   C.3       5 RES5   0.0000
   163 H61     20.2043   7.1632  19.9296   H         5 RES5   0.0000
   164 H62     19.1602   8.3501  20.1824   H         5 RES5   0.0000
   165 H63     20.7039   8.5461  20.5630   H         5 RES5   0.0000
   166 C76     20.3460   8.6515  18.5807   C.3       5 RES5   0.0000
   167 H64     19.9019   8.0811  17.9077   H         5 RES5   0.0000
   168 H65     21.3197   8.6434  18.4041   H         5 RES5   0.0000
   169 C77     20.2379  11.0577  17.9230   C.3       5 RES5   0.0000
   170 H66     20.8428  10.6535  17.2500   H         5 RES5   0.0000
   171 H67     20.8406  11.4146  18.6203   H         5 RES5   0.0000
   172 C78     19.8722  12.1081  17.3353   C.3       5 RES5   0.0000
   173 H68     20.5031  12.3149  16.6166   H         5 RES5   0.0000
   174 H69     19.8553  12.8489  17.9778   H         5 RES5   0.0000
   175 H70     18.9765  11.9797  16.9577   H         5 RES5   0.0000
   176 O15     18.7587   4.1622  20.4756   O.3       6 RES6   0.0000
   177 C79     18.3235   2.8090  20.5782   C.3       6 RES6   0.0000
   178 H71     17.9195   2.5184  19.7226   H         6 RES6   0.0000
   179 H72     17.6397   2.7279  21.2907   H         6 RES6   0.0000
   180 C80     19.4847   1.9628  20.8979   C.3       6 RES6   0.0000
   181 H73     20.0969   1.8398  20.1336   H         6 RES6   0.0000
   182 H74     19.2306   1.0868  21.2847   H         6 RES6   0.0000
   183 C81     20.0248   2.9523  21.9515   C.3       6 RES6   0.0000
   184 H75     20.9859   2.7888  22.1129   H         6 RES6   0.0000
   185 H76     19.5397   2.8361  22.8072   H         6 RES6   0.0000
   186 C82     19.8025   4.4420  21.3912   C.3       6 RES6   0.0000
   187 H77     19.5175   5.0693  22.1007   H         6 RES6   0.0000
   188 H78     20.6103   4.7935  20.9406   H         6 RES6   0.0000
   189 O16     18.8093  16.0945  16.2890   O.3       7 RES7   0.0000
   190 C83     20.0572  16.3176  16.8877   C.3       7 RES7   0.0000
   191 H79     20.7882  16.0310  16.2847   H         7 RES7   0.0000
   192 H80     20.1289  15.8147  17.7372   H         7 RES7   0.0000
   193 C84     20.1322  17.8194  17.1465   C.3       7 RES7   0.0000
   194 H81     19.7376  18.0479  18.0234   H         7 RES7   0.0000
   195 H82     21.0716  18.1330  17.1252   H         7 RES7   0.0000
   196 C85     19.3794  18.4021  16.0838   C.3       7 RES7   0.0000
   197 H83     19.9204  18.4886  15.2586   H         7 RES7   0.0000
   198 H84     19.0179  19.2888  16.3335   H         7 RES7   0.0000
   199 C86     18.2902  17.3869  15.9254   C.3       7 RES7   0.0000
   200 H85     17.5261  17.6194  16.5101   H         7 RES7   0.0000
   201 H86     17.9740  17.3720  14.9876   H         7 RES7   0.0000
   202 O17      9.3757  15.9310  20.5301   O.3       8 RES8   0.0000
   203 C87      9.9830  17.1422  21.0605   C.3       8 RES8   0.0000
   204 H87     10.8852  17.2760  20.6757   H         8 RES8   0.0000
   205 H88     10.0664  17.0868  22.0459   H         8 RES8   0.0000
   206 C88      9.0752  18.2642  20.6726   C.3       8 RES8   0.0000
   207 H89      9.5960  19.0590  20.3955   H         8 RES8   0.0000
   208 H90      8.4809  18.5143  21.4217   H         8 RES8   0.0000
   209 C89      8.2867  17.7153  19.5246   C.3       8 RES8   0.0000
   210 H91      7.3988  18.1493  19.4637   H         8 RES8   0.0000
   211 H92      8.7675  17.8384  18.6690   H         8 RES8   0.0000
   212 C90      8.1547  16.2811  19.8626   C.3       8 RES8   0.0000
   213 H93      7.3753  16.1310  20.4534   H         8 RES8   0.0000
   214 H94      8.0388  15.7390  19.0405   H         8 RES8   0.0000
   215 O18     15.7062   6.7604  10.0303   O.3       9 RES9   0.0000
   216 C91     16.2474   5.4031  11.6715   C.3       9 RES9   0.0000
   217 H95     16.5201   4.4542  11.7507   H         9 RES9   0.0000
   218 H96     16.6506   5.9006  12.4267   H         9 RES9   0.0000
   219 C92     15.1118   5.4775  11.7324   C.3       9 RES9   0.0000
   220 H97     14.8223   5.3991  12.6734   H         9 RES9   0.0000
   221 H98     14.7014   4.7354  11.2178   H         9 RES9   0.0000
   222 C93     14.6515   6.8198  11.1569   C.3       9 RES9   0.0000
   223 H99     14.7849   7.5782  11.7812   H         9 RES9   0.0000
   224 H100    13.7191   6.8023  10.8250   H         9 RES9   0.0000
   225 C94     16.6746   5.8668  10.5936   C.3       9 RES9   0.0000
   226 H101    16.8529   5.1274   9.9602   H         9 RES9   0.0000
   227 H102    17.5228   6.3508  10.7519   H         9 RES9   0.0000
@<TRIPOS>BOND
     1     1    10    1
     2     2     3    1
     3     4     5    1
     4     6     7    1
     5     8     9    1
     6    10    26   ar
     7    11     1    1
     8    12     1    1
     9    13     1    1
    10    14    12    1
    11    15    13    1
    12    16     1    1
    13    17     1    1
    14    18    16    1
    15    19    17    1
    16    20     2    1
    17    21     4    1
    18    22    20    2
    19    23    21    2
    20    24    12    2
    21    25    13    2
    22    26    24    1
    23    27    11   ar
    24    28    26   ar
    25    29    28    1
    26    30    27   ar
    27    31    30    1
    28    32    28   ar
    29    33    32    1
    30    34    30   ar
    31    35    34    1
    32    36    32   ar
    33    37    36    1
    34    38    34   ar
    35    39    38    1
    36    40    10   ar
    37    41    11   ar
    38    42    16    2
    39    43    17    2
    40    44    42    1
    41    45    43    1
    42    46     6    1
    43    47     8    1
    44    48    14    1
    45    49    15    1
    46    50    48   ar
    47    51    50    1
    48    52    49   ar
    49    53    52    1
    50    54    50   ar
    51    55    54    1
    52    56    52   ar
    53    57    56    1
    54    58    54   ar
    55    59    58    1
    56    60    56   ar
    57    61    60    1
    58    62    58   ar
    59    63    62    1
    60    64    60   ar
    61    65    64    1
    62    66    48   ar
    63    67    66    1
    64    68    49   ar
    65    69    68    1
    66    70    18    1
    67    71    19    1
    68    72    70   ar
    69    73    72    1
    70    74    71   ar
    71    75    74    1
    72    76    72   ar
    73    77    76    1
    74    78    74   ar
    75    79    78    1
    76    80    76   ar
    77    81    80    1
    78    82    78   ar
    79    83    82    1
    80    84    80   ar
    81    85    84    1
    82    86    82   ar
    83    87    86    1
    84    88    70   ar
    85    89    88    1
    86    90    71   ar
    87    91    90    1
    88    92    22    1
    89    93    23    1
    90    94    92   ar
    91    95    94    1
    92    96    93   ar
    93    97    96    1
    94    98    94   ar
    95    99    98    1
    96   100    96   ar
    97   101   100    1
    98   102    98   ar
    99   103   102    1
   100   104   100   ar
   101   105   104    1
   102   106   102   ar
   103   107   106    1
   104   108   104   ar
   105   109   108    1
   106   110    92   ar
   107   111   110    1
   108   112    93   ar
   109   113   112    1
   110   114    44    1
   111   115    45    1
   112   116   114   ar
   113   117   116    1
   114   118   115   ar
   115   119   118    1
   116   120   116   ar
   117   121   120    1
   118   122   118   ar
   119   123   122    1
   120   124   120   ar
   121   125   124    1
   122   126   122   ar
   123   127   126    1
   124   128   124   ar
   125   129   128    1
   126   130   126   ar
   127   131   130    1
   128   132   114   ar
   129   133   132    1
   130   134   115   ar
   131   135   134    1
   132    14    20    1
   133    15    21    1
   134    18    46    1
   135    19    47    1
   136    22    24    1
   137    23    25    1
   138    25    27    1
   139    36    40   ar
   140    38    41   ar
   141    40    42    1
   142    41    43    1
   143    44    46    2
   144    45    47    2
   145    62    66   ar
   146    64    68   ar
   147    84    88   ar
   148    86    90   ar
   149   106   110   ar
   150   108   112   ar
   151   128   132   ar
   152   130   134   ar
   153   136   137    2
   154   138   136    1
   155   139   136    2
   156   140   136    2
   157   141   142    1
   158   143   141    2
   159   144   141    2
   160   145   141    2
   161   146   155    1
   162   147   148    1
   163   149   147    1
   164   150   147    1
   165   151   152    1
   166   153   151    1
   167   154   151    1
   168   155   151    1
   169   156   155    1
   170   157   155    1
   171   158   146    1
   172   159   158    1
   173   160   158    1
   174   147   158    1
   175   161   166    1
   176   162   163    1
   177   164   162    1
   178   165   162    1
   179   166   162    1
   180   167   166    1
   181   168   166    1
   182   169   161    1
   183   170   169    1
   184   171   169    1
   185   172   169    1
   186   173   172    1
   187   174   172    1
   188   175   172    1
   189   176   177    1
   190   177   178    1
   191   179   177    1
   192   180   177    1
   193   181   180    1
   194   182   180    1
   195   183   180    1
   196   184   183    1
   197   185   183    1
   198   186   176    1
   199   187   186    1
   200   188   186    1
   201   183   186    1
   202   189   190    1
   203   190   191    1
   204   192   190    1
   205   193   190    1
   206   194   193    1
   207   195   193    1
   208   196   193    1
   209   197   196    1
   210   198   196    1
   211   199   189    1
   212   200   199    1
   213   201   199    1
   214   196   199    1
   215   202   203    1
   216   203   204    1
   217   205   203    1
   218   206   203    1
   219   207   206    1
   220   208   206    1
   221   209   206    1
   222   210   209    1
   223   211   209    1
   224   212   202    1
   225   213   212    1
   226   214   212    1
   227   209   212    1
   228   215   222    1
   229   216   217    1
   230   218   216    1
   231   219   216    1
   232   220   219    1
   233   221   219    1
   234   222   219    1
   235   223   222    1
   236   224   222    1
   237   225   215    1
   238   226   225    1
   239   227   225    1
   240   216   225    1
@<TRIPOS>SUBSTRUCTURE
     1 RES1        1 GROUP             0 ****  ****    0  
     2 RES2      136 GROUP             0 ****  ****    0  
     3 RES3      141 GROUP             0 ****  ****    0  
     4 RES4      146 GROUP             0 ****  ****    0  
     5 RES5      161 GROUP             0 ****  ****    0  
     6 RES6      176 GROUP             0 ****  ****    0  
     7 RES7      189 GROUP             0 ****  ****    0  
     8 RES8      202 GROUP             0 ****  ****    0  
     9 RES9      215 GROUP             0 ****  ****    0  
@<TRIPOS>CRYSIN
   21.3220   13.5180   30.4980   90.0000   93.2100   90.0000    14     1
