@<TRIPOS>MOLECULE
VUYMOS
   107   108     1     0     0
SMALL
NO_CHARGES
****
Generated from the CSD

@<TRIPOS>ATOM
     1 Fe1      2.9315   5.0142   0.0000   Fe        1 RES1   0.0000
     2 Cl1      0.9648   4.7944   1.2688   Cl        1 RES1   0.0000
     3 P1       3.7923   6.6444   1.3397   P.3       1 RES1   0.0000
     4 P2       1.9299   6.7508  -1.1291   P.3       1 RES1   0.0000
     5 O1       2.0343   7.6584   5.7580   O.3       1 RES1   0.0000
     6 O2       8.3822   9.1438   2.3223   O.3       1 RES1   0.0000
     7 O3      -1.8513   8.1667  -3.5643   O.3       1 RES1   0.0000
     8 O4       1.8799   6.5066  -6.3798   O.3       1 RES1   0.0000
     9 C1       3.6584   8.2157   0.3950   C.3       1 RES1   0.0000
    10 H1       3.8334   8.9879   0.9896   H         1 RES1   0.0000
    11 H2       4.3210   8.2293  -0.3398   H         1 RES1   0.0000
    12 C2       2.2479   8.2970  -0.1687   C.3       1 RES1   0.0000
    13 H3       2.1620   9.0876  -0.7583   H         1 RES1   0.0000
    14 H4       1.5916   8.3819   0.5670   H         1 RES1   0.0000
    15 C3       2.8447   7.0500   2.8699   C.3       1 RES1   0.0000
    16 H5       1.9122   7.2517   2.6046   H         1 RES1   0.0000
    17 H6       2.8183   6.2375   3.4345   H         1 RES1   0.0000
    18 C4       3.3455   8.2057   3.7352   C.3       1 RES1   0.0000
    19 H7       4.1783   7.9276   4.1919   H         1 RES1   0.0000
    20 H8       3.5647   8.9728   3.1500   H         1 RES1   0.0000
    21 C5       2.3381   8.6559   4.7813   C.3       1 RES1   0.0000
    22 H9       2.6937   9.4559   5.2429   H         1 RES1   0.0000
    23 H10      1.5005   8.9195   4.3239   H         1 RES1   0.0000
    24 C6       5.5688   6.6206   1.8538   C.3       1 RES1   0.0000
    25 H11      5.6256   6.2108   2.7530   H         1 RES1   0.0000
    26 H12      6.0645   6.0323   1.2301   H         1 RES1   0.0000
    27 C7       6.2794   7.9798   1.8992   C.3       1 RES1   0.0000
    28 H13      6.2480   8.3905   0.9988   H         1 RES1   0.0000
    29 H14      5.7938   8.5771   2.5217   H         1 RES1   0.0000
    30 C8       7.7272   7.8744   2.3441   C.3       1 RES1   0.0000
    31 H15      7.7606   7.5055   3.2626   H         1 RES1   0.0000
    32 H16      8.2076   7.2485   1.7459   H         1 RES1   0.0000
    33 C9       0.1094   6.8421  -1.4108   C.3       1 RES1   0.0000
    34 H17     -0.1126   6.3275  -2.2269   H         1 RES1   0.0000
    35 H18     -0.3524   6.4104  -0.6488   H         1 RES1   0.0000
    36 C10     -0.4300   8.2717  -1.5680   C.3       1 RES1   0.0000
    37 H19     -0.4252   8.7152  -0.6826   H         1 RES1   0.0000
    38 H20      0.1764   8.7794  -2.1635   H         1 RES1   0.0000
    39 C11     -1.8389   8.3242  -2.1384   C.3       1 RES1   0.0000
    40 H21     -2.3828   7.6070  -1.7275   H         1 RES1   0.0000
    41 H22     -2.2531   9.1926  -1.9035   H         1 RES1   0.0000
    42 C12      2.5860   7.2713  -2.7732   C.3       1 RES1   0.0000
    43 H23      2.4446   8.2472  -2.8655   H         1 RES1   0.0000
    44 H24      3.5632   7.1126  -2.7785   H         1 RES1   0.0000
    45 C13      1.9898   6.5899  -3.9939   C.3       1 RES1   0.0000
    46 H25      2.1813   5.6202  -3.9452   H         1 RES1   0.0000
    47 H26      1.0067   6.7043  -3.9769   H         1 RES1   0.0000
    48 C14      2.5045   7.1094  -5.2561   C.3       1 RES1   0.0000
    49 H27      2.3569   8.0884  -5.2890   H         1 RES1   0.0000
    50 H28      3.4799   6.9485  -5.3012   H         1 RES1   0.0000
    51 H29      2.6809   7.2663   5.9664   H         1 RES1   0.0000
    52 H30      8.0514   9.5289   2.8553   H         1 RES1   0.0000
    53 H31     -1.8839   7.3727  -3.7252   H         1 RES1   0.0000
    54 H32      2.3758   6.6555  -7.0410   H         1 RES1   0.0000
    55 Cl1A     4.8981   5.2340  -1.2688   Cl        1 RES1   0.0000
    56 P1A      2.0707   3.3839  -1.3397   P.3       1 RES1   0.0000
    57 P2A      3.9330   3.2775   1.1291   P.3       1 RES1   0.0000
    58 O1A      3.8286   2.3699  -5.7580   O.3       1 RES1   0.0000
    59 O2A     -2.5193   0.8846  -2.3223   O.3       1 RES1   0.0000
    60 O3A      7.7143   1.8617   3.5643   O.3       1 RES1   0.0000
    61 O4A      3.9830   3.5218   6.3798   O.3       1 RES1   0.0000
    62 C1A      2.2045   1.8127  -0.3950   C.3       1 RES1   0.0000
    63 H1A      2.0295   1.0404  -0.9896   H         1 RES1   0.0000
    64 H2A      1.5419   1.7991   0.3398   H         1 RES1   0.0000
    65 C2A      3.6151   1.7313   0.1687   C.3       1 RES1   0.0000
    66 H3A      3.7009   0.9408   0.7583   H         1 RES1   0.0000
    67 H4A      4.2713   1.6465  -0.5670   H         1 RES1   0.0000
    68 C3A      3.0182   2.9784  -2.8699   C.3       1 RES1   0.0000
    69 H5A      3.9507   2.7766  -2.6046   H         1 RES1   0.0000
    70 H6A      3.0446   3.7908  -3.4345   H         1 RES1   0.0000
    71 C4A      2.5174   1.8226  -3.7352   C.3       1 RES1   0.0000
    72 H7A      1.6846   2.1008  -4.1919   H         1 RES1   0.0000
    73 H8A      2.2983   1.0555  -3.1500   H         1 RES1   0.0000
    74 C5A      3.5248   1.3725  -4.7813   C.3       1 RES1   0.0000
    75 H9A      3.1693   0.5725  -5.2429   H         1 RES1   0.0000
    76 H10A     4.3624   1.1088  -4.3239   H         1 RES1   0.0000
    77 C6A      0.2941   3.4077  -1.8538   C.3       1 RES1   0.0000
    78 H11A     0.2373   3.8175  -2.7530   H         1 RES1   0.0000
    79 H12A    -0.2015   3.9961  -1.2301   H         1 RES1   0.0000
    80 C7A     -0.4164   2.0485  -1.8992   C.3       1 RES1   0.0000
    81 H13A    -0.3851   1.6378  -0.9988   H         1 RES1   0.0000
    82 H14A     0.0691   1.4512  -2.5217   H         1 RES1   0.0000
    83 C8A     -1.8643   2.1540  -2.3441   C.3       1 RES1   0.0000
    84 H15A    -1.8977   2.5229  -3.2626   H         1 RES1   0.0000
    85 H16A    -2.3447   2.7798  -1.7459   H         1 RES1   0.0000
    86 C9A      5.7536   3.1862   1.4108   C.3       1 RES1   0.0000
    87 H17A     5.9755   3.7009   2.2269   H         1 RES1   0.0000
    88 H18A     6.2153   3.6180   0.6488   H         1 RES1   0.0000
    89 C10A     6.2929   1.7566   1.5680   C.3       1 RES1   0.0000
    90 H19A     6.2881   1.3131   0.6826   H         1 RES1   0.0000
    91 H20A     5.6865   1.2489   2.1635   H         1 RES1   0.0000
    92 C11A     7.7018   1.7041   2.1384   C.3       1 RES1   0.0000
    93 H21A     8.2457   2.4213   1.7275   H         1 RES1   0.0000
    94 H22A     8.1160   0.8357   1.9035   H         1 RES1   0.0000
    95 C12A     3.2769   2.7571   2.7732   C.3       1 RES1   0.0000
    96 H23A     3.4183   1.7811   2.8655   H         1 RES1   0.0000
    97 H24A     2.2998   2.9157   2.7785   H         1 RES1   0.0000
    98 C13A     3.8732   3.4384   3.9939   C.3       1 RES1   0.0000
    99 H25A     3.6816   4.4081   3.9452   H         1 RES1   0.0000
   100 H26A     4.8562   3.3241   3.9769   H         1 RES1   0.0000
   101 C14A     3.3584   2.9189   5.2561   C.3       1 RES1   0.0000
   102 H27A     3.5061   1.9399   5.2890   H         1 RES1   0.0000
   103 H28A     2.3830   3.0799   5.3012   H         1 RES1   0.0000
   104 H29A     3.1821   2.7620  -5.9664   H         1 RES1   0.0000
   105 H30A    -2.1885   0.4994  -2.8553   H         1 RES1   0.0000
   106 H31A     7.7468   2.6556   3.7252   H         1 RES1   0.0000
   107 H32A     3.4872   3.3729   7.0410   H         1 RES1   0.0000
@<TRIPOS>BOND
     1     1     2    1
     2     3     1    1
     3     4     1    1
     4     5    21    1
     5     6    30    1
     6     7    39    1
     7     8    48    1
     8     9     3    1
     9    10     9    1
    10    11     9    1
    11    12     4    1
    12    13    12    1
    13    14    12    1
    14    15     3    1
    15    16    15    1
    16    17    15    1
    17    18    15    1
    18    19    18    1
    19    20    18    1
    20    21    18    1
    21    22    21    1
    22    23    21    1
    23    24     3    1
    24    25    24    1
    25    26    24    1
    26    27    24    1
    27    28    27    1
    28    29    27    1
    29    30    27    1
    30    31    30    1
    31    32    30    1
    32    33     4    1
    33    34    33    1
    34    35    33    1
    35    36    33    1
    36    37    36    1
    37    38    36    1
    38    39    36    1
    39    40    39    1
    40    41    39    1
    41    42     4    1
    42    43    42    1
    43    44    42    1
    44    45    42    1
    45    46    45    1
    46    47    45    1
    47    48    45    1
    48    49    48    1
    49    50    48    1
    50    51     5    1
    51    52     6    1
    52    53     7    1
    53    54     8    1
    54    55     1    1
    55    56     1    1
    56    57     1    1
    57    58    74    1
    58    59    83    1
    59    60    92    1
    60    61   101    1
    61    62    56    1
    62    63    62    1
    63    64    62    1
    64    65    57    1
    65    66    65    1
    66    67    65    1
    67    68    56    1
    68    69    68    1
    69    70    68    1
    70    71    68    1
    71    72    71    1
    72    73    71    1
    73    74    71    1
    74    75    74    1
    75    76    74    1
    76    77    56    1
    77    78    77    1
    78    79    77    1
    79    80    77    1
    80    81    80    1
    81    82    80    1
    82    83    80    1
    83    84    83    1
    84    85    83    1
    85    86    57    1
    86    87    86    1
    87    88    86    1
    88    89    86    1
    89    90    89    1
    90    91    89    1
    91    92    89    1
    92    93    92    1
    93    94    92    1
    94    95    57    1
    95    96    95    1
    96    97    95    1
    97    98    95    1
    98    99    98    1
    99   100    98    1
   100   101    98    1
   101   102   101    1
   102   103   101    1
   103   104    58    1
   104   105    59    1
   105   106    60    1
   106   107    61    1
   107     9    12    1
   108    62    65    1
@<TRIPOS>SUBSTRUCTURE
     1 RES1        1 GROUP             0 ****  ****    0  
@<TRIPOS>CRYSIN
    8.7120   10.4252   10.7441   96.0860  104.2150  105.8600     2     1
