@<TRIPOS>MOLECULE
WABMOF
   179   186     1     0     0
SMALL
NO_CHARGES
****
Generated from the CSD

@<TRIPOS>ATOM
     1 Fe1      0.9147   3.8469   0.5572   Fe        1 RES1   0.0000
     2 O1       0.2820   5.2482   1.7640   O.3       1 RES1   0.0000
     3 O2       1.5820   2.7619   2.0590   O.3       1 RES1   0.0000
     4 O3      -4.8513   6.8646   4.4544   O.3       1 RES1   0.0000
     5 O4      -3.4057   8.8979   5.3428   O.3       1 RES1   0.0000
     6 O5       6.8641   1.5338   4.7433   O.3       1 RES1   0.0000
     7 O6      -0.8520   9.2662   4.5891   O.3       1 RES1   0.0000
     8 O7       5.4382  -0.4104   5.9199   O.3       1 RES1   0.0000
     9 O8       2.8450  -0.7514   5.4111   O.3       1 RES1   0.0000
    10 N1       0.9732   2.2552  -0.5386   N.ar      1 RES1   0.0000
    11 N2      -0.9059   3.4604   0.5432   N.2       1 RES1   0.0000
    12 N3       0.8303   5.1009  -0.9170   N.ar      1 RES1   0.0000
    13 N4       2.7151   4.3643   0.5362   N.2       1 RES1   0.0000
    14 N5      -0.5056   0.6556  -1.5374   N.ar      1 RES1   0.0000
    15 N6      -1.7580   4.2923   1.2241   N.2       1 RES1   0.0000
    16 N7       2.2291   6.6799  -2.0599   N.ar      1 RES1   0.0000
    17 N8       3.5803   3.7358   1.4116   N.2       1 RES1   0.0000
    18 C1       2.0252   1.5469  -0.9736   C.ar      1 RES1   0.0000
    19 H1       2.8837   1.8458  -0.7785   H         1 RES1   0.0000
    20 C2       1.8659   0.3887  -1.7033   C.ar      1 RES1   0.0000
    21 H2       2.5991  -0.1020  -2.0002   H         1 RES1   0.0000
    22 C3       0.5732  -0.0146  -1.9748   C.ar      1 RES1   0.0000
    23 H3       0.4440  -0.7833  -2.4818   H         1 RES1   0.0000
    24 C4      -0.2693   1.7565  -0.8273   C.ar      1 RES1   0.0000
    25 C5      -1.3703   2.4981  -0.2248   C.2       1 RES1   0.0000
    26 C6      -2.8052   2.1966  -0.5367   C.3       1 RES1   0.0000
    27 H4      -3.3735   2.6097   0.1315   H         1 RES1   0.0000
    28 H5      -2.9475   1.2368  -0.4985   H         1 RES1   0.0000
    29 C7      -3.1922   2.7102  -1.9175   C.3       1 RES1   0.0000
    30 H6      -4.1130   2.5007  -2.0893   H         1 RES1   0.0000
    31 H7      -2.6392   2.2913  -2.5814   H         1 RES1   0.0000
    32 H8      -3.0671   3.6608  -1.9515   H         1 RES1   0.0000
    33 C8      -0.9956   5.2013   1.8454   C.2       1 RES1   0.0000
    34 C9      -1.6699   6.2052   2.7087   C.ar      1 RES1   0.0000
    35 C10     -3.0139   6.0459   3.0757   C.ar      1 RES1   0.0000
    36 H9      -3.5204   5.3543   2.7172   H         1 RES1   0.0000
    37 C11     -3.5785   6.9343   3.9793   C.ar      1 RES1   0.0000
    38 C12     -2.8163   7.9974   4.4926   C.ar      1 RES1   0.0000
    39 C13     -1.4862   8.1666   4.0790   C.ar      1 RES1   0.0000
    40 C14     -0.9208   7.2655   3.1923   C.ar      1 RES1   0.0000
    41 H10     -0.0375   7.3718   2.9230   H         1 RES1   0.0000
    42 C15     -5.6449   5.7269   4.0578   C.3       1 RES1   0.0000
    43 H11     -5.1062   4.9238   4.1172   H         1 RES1   0.0000
    44 H12     -5.9213   5.8350   3.1351   H         1 RES1   0.0000
    45 C16     -6.8232   5.5820   4.8999   C.3       1 RES1   0.0000
    46 H13     -7.3812   4.8802   4.5287   H         1 RES1   0.0000
    47 H14     -7.3301   6.4072   4.8659   H         1 RES1   0.0000
    48 C17     -6.5336   5.2490   6.3635   C.3       1 RES1   0.0000
    49 H15     -5.8560   5.8609   6.6901   H         1 RES1   0.0000
    50 H16     -7.3405   5.4037   6.8789   H         1 RES1   0.0000
    51 C18     -6.0779   3.8746   6.6180   C.3       1 RES1   0.0000
    52 H17     -6.7123   3.2464   6.2362   H         1 RES1   0.0000
    53 H18     -5.2203   3.7321   6.1874   H         1 RES1   0.0000
    54 C19     -5.9508   3.6319   8.0625   C.3       1 RES1   0.0000
    55 H19     -5.1290   4.0229   8.3977   H         1 RES1   0.0000
    56 H20     -6.6969   4.0328   8.5355   H         1 RES1   0.0000
    57 C20     -5.9390   2.2056   8.2704   C.3       1 RES1   0.0000
    58 H21     -5.8474   2.0184   9.2058   H         1 RES1   0.0000
    59 H22     -5.2072   1.8162   7.7889   H         1 RES1   0.0000
    60 H23     -6.7664   1.8297   7.9501   H         1 RES1   0.0000
    61 C21     -3.0089   8.7844   6.7135   C.3       1 RES1   0.0000
    62 H24     -2.1070   9.1207   6.8259   H         1 RES1   0.0000
    63 H25     -3.0230   7.8539   6.9850   H         1 RES1   0.0000
    64 C22     -3.9460   9.5667   7.5534   C.3       1 RES1   0.0000
    65 H26     -4.0820  10.4437   7.1610   H         1 RES1   0.0000
    66 H27     -3.5678   9.6871   8.4380   H         1 RES1   0.0000
    67 C23     -5.3045   8.8255   7.6616   C.3       1 RES1   0.0000
    68 H28     -5.6510   8.6703   6.7686   H         1 RES1   0.0000
    69 H29     -5.1598   7.9607   8.0774   H         1 RES1   0.0000
    70 C24     -6.3515   9.5980   8.4740   C.3       1 RES1   0.0000
    71 H30     -5.9960   9.7715   9.3585   H         1 RES1   0.0000
    72 H31     -6.5100  10.4542   8.0455   H         1 RES1   0.0000
    73 C25     -7.6619   8.8687   8.6076   C.3       1 RES1   0.0000
    74 H32     -7.9659   8.6144   7.7231   H         1 RES1   0.0000
    75 H33     -7.5117   8.0535   9.1104   H         1 RES1   0.0000
    76 C26     -8.7426   9.6409   9.2737   C.3       1 RES1   0.0000
    77 H34     -9.5335   9.1008   9.3310   H         1 RES1   0.0000
    78 H35     -8.9319  10.4329   8.7646   H         1 RES1   0.0000
    79 H36     -8.4605   9.8900  10.1582   H         1 RES1   0.0000
    80 C27      0.5425   9.4050   4.3081   C.3       1 RES1   0.0000
    81 H37      0.6780   9.5630   3.3599   H         1 RES1   0.0000
    82 H38      1.0146   8.5947   4.5541   H         1 RES1   0.0000
    83 C28      1.0646  10.5691   5.1056   C.3       1 RES1   0.0000
    84 H39      2.0344  10.5492   5.0887   H         1 RES1   0.0000
    85 H40      0.7839  10.4661   6.0283   H         1 RES1   0.0000
    86 C29      0.5967  11.9167   4.6008   C.3       1 RES1   0.0000
    87 H41     -0.3726  11.9460   4.6241   H         1 RES1   0.0000
    88 H42      0.8779  12.0279   3.6802   H         1 RES1   0.0000
    89 C30      1.1525  13.0635   5.4365   C.3       1 RES1   0.0000
    90 H43      0.6907  13.8809   5.1883   H         1 RES1   0.0000
    91 H44      0.9588  12.8901   6.3719   H         1 RES1   0.0000
    92 C31      2.6653  13.2894   5.2817   C.3       1 RES1   0.0000
    93 H45      2.9748  13.8717   5.9923   H         1 RES1   0.0000
    94 H46      3.1241  12.4389   5.3729   H         1 RES1   0.0000
    95 C32      3.0119  13.8954   3.9644   C.3       1 RES1   0.0000
    96 H47      3.9635  14.0067   3.9050   H         1 RES1   0.0000
    97 H48      2.5838  14.7512   3.8838   H         1 RES1   0.0000
    98 H49      2.7118  13.3193   3.2581   H         1 RES1   0.0000
    99 C33     -0.1948   5.4403  -1.7139   C.ar      1 RES1   0.0000
   100 H50     -1.0192   5.0269  -1.5930   H         1 RES1   0.0000
   101 C34     -0.0564   6.3873  -2.7066   C.ar      1 RES1   0.0000
   102 H51     -0.7672   6.6156  -3.2602   H         1 RES1   0.0000
   103 C35      1.1892   6.9865  -2.8423   C.ar      1 RES1   0.0000
   104 H52      1.3050   7.6267  -3.5063   H         1 RES1   0.0000
   105 C36      2.0212   5.7480  -1.1263   C.ar      1 RES1   0.0000
   106 C37      3.1037   5.3109  -0.2567   C.2       1 RES1   0.0000
   107 C38      4.4643   5.9511  -0.3054   C.3       1 RES1   0.0000
   108 H53      4.7835   5.9502  -1.2218   H         1 RES1   0.0000
   109 H54      5.0823   5.4239   0.2248   H         1 RES1   0.0000
   110 C39      4.4546   7.3851   0.2185   C.3       1 RES1   0.0000
   111 H55      5.3417   7.7493   0.1676   H         1 RES1   0.0000
   112 H56      4.1582   7.3901   1.1306   H         1 RES1   0.0000
   113 H57      3.8592   7.9160  -0.3139   H         1 RES1   0.0000
   114 C40      2.8583   2.9028   2.1530   C.2       1 RES1   0.0000
   115 C41      3.5685   2.0536   3.1457   C.ar      1 RES1   0.0000
   116 C42      4.9227   2.2449   3.4235   C.ar      1 RES1   0.0000
   117 H58      5.4072   2.8939   2.9675   H         1 RES1   0.0000
   118 C43      5.5443   1.4542   4.3908   C.ar      1 RES1   0.0000
   119 C44      4.8160   0.4473   5.0377   C.ar      1 RES1   0.0000
   120 C45      3.4690   0.2533   4.7302   C.ar      1 RES1   0.0000
   121 C46      2.8438   1.0673   3.7926   C.ar      1 RES1   0.0000
   122 H59      1.9416   0.9483   3.5996   H         1 RES1   0.0000
   123 C47      7.5907   2.7213   4.4014   C.3       1 RES1   0.0000
   124 H60      7.4054   2.9496   3.4787   H         1 RES1   0.0000
   125 H61      8.5416   2.5441   4.4778   H         1 RES1   0.0000
   126 C48      7.2442   3.8780   5.2647   C.3       1 RES1   0.0000
   127 H62      6.3043   4.0814   5.1353   H         1 RES1   0.0000
   128 H63      7.7513   4.6453   4.9571   H         1 RES1   0.0000
   129 C49      7.4901   3.7135   6.7516   C.3       1 RES1   0.0000
   130 H64      6.9592   2.9761   7.0910   H         1 RES1   0.0000
   131 H65      8.4256   3.5096   6.9086   H         1 RES1   0.0000
   132 C50      7.1223   4.9718   7.4771   C.3       1 RES1   0.0000
   133 H66      6.1903   5.1752   7.2989   H         1 RES1   0.0000
   134 H67      7.6561   5.7018   7.1292   H         1 RES1   0.0000
   135 C51      7.3206   4.8924   8.9449   C.3       1 RES1   0.0000
   136 H68      8.2701   4.8414   9.1379   H         1 RES1   0.0000
   137 H69      6.9041   4.0831   9.2822   H         1 RES1   0.0000
   138 C52      6.7146   6.1204   9.6661   C.3       1 RES1   0.0000
   139 H70      6.8452   6.0310  10.6143   H         1 RES1   0.0000
   140 H71      5.7762   6.1710   9.4752   H         1 RES1   0.0000
   141 H72      7.1492   6.9189   9.3564   H         1 RES1   0.0000
   142 C53      5.5235   0.0892   7.2480   C.3       1 RES1   0.0000
   143 H73      4.6480   0.3724   7.5556   H         1 RES1   0.0000
   144 H74      6.1211   0.8538   7.2798   H         1 RES1   0.0000
   145 C54      6.0494  -1.0183   8.1240   C.3       1 RES1   0.0000
   146 H75      6.6784  -1.5515   7.6149   H         1 RES1   0.0000
   147 H76      6.5296  -0.6281   8.8707   H         1 RES1   0.0000
   148 C55      5.0826  -1.8251   8.6034   C.3       1 RES1   0.0000
   149 H77      4.5306  -2.0819   7.8483   H         1 RES1   0.0000
   150 H78      4.5261  -1.2847   9.1846   H         1 RES1   0.0000
   151 C56      5.4723  -3.3321   9.5007   C.3       1 RES1   0.0000
   152 H79      4.7022  -3.9146   9.5664   H         1 RES1   0.0000
   153 H80      6.2032  -3.8142   9.0807   H         1 RES1   0.0000
   154 C57      5.7911  -2.9255  10.5485   C.3       1 RES1   0.0000
   155 H81      5.0593  -2.4560  10.9855   H         1 RES1   0.0000
   156 H82      6.5612  -2.3428  10.4934   H         1 RES1   0.0000
   157 C58      6.1513  -4.3882  11.3248   C.3       1 RES1   0.0000
   158 H83      6.5049  -4.2063  12.1988   H         1 RES1   0.0000
   159 H84      6.8023  -4.8707  10.8094   H         1 RES1   0.0000
   160 H85      5.3528  -4.9144  11.4055   H         1 RES1   0.0000
   161 C59      1.4096  -0.8944   5.2180   C.3       1 RES1   0.0000
   162 H86      1.2107  -1.0417   4.2805   H         1 RES1   0.0000
   163 H87      0.9505  -0.0901   5.5065   H         1 RES1   0.0000
   164 C60      0.9635  -2.0463   6.0177   C.3       1 RES1   0.0000
   165 H88      0.9698  -1.7332   6.9362   H         1 RES1   0.0000
   166 H89      0.0293  -2.1685   5.7865   H         1 RES1   0.0000
   167 C61      1.5002  -3.3411   6.0707   C.3       1 RES1   0.0000
   168 H90      2.4317  -3.2489   6.3083   H         1 RES1   0.0000
   169 H91      1.4727  -3.6905   5.1671   H         1 RES1   0.0000
   170 C62      0.9480  -4.3687   6.9277   C.3       1 RES1   0.0000
   171 H92     -0.0060  -4.4765   6.7898   H         1 RES1   0.0000
   172 H93      1.3910  -5.2218   6.7919   H         1 RES1   0.0000
   173 C63      1.2382  -3.8285   8.2237   C.3       1 RES1   0.0000
   174 H94      0.9441  -2.9124   8.0922   H         1 RES1   0.0000
   175 H95      2.2035  -3.7802   8.1728   H         1 RES1   0.0000
   176 C64      1.0631  -3.9420   9.6767   C.3       1 RES1   0.0000
   177 H96      1.4123  -3.1606  10.1052   H         1 RES1   0.0000
   178 H97      1.5281  -4.7194   9.9949   H         1 RES1   0.0000
   179 H98      0.1263  -4.0288   9.8803   H         1 RES1   0.0000
@<TRIPOS>BOND
     1     1     2    1
     2     2    33    1
     3     3     1    1
     4     4    37    1
     5     5    38    1
     6     6   118    1
     7     7    39    1
     8     8   119    1
     9     9   120    1
    10    10     1    1
    11    11     1    1
    12    12     1    1
    13    13     1    1
    14    14    22   ar
    15    15    11    1
    16    16   103   ar
    17    17    13    1
    18    18    10   ar
    19    19    18    1
    20    20    18   ar
    21    21    20    1
    22    22    20   ar
    23    23    22    1
    24    24    10   ar
    25    25    11    2
    26    26    25    1
    27    27    26    1
    28    28    26    1
    29    29    26    1
    30    30    29    1
    31    31    29    1
    32    32    29    1
    33    33    15    2
    34    34    33    1
    35    35    34   ar
    36    36    35    1
    37    37    35   ar
    38    38    37   ar
    39    39    38   ar
    40    40    34   ar
    41    41    40    1
    42    42     4    1
    43    43    42    1
    44    44    42    1
    45    45    42    1
    46    46    45    1
    47    47    45    1
    48    48    45    1
    49    49    48    1
    50    50    48    1
    51    51    48    1
    52    52    51    1
    53    53    51    1
    54    54    51    1
    55    55    54    1
    56    56    54    1
    57    57    54    1
    58    58    57    1
    59    59    57    1
    60    60    57    1
    61    61     5    1
    62    62    61    1
    63    63    61    1
    64    64    61    1
    65    65    64    1
    66    66    64    1
    67    67    64    1
    68    68    67    1
    69    69    67    1
    70    70    67    1
    71    71    70    1
    72    72    70    1
    73    73    70    1
    74    74    73    1
    75    75    73    1
    76    76    73    1
    77    77    76    1
    78    78    76    1
    79    79    76    1
    80    80     7    1
    81    81    80    1
    82    82    80    1
    83    83    80    1
    84    84    83    1
    85    85    83    1
    86    86    83    1
    87    87    86    1
    88    88    86    1
    89    89    86    1
    90    90    89    1
    91    91    89    1
    92    92    89    1
    93    93    92    1
    94    94    92    1
    95    95    92    1
    96    96    95    1
    97    97    95    1
    98    98    95    1
    99    99    12   ar
   100   100    99    1
   101   101    99   ar
   102   102   101    1
   103   103   101   ar
   104   104   103    1
   105   105    12   ar
   106   106    13    2
   107   107   106    1
   108   108   107    1
   109   109   107    1
   110   110   107    1
   111   111   110    1
   112   112   110    1
   113   113   110    1
   114   114     3    1
   115   115   114    1
   116   116   115   ar
   117   117   116    1
   118   118   116   ar
   119   119   118   ar
   120   120   119   ar
   121   121   115   ar
   122   122   121    1
   123   123     6    1
   124   124   123    1
   125   125   123    1
   126   126   123    1
   127   127   126    1
   128   128   126    1
   129   129   126    1
   130   130   129    1
   131   131   129    1
   132   132   129    1
   133   133   132    1
   134   134   132    1
   135   135   132    1
   136   136   135    1
   137   137   135    1
   138   138   135    1
   139   139   138    1
   140   140   138    1
   141   141   138    1
   142   142     8    1
   143   143   142    1
   144   144   142    1
   145   145   142    1
   146   146   145    1
   147   147   145    1
   148   148   145    1
   149   149   148    1
   150   150   148    1
   151   151   148    1
   152   152   151    1
   153   153   151    1
   154   154   151    1
   155   155   154    1
   156   156   154    1
   157   157   154    1
   158   158   157    1
   159   159   157    1
   160   160   157    1
   161   161     9    1
   162   162   161    1
   163   163   161    1
   164   164   161    1
   165   165   164    1
   166   166   164    1
   167   167   164    1
   168   168   167    1
   169   169   167    1
   170   170   167    1
   171   171   170    1
   172   172   170    1
   173   173   170    1
   174   174   173    1
   175   175   173    1
   176   176   173    1
   177   177   176    1
   178   178   176    1
   179   179   176    1
   180    14    24   ar
   181    16   105   ar
   182    17   114    2
   183    24    25    1
   184    39    40   ar
   185   105   106    1
   186   120   121   ar
@<TRIPOS>SUBSTRUCTURE
     1 RES1        1 GROUP             0 ****  ****    0  
@<TRIPOS>CRYSIN
    8.8252   17.5445   21.5988   96.1590   97.4400  101.9260     2     1
