@<TRIPOS>MOLECULE
WAHBAI
   121   126     1     0     0
SMALL
NO_CHARGES
****
Generated from the CSD

@<TRIPOS>ATOM
     1 Fe1      1.4209  10.0267   4.5965   Fe        1 RES1   0.0000
     2 C1       0.8155  11.9357   4.5393   C.2       1 RES1   0.0000
     3 C2       1.4026  12.0146   6.8970   C.3       1 RES1   0.0000
     4 C3       0.3190  10.9996   7.3087   C.3       1 RES1   0.0000
     5 C4       0.2172   9.7763   6.3715   C.3       1 RES1   0.0000
     6 C5       2.7133  11.3790   6.7629   C.2       1 RES1   0.0000
     7 C6       1.3220  14.1648   5.5903   C.3       1 RES1   0.0000
     8 C7       2.8179  14.3921   5.8008   C.3       1 RES1   0.0000
     9 C8       0.4767  14.9877   6.5571   C.3       1 RES1   0.0000
    10 C9       4.2884   9.9060   5.7025   C.3       1 RES1   0.0000
    11 C10      5.2513  10.9169   5.1240   C.3       1 RES1   0.0000
    12 C11      4.7932   9.3476   7.0233   C.3       1 RES1   0.0000
    13 C12      0.4774  10.6552   8.7589   C.2       1 RES1   0.0000
    14 C13     -0.4906   9.4684  10.5771   C.3       1 RES1   0.0000
    15 C14      0.6657   8.5443   6.9828   C.2       1 RES1   0.0000
    16 C15      0.4063   6.1727   7.0639   C.3       1 RES1   0.0000
    17 C16     -0.0808   9.6463   3.6707   C.1       1 RES1   0.0000
    18 C17      1.9187   8.2354   4.4675   C.1       1 RES1   0.0000
    19 C18      2.3523  10.4406   3.0828   C.1       1 RES1   0.0000
    20 C19     -0.4003  13.5700   3.1405   C.ar      1 RES1   0.0000
    21 C20     -1.6893  13.7850   3.6582   C.ar      1 RES1   0.0000
    22 C21     -2.4586  14.8365   3.1514   C.ar      1 RES1   0.0000
    23 C22     -1.9917  15.6479   2.1425   C.ar      1 RES1   0.0000
    24 C23     -0.7275  15.4320   1.6326   C.ar      1 RES1   0.0000
    25 C24      0.0709  14.4058   2.1223   C.ar      1 RES1   0.0000
    26 C25     -2.2445  12.8633   4.7295   C.3       1 RES1   0.0000
    27 C26      1.4505  14.1735   1.5469   C.3       1 RES1   0.0000
    28 C27     -2.3002   9.1047   2.5043   C.ar      1 RES1   0.0000
    29 C28     -3.1003   8.1180   3.0750   C.ar      1 RES1   0.0000
    30 C29     -4.3022   7.8145   2.4279   C.ar      1 RES1   0.0000
    31 C30     -4.6436   8.4737   1.2849   C.ar      1 RES1   0.0000
    32 C31     -3.8499   9.4543   0.7438   C.ar      1 RES1   0.0000
    33 C32     -2.6448   9.8103   1.3644   C.ar      1 RES1   0.0000
    34 C33     -2.7058   7.4119   4.3428   C.3       1 RES1   0.0000
    35 C34     -1.7932  10.9324   0.8389   C.3       1 RES1   0.0000
    36 C35      2.3796   5.7385   4.0933   C.ar      1 RES1   0.0000
    37 C36      3.3945   5.1239   4.8044   C.ar      1 RES1   0.0000
    38 C37      3.5348   3.7407   4.6687   C.ar      1 RES1   0.0000
    39 C38      2.6919   3.0473   3.8438   C.ar      1 RES1   0.0000
    40 C39      1.7041   3.6768   3.1436   C.ar      1 RES1   0.0000
    41 C40      1.5300   5.0551   3.2434   C.ar      1 RES1   0.0000
    42 C41      4.2818   5.9188   5.7181   C.3       1 RES1   0.0000
    43 C42      0.4555   5.7466   2.4685   C.3       1 RES1   0.0000
    44 C43      3.2654  10.9160   0.7454   C.ar      1 RES1   0.0000
    45 C44      4.1613  11.9307   0.4195   C.ar      1 RES1   0.0000
    46 C45      4.4583  12.1007  -0.9434   C.ar      1 RES1   0.0000
    47 C46      3.8905  11.2957  -1.8728   C.ar      1 RES1   0.0000
    48 C47      3.0374  10.2780  -1.5313   C.ar      1 RES1   0.0000
    49 C48      2.6935  10.0636  -0.2043   C.ar      1 RES1   0.0000
    50 C49      4.8198  12.7597   1.4658   C.3       1 RES1   0.0000
    51 C50      1.7985   8.9291   0.2043   C.3       1 RES1   0.0000
    52 N1       0.9968  12.7146   5.6729   N.pl3     1 RES1   0.0000
    53 N2       2.9134  10.5080   5.8226   N.2       1 RES1   0.0000
    54 N3       0.3131  12.4055   3.4337   N.2       1 RES1   0.0000
    55 N4      -1.0801   9.3910   3.1343   N.1       1 RES1   0.0000
    56 N5       2.1847   7.0985   4.4052   N.1       1 RES1   0.0000
    57 N6       2.9042  10.7294   2.0864   N.1       1 RES1   0.0000
    58 O1       1.3729  11.0255   9.4918   O.2       1 RES1   0.0000
    59 O2      -0.5700   9.9241   9.1924   O.3       1 RES1   0.0000
    60 O3       1.5724   8.4092   7.7843   O.2       1 RES1   0.0000
    61 O4      -0.0259   7.4499   6.5352   O.3       1 RES1   0.0000
    62 H1       1.4410  12.7336   7.6876   H         1 RES1   0.0000
    63 H2      -0.6251  11.4950   7.2510   H         1 RES1   0.0000
    64 H3      -0.6736   9.6955   5.9099   H         1 RES1   0.0000
    65 H4       3.4921  11.5285   7.4849   H         1 RES1   0.0000
    66 H5       1.0189  14.4111   4.5533   H         1 RES1   0.0000
    67 H6       4.0839   9.0371   5.0991   H         1 RES1   0.0000
    68 H7      -3.4155  14.9277   3.6801   H         1 RES1   0.0000
    69 H8      -2.6059  16.4142   1.6529   H         1 RES1   0.0000
    70 H9      -0.2895  15.9782   0.8109   H         1 RES1   0.0000
    71 H10     -4.8757   6.9980   2.8536   H         1 RES1   0.0000
    72 H11     -5.6051   8.3385   0.8265   H         1 RES1   0.0000
    73 H12     -4.0259  10.1031  -0.1092   H         1 RES1   0.0000
    74 H13      4.3188   3.2664   5.2550   H         1 RES1   0.0000
    75 H14      2.7882   1.9718   3.8360   H         1 RES1   0.0000
    76 H15      0.9504   3.1920   2.5261   H         1 RES1   0.0000
    77 H16      5.1041  12.9480  -0.9044   H         1 RES1   0.0000
    78 H17      4.0975  11.4828  -2.9160   H         1 RES1   0.0000
    79 H18      2.5979   9.5567  -2.2455   H         1 RES1   0.0000
    80 H19      2.9849  14.0955   6.8300   H         1 RES1   0.0000
    81 H20      3.3514  13.8289   5.0835   H         1 RES1   0.0000
    82 H21      2.9741  15.4502   5.6293   H         1 RES1   0.0000
    83 H22     -0.5491  14.7504   6.4401   H         1 RES1   0.0000
    84 H23      0.8082  14.7477   7.5628   H         1 RES1   0.0000
    85 H24      0.6686  16.0436   6.5025   H         1 RES1   0.0000
    86 H25      4.8382  11.2251   4.1635   H         1 RES1   0.0000
    87 H26      5.1133  11.7175   5.8476   H         1 RES1   0.0000
    88 H27      6.0620  10.2353   4.8184   H         1 RES1   0.0000
    89 H28      4.8634  10.2592   7.6096   H         1 RES1   0.0000
    90 H29      3.9779   8.6359   7.2198   H         1 RES1   0.0000
    91 H30      5.6419   8.6937   6.8144   H         1 RES1   0.0000
    92 H31      0.4045   8.8499  10.5568   H         1 RES1   0.0000
    93 H32     -0.4785  10.3883  11.1961   H         1 RES1   0.0000
    94 H33     -1.4690   9.1171  10.7907   H         1 RES1   0.0000
    95 H34      1.3871   6.0215   6.6740   H         1 RES1   0.0000
    96 H35      0.3210   6.3213   8.1086   H         1 RES1   0.0000
    97 H36     -0.2964   5.5170   6.6116   H         1 RES1   0.0000
    98 H37     -2.0744  11.8999   4.2726   H         1 RES1   0.0000
    99 H38     -1.5559  12.8995   5.5825   H         1 RES1   0.0000
   100 H39     -3.1821  13.3260   5.0055   H         1 RES1   0.0000
   101 H40      2.1350  14.3061   2.3858   H         1 RES1   0.0000
   102 H41      1.5008  13.1293   1.2319   H         1 RES1   0.0000
   103 H42      1.6269  14.9413   0.8109   H         1 RES1   0.0000
   104 H43     -1.6539   7.1582   4.3662   H         1 RES1   0.0000
   105 H44     -2.5876   8.0324   5.2082   H         1 RES1   0.0000
   106 H45     -3.1936   6.5182   4.6157   H         1 RES1   0.0000
   107 H46     -1.4657  11.5348   1.6685   H         1 RES1   0.0000
   108 H47     -0.8560  10.4844   0.5614   H         1 RES1   0.0000
   109 H48     -2.1045  11.2326  -0.1559   H         1 RES1   0.0000
   110 H49      4.5677   6.9042   5.3798   H         1 RES1   0.0000
   111 H50      3.6561   6.4228   6.4713   H         1 RES1   0.0000
   112 H51      5.0735   5.3979   6.2218   H         1 RES1   0.0000
   113 H52     -0.1029   6.4328   3.0875   H         1 RES1   0.0000
   114 H53      0.8832   6.1299   1.5438   H         1 RES1   0.0000
   115 H54     -0.1639   5.0565   1.8868   H         1 RES1   0.0000
   116 H55      4.2348  13.0585   2.3078   H         1 RES1   0.0000
   117 H56      5.4148  12.1308   2.1051   H         1 RES1   0.0000
   118 H57      4.9791  13.7238   0.9980   H         1 RES1   0.0000
   119 H58      2.2563   8.4850   1.0962   H         1 RES1   0.0000
   120 H59      0.9403   9.3871   0.7173   H         1 RES1   0.0000
   121 H60      1.3422   8.4705  -0.6861   H         1 RES1   0.0000
@<TRIPOS>BOND
     1     1     2    1
     2     2    52    1
     3     3     4    1
     4     4     5    1
     5     5     1    1
     6     6     3    1
     7     7     8    1
     8     8    80    1
     9     9     7    1
    10    10    11    1
    11    11    86    1
    12    12    10    1
    13    13     4    1
    14    14    59    1
    15    15     5    1
    16    16    61    1
    17    17     1    1
    18    18     1    1
    19    19     1    1
    20    20    21   ar
    21    21    22   ar
    22    22    23   ar
    23    23    24   ar
    24    24    25   ar
    25    25    20   ar
    26    26    21    1
    27    27    25    1
    28    28    29   ar
    29    29    30   ar
    30    30    31   ar
    31    31    32   ar
    32    32    33   ar
    33    33    28   ar
    34    34    29    1
    35    35    33    1
    36    36    37   ar
    37    37    38   ar
    38    38    39   ar
    39    39    40   ar
    40    40    41   ar
    41    41    36   ar
    42    42    37    1
    43    43    41    1
    44    44    45   ar
    45    45    46   ar
    46    46    47   ar
    47    47    48   ar
    48    48    49   ar
    49    49    44   ar
    50    50    45    1
    51    51    49    1
    52    52     3    1
    53    53     1    1
    54    54     2    2
    55    55    17    3
    56    56    18    3
    57    57    19    3
    58    58    13    2
    59    59    13    1
    60    60    15    2
    61    61    15    1
    62    62     3    1
    63    63     4    1
    64    64     5    1
    65    65     6    1
    66    66     7    1
    67    67    10    1
    68    68    22    1
    69    69    23    1
    70    70    24    1
    71    71    30    1
    72    72    31    1
    73    73    32    1
    74    74    38    1
    75    75    39    1
    76    76    40    1
    77    77    46    1
    78    78    47    1
    79    79    48    1
    80    81     8    1
    81    82     8    1
    82    83     9    1
    83    84     9    1
    84    85     9    1
    85    87    11    1
    86    88    11    1
    87    89    12    1
    88    90    12    1
    89    91    12    1
    90    92    14    1
    91    93    14    1
    92    94    14    1
    93    95    16    1
    94    96    16    1
    95    97    16    1
    96    98    26    1
    97    99    26    1
    98   100    26    1
    99   101    27    1
   100   102    27    1
   101   103    27    1
   102   104    34    1
   103   105    34    1
   104   106    34    1
   105   107    35    1
   106   108    35    1
   107   109    35    1
   108   110    42    1
   109   111    42    1
   110   112    42    1
   111   113    43    1
   112   114    43    1
   113   115    43    1
   114   116    50    1
   115   117    50    1
   116   118    50    1
   117   119    51    1
   118   120    51    1
   119   121    51    1
   120     6    53    2
   121     7    52    1
   122    10    53    1
   123    20    54    1
   124    28    55    1
   125    36    56    1
   126    44    57    1
@<TRIPOS>SUBSTRUCTURE
     1 RES1        1 GROUP             0 ****  ****    0  
@<TRIPOS>CRYSIN
   10.3670   14.6150   15.7870   95.7800   96.6200   92.2100     2     1
