@<TRIPOS>MOLECULE
WAHGIV
   104   107     1     0     0
SMALL
NO_CHARGES
****
Generated from the CSD

@<TRIPOS>ATOM
     1 Fe1     11.2325   2.1031   3.7395   Fe        1 RES1   0.0000
     2 C1       8.6549   3.4624   6.1009   C.2       1 RES1   0.0000
     3 C2       9.1811   4.6704   5.8314   C.2       1 RES1   0.0000
     4 C3       8.7713   3.7672   3.7250   C.3       1 RES1   0.0000
     5 C4       8.4443   2.7436   4.8046   C.3       1 RES1   0.0000
     6 C5       9.5406   1.6665   2.9767   C.2       1 RES1   0.0000
     7 C6       9.7100   3.0756   2.7582   C.2       1 RES1   0.0000
     8 C7       8.0032   3.0932   7.3134   C.2       1 RES1   0.0000
     9 C8       7.7574   3.5618   9.6092   C.3       1 RES1   0.0000
    10 C9       9.3664   5.8277   6.8200   C.2       1 RES1   0.0000
    11 C10     10.4986   6.6171   8.6661   C.3       1 RES1   0.0000
    12 C11      9.9522   6.1036   3.8124   C.3       1 RES1   0.0000
    13 C12     11.1006   6.7400   4.5515   C.3       1 RES1   0.0000
    14 C13      8.8592   7.0463   3.4956   C.3       1 RES1   0.0000
    15 C14      9.0633   0.5654   2.0773   C.2       1 RES1   0.0000
    16 C15      8.4158   0.0766  -0.1365   C.3       1 RES1   0.0000
    17 C16      9.7454   3.5979   1.4164   C.2       1 RES1   0.0000
    18 C17     10.6523   3.5001  -0.7719   C.3       1 RES1   0.0000
    19 C18      9.1913   0.2635   5.1268   C.3       1 RES1   0.0000
    20 C19      9.8089   0.2632   6.5069   C.3       1 RES1   0.0000
    21 C20      7.7188  -0.1305   5.1542   C.3       1 RES1   0.0000
    22 C21     12.5682   2.4864   2.6290   C.1       1 RES1   0.0000
    23 C22     14.8736   3.0947   1.5056   C.3       1 RES1   0.0000
    24 C23     15.8346   2.1948   2.1119   C.3       1 RES1   0.0000
    25 C24     15.1582   4.5478   1.9481   C.3       1 RES1   0.0000
    26 C25     14.8430   3.1194   0.0000   C.3       1 RES1   0.0000
    27 C26     12.0581   0.4986   4.0982   C.1       1 RES1   0.0000
    28 C27     13.3794  -1.6422   4.5333   C.3       1 RES1   0.0000
    29 C28     14.5892  -1.4108   5.1523   C.3       1 RES1   0.0000
    30 C29     12.6995  -2.2847   5.7896   C.3       1 RES1   0.0000
    31 C30     13.2911  -2.6428   3.5866   C.3       1 RES1   0.0000
    32 C31     12.0564   3.0478   5.1159   C.1       1 RES1   0.0000
    33 C32     13.5992   3.3575   7.0640   C.3       1 RES1   0.0000
    34 C33     14.2038   2.0855   7.1186   C.3       1 RES1   0.0000
    35 C34     14.4938   4.4923   6.9547   C.3       1 RES1   0.0000
    36 C35     12.9259   3.5513   8.3020   C.3       1 RES1   0.0000
    37 N1       9.3997   4.9000   4.5260   N.pl3     1 RES1   0.0000
    38 N2       9.3997   1.5770   4.4514   N.3       1 RES1   0.0000
    39 N3      13.5420   2.7326   1.9663   N.1       1 RES1   0.0000
    40 N4      12.6167  -0.4835   4.2948   N.1       1 RES1   0.0000
    41 N5      12.6301   3.5237   6.0062   N.1       1 RES1   0.0000
    42 O1       7.2587   2.1278   7.4627   O.2       1 RES1   0.0000
    43 O2       8.2832   3.9026   8.3566   O.3       1 RES1   0.0000
    44 O3       8.5493   6.6909   6.8819   O.2       1 RES1   0.0000
    45 O4      10.4093   5.6515   7.5774   O.3       1 RES1   0.0000
    46 O5       9.0043  -0.6046   2.3340   O.2       1 RES1   0.0000
    47 O6       8.7211   1.0447   0.8957   O.3       1 RES1   0.0000
    48 O7       9.0690   4.5769   1.0396   O.2       1 RES1   0.0000
    49 O8      10.6411   3.0644   0.5808   O.3       1 RES1   0.0000
    50 H1       7.9312   4.1984   3.1497   H         1 RES1   0.0000
    51 H2       7.3896   2.3970   4.7154   H         1 RES1   0.0000
    52 H3      10.3330   5.7850   2.8220   H         1 RES1   0.0000
    53 H4       9.6817  -0.5235   4.5333   H         1 RES1   0.0000
    54 H5       6.6209   3.5355   9.5036   H         1 RES1   0.0000
    55 H6       8.0586   2.5486   9.8859   H         1 RES1   0.0000
    56 H7       7.9405   4.1945  10.4685   H         1 RES1   0.0000
    57 H8      10.4967   7.6550   8.2656   H         1 RES1   0.0000
    58 H9       9.5796   6.5392   9.3033   H         1 RES1   0.0000
    59 H10     11.3501   6.5204   9.3215   H         1 RES1   0.0000
    60 H11     10.7549   7.0709   5.5529   H         1 RES1   0.0000
    61 H12     11.9107   6.0005   4.7154   H         1 RES1   0.0000
    62 H13     11.5306   7.6004   4.0418   H         1 RES1   0.0000
    63 H14      8.1072   6.5648   2.8584   H         1 RES1   0.0000
    64 H15      8.3737   7.3853   4.4059   H         1 RES1   0.0000
    65 H16      9.2541   7.9229   2.9494   H         1 RES1   0.0000
    66 H17      9.2952  -0.5594  -0.2913   H         1 RES1   0.0000
    67 H18      7.5930  -0.5593   0.2185   H         1 RES1   0.0000
    68 H19      8.1326   0.4462  -1.1288   H         1 RES1   0.0000
    69 H20      9.6422   3.3182  -1.2016   H         1 RES1   0.0000
    70 H21     10.8182   4.5956  -0.7829   H         1 RES1   0.0000
    71 H22     11.3545   3.0707  -1.4929   H         1 RES1   0.0000
    72 H23     10.8822   0.4692   6.4450   H         1 RES1   0.0000
    73 H24      9.3310   1.0421   7.1186   H         1 RES1   0.0000
    74 H25      9.6675  -0.7059   7.0094   H         1 RES1   0.0000
    75 H26      7.1419   0.6277   5.6985   H         1 RES1   0.0000
    76 H27      7.3260  -0.1847   4.1328   H         1 RES1   0.0000
    77 H28      7.5518  -1.0934   5.6257   H         1 RES1   0.0000
    78 H29     15.7967   2.2380   3.2043   H         1 RES1   0.0000
    79 H30     15.6171   1.1406   1.8206   H         1 RES1   0.0000
    80 H31     16.8379   2.4341   1.7660   H         1 RES1   0.0000
    81 H32     14.3994   5.2361   1.5111   H         1 RES1   0.0000
    82 H33     15.0968   4.6340   3.0404   H         1 RES1   0.0000
    83 H34     16.1398   4.8408   1.6021   H         1 RES1   0.0000
    84 H35     14.5789   2.1566  -0.4005   H         1 RES1   0.0000
    85 H36     14.1238   3.8750  -0.3459   H         1 RES1   0.0000
    86 H37     15.8413   3.4098  -0.3641   H         1 RES1   0.0000
    87 H38     15.1891  -0.6956   4.5333   H         1 RES1   0.0000
    88 H39     14.4082  -0.8593   6.1173   H         1 RES1   0.0000
    89 H40     15.2178  -2.2498   5.3708   H         1 RES1   0.0000
    90 H41     12.7404  -1.5987   6.7181   H         1 RES1   0.0000
    91 H42     11.6514  -2.5697   5.6803   H         1 RES1   0.0000
    92 H43     13.2860  -3.1909   6.0626   H         1 RES1   0.0000
    93 H44     12.2259  -3.0085   3.5138   H         1 RES1   0.0000
    94 H45     13.5766  -2.3068   2.5853   H         1 RES1   0.0000
    95 H46     13.8686  -3.5974   3.7505   H         1 RES1   0.0000
    96 H47     13.4132   1.3138   7.2825   H         1 RES1   0.0000
    97 H48     14.7181   1.8541   6.2083   H         1 RES1   0.0000
    98 H49     14.9280   1.9405   7.9561   H         1 RES1   0.0000
    99 H50     15.0928   4.3791   5.8988   H         1 RES1   0.0000
   100 H51     14.1171   5.4738   6.9001   H         1 RES1   0.0000
   101 H52     15.3143   4.3929   7.6648   H         1 RES1   0.0000
   102 H53     12.3389   4.4012   8.4476   H         1 RES1   0.0000
   103 H54     12.1216   2.6424   8.4112   H         1 RES1   0.0000
   104 H55     13.5749   3.3471   9.1759   H         1 RES1   0.0000
@<TRIPOS>BOND
     1     1     6   un
     2     2     3    2
     3     3    10    1
     4     4     5    1
     5     5     2    1
     6     6     7    2
     7     7     1   un
     8     8     2    1
     9     9    43    1
    10    10    44    2
    11    11    45    1
    12    12    13    1
    13    13    60    1
    14    14    12    1
    15    15     6    1
    16    16    47    1
    17    17     7    1
    18    18    49    1
    19    19    20    1
    20    20    72    1
    21    21    19    1
    22    22     1    1
    23    23    24    1
    24    24    78    1
    25    25    23    1
    26    26    23    1
    27    27     1    1
    28    28    29    1
    29    29    87    1
    30    30    28    1
    31    31    28    1
    32    32     1    1
    33    33    34    1
    34    34    96    1
    35    35    33    1
    36    36    33    1
    37    37     3    1
    38    38     1    1
    39    39    22    3
    40    40    27    3
    41    41    32    3
    42    42     8    2
    43    43     8    1
    44    45    10    1
    45    46    15    2
    46    47    15    1
    47    48    17    2
    48    49    17    1
    49    50     4    1
    50    51     5    1
    51    52    12    1
    52    53    19    1
    53    54     9    1
    54    55     9    1
    55    56     9    1
    56    57    11    1
    57    58    11    1
    58    59    11    1
    59    61    13    1
    60    62    13    1
    61    63    14    1
    62    64    14    1
    63    65    14    1
    64    66    16    1
    65    67    16    1
    66    68    16    1
    67    69    18    1
    68    70    18    1
    69    71    18    1
    70    73    20    1
    71    74    20    1
    72    75    21    1
    73    76    21    1
    74    77    21    1
    75    79    24    1
    76    80    24    1
    77    81    25    1
    78    82    25    1
    79    83    25    1
    80    84    26    1
    81    85    26    1
    82    86    26    1
    83    88    29    1
    84    89    29    1
    85    90    30    1
    86    91    30    1
    87    92    30    1
    88    93    31    1
    89    94    31    1
    90    95    31    1
    91    97    34    1
    92    98    34    1
    93    99    35    1
    94   100    35    1
    95   101    35    1
    96   102    36    1
    97   103    36    1
    98   104    36    1
    99     4     7    1
   100     4    37    1
   101     5    38    1
   102     6    38    1
   103    12    37    1
   104    19    38    1
   105    23    39    1
   106    28    40    1
   107    33    41    1
@<TRIPOS>SUBSTRUCTURE
     1 RES1        1 GROUP             0 ****  ****    0  
@<TRIPOS>CRYSIN
   10.2920   10.9150   18.8330   79.8100   77.7500   80.2300     2     1
