@<TRIPOS>MOLECULE
WAPNEI
   125   140     1     0     0
SMALL
NO_CHARGES
****
Generated from the CSD

@<TRIPOS>ATOM
     1 B1       6.9524   4.0132   0.4938   B         1 RES1   0.0000
     2 H1       6.9524   4.0132  -0.5047   H         1 RES1   0.0000
     3 C1       5.4292   1.6781  -1.0394   C.3       1 RES1   0.0000
     4 H2       5.2729   0.7742  -1.3835   H         1 RES1   0.0000
     5 H3       6.0869   2.1336  -1.6054   H         1 RES1   0.0000
     6 H4       4.5888   2.1806  -1.0485   H         1 RES1   0.0000
     7 C2       5.9451   1.5961   0.3563   C.2       1 RES1   0.0000
     8 C3       6.3772   0.9346   2.3115   C.2       1 RES1   0.0000
     9 C4       6.4873   0.0081   3.4575   C.ar      1 RES1   0.0000
    10 C5       5.7503  -1.1805   3.4022   C.ar      1 RES1   0.0000
    11 H5       5.2277  -1.3775   2.6322   H         1 RES1   0.0000
    12 C6       5.7790  -2.0723   4.4625   C.ar      1 RES1   0.0000
    13 H6       5.2736  -2.8753   4.4203   H         1 RES1   0.0000
    14 C7       6.5447  -1.7951   5.5841   C.ar      1 RES1   0.0000
    15 H7       6.5492  -2.3997   6.3172   H         1 RES1   0.0000
    16 C8       7.3048  -0.6355   5.6372   C.ar      1 RES1   0.0000
    17 H8       7.8429  -0.4551   6.3999   H         1 RES1   0.0000
    18 C9       7.2804   0.2635   4.5735   C.ar      1 RES1   0.0000
    19 H9       7.8061   1.0536   4.6074   H         1 RES1   0.0000
    20 Fe1      6.9524   4.0132   3.6241   Fe        1 RES1   0.0000
    21 N1       6.7738   2.2216   2.3046   N.2       1 RES1   0.0000
    22 N2       6.5058   2.6256   1.0098   N.pl3     1 RES1   0.0000
    23 N3       5.8581   0.5209   1.1334   N.2       1 RES1   0.0000
    24 B1O      6.9510   4.0140   6.7574   B         1 RES1   0.0000
    25 H1O      6.9510   4.0140   7.7558   H         1 RES1   0.0000
    26 C1A      9.7355   3.8628  -1.0394   C.3       1 RES1   0.0000
    27 C1B      5.6904   6.4998  -1.0394   C.3       1 RES1   0.0000
    28 C1O      5.6904   1.5273   8.2905   C.3       1 RES1   0.0000
    29 C1P      5.4292   6.3490   8.2905   C.3       1 RES1   0.0000
    30 C1Q      9.7355   4.1644   8.2905   C.3       1 RES1   0.0000
    31 H2A     10.5965   4.1793  -1.3835   H         1 RES1   0.0000
    32 H2B      4.9858   7.0872  -1.3835   H         1 RES1   0.0000
    33 H2O      4.9858   0.9400   8.6347   H         1 RES1   0.0000
    34 H2P      5.2729   7.2529   8.6347   H         1 RES1   0.0000
    35 H2Q     10.5965   3.8478   8.6347   H         1 RES1   0.0000
    36 H3A      9.0122   4.2046  -1.6054   H         1 RES1   0.0000
    37 H3B      5.7560   5.7025  -1.6054   H         1 RES1   0.0000
    38 H3O      5.7560   2.3247   8.8566   H         1 RES1   0.0000
    39 H3P      6.0869   5.8935   8.8566   H         1 RES1   0.0000
    40 H3Q      9.0122   3.8225   8.8566   H         1 RES1   0.0000
    41 H4A      9.7206   2.8837  -1.0485   H         1 RES1   0.0000
    42 H4B      6.5457   6.9764  -1.0485   H         1 RES1   0.0000
    43 H4O      6.5457   1.0508   8.2997   H         1 RES1   0.0000
    44 H4P      4.5888   5.8466   8.2997   H         1 RES1   0.0000
    45 H4Q      9.7206   5.1434   8.2997   H         1 RES1   0.0000
    46 C2A      9.5486   4.3505   0.3563   C.2       1 RES1   0.0000
    47 C2B      5.3614   6.0940   0.3563   C.2       1 RES1   0.0000
    48 C2O      5.3614   1.9331   6.8948   C.2       1 RES1   0.0000
    49 C2P      5.9451   6.4310   6.8948   C.2       1 RES1   0.0000
    50 C2Q      9.5486   3.6766   6.8948   C.2       1 RES1   0.0000
    51 C3A      9.9054   5.0555   2.3115   C.2       1 RES1   0.0000
    52 C3B      4.5725   6.0506   2.3115   C.2       1 RES1   0.0000
    53 C3O      4.5725   1.9766   4.9396   C.2       1 RES1   0.0000
    54 C3P      6.3772   7.0925   4.9396   C.2       1 RES1   0.0000
    55 C3Q      9.9054   2.9716   4.9396   C.2       1 RES1   0.0000
    56 C4A     10.6528   5.6141   3.4575   C.ar      1 RES1   0.0000
    57 C4B      3.7151   6.4185   3.4575   C.ar      1 RES1   0.0000
    58 C4O      3.7151   1.6086   3.7937   C.ar      1 RES1   0.0000
    59 C4P      6.4873   8.0191   3.7937   C.ar      1 RES1   0.0000
    60 C4Q     10.6528   2.4130   3.7937   C.ar      1 RES1   0.0000
    61 C5A     12.0506   5.5701   3.4022   C.ar      1 RES1   0.0000
    62 C5B      3.0542   7.6510   3.4022   C.ar      1 RES1   0.0000
    63 C5O      3.0542   0.3761   3.8489   C.ar      1 RES1   0.0000
    64 C5P      5.7503   9.2076   3.8489   C.ar      1 RES1   0.0000
    65 C5Q     12.0506   2.4570   3.8489   C.ar      1 RES1   0.0000
    66 H5A     12.4825   5.2160   2.6322   H         1 RES1   0.0000
    67 H5B      3.1449   8.2021   2.6322   H         1 RES1   0.0000
    68 H5O      3.1449  -0.1750   4.6190   H         1 RES1   0.0000
    69 H5P      5.2277   9.4046   4.6190   H         1 RES1   0.0000
    70 H5Q     12.4825   2.8111   4.6190   H         1 RES1   0.0000
    71 C6A     12.8086   6.0409   4.4625   C.ar      1 RES1   0.0000
    72 C6B      2.2675   8.0721   4.4625   C.ar      1 RES1   0.0000
    73 C6O      2.2675  -0.0450   2.7887   C.ar      1 RES1   0.0000
    74 C6P      5.7790  10.0995   2.7887   C.ar      1 RES1   0.0000
    75 C6Q     12.8086   1.9862   2.7887   C.ar      1 RES1   0.0000
    76 H6A     13.7567   6.0047   4.4203   H         1 RES1   0.0000
    77 H6B      1.8248   8.9113   4.4203   H         1 RES1   0.0000
    78 H6O      1.8248  -0.8842   2.8309   H         1 RES1   0.0000
    79 H6P      5.2736  10.9025   2.8309   H         1 RES1   0.0000
    80 H6Q     13.7567   2.0224   2.8309   H         1 RES1   0.0000
    81 C7A     12.1857   6.5654   5.5841   C.ar      1 RES1   0.0000
    82 C7B      2.1247   7.2704   5.5841   C.ar      1 RES1   0.0000
    83 C7O      2.1247   0.7567   1.6670   C.ar      1 RES1   0.0000
    84 C7P      6.5447   9.8223   1.6670   C.ar      1 RES1   0.0000
    85 C7Q     12.1857   1.4617   1.6670   C.ar      1 RES1   0.0000
    86 H7A     12.7070   6.8716   6.3172   H         1 RES1   0.0000
    87 H7B      1.5989   7.5688   6.3172   H         1 RES1   0.0000
    88 H7O      1.5989   0.4583   0.9340   H         1 RES1   0.0000
    89 H7P      6.5492  10.4268   0.9340   H         1 RES1   0.0000
    90 H7Q     12.7070   1.1555   0.9340   H         1 RES1   0.0000
    91 C8A     10.8013   6.6439   5.6372   C.ar      1 RES1   0.0000
    92 C8B      2.7489   6.0323   5.6372   C.ar      1 RES1   0.0000
    93 C8O      2.7489   1.9949   1.6140   C.ar      1 RES1   0.0000
    94 C8P      7.3048   8.6626   1.6140   C.ar      1 RES1   0.0000
    95 C8Q     10.8013   1.3832   1.6140   C.ar      1 RES1   0.0000
    96 H8A     10.3761   7.0197   6.3999   H         1 RES1   0.0000
    97 H8B      2.6361   5.4761   6.3999   H         1 RES1   0.0000
    98 H8O      2.6361   2.5510   0.8513   H         1 RES1   0.0000
    99 H8P      7.8429   8.4823   0.8513   H         1 RES1   0.0000
   100 H8Q     10.3761   1.0074   0.8513   H         1 RES1   0.0000
   101 C9A     10.0351   6.1733   4.5735   C.ar      1 RES1   0.0000
   102 C9B      3.5397   5.6040   4.5735   C.ar      1 RES1   0.0000
   103 C9O      3.5397   2.4232   2.6777   C.ar      1 RES1   0.0000
   104 C9P      7.2804   7.7637   2.6777   C.ar      1 RES1   0.0000
   105 C9Q     10.0351   1.8539   2.6777   C.ar      1 RES1   0.0000
   106 H9A      9.0880   6.2335   4.6074   H         1 RES1   0.0000
   107 H9B      3.9611   4.7537   4.6074   H         1 RES1   0.0000
   108 H9O      3.9611   3.2735   2.6438   H         1 RES1   0.0000
   109 H9P      7.8061   6.9736   2.6438   H         1 RES1   0.0000
   110 H9Q      9.0880   1.7937   2.6438   H         1 RES1   0.0000
   111 N1A      8.5925   4.7555   2.3046   N.2       1 RES1   0.0000
   112 N1B      5.4888   5.0636   2.3046   N.2       1 RES1   0.0000
   113 N1O      5.4888   2.9635   4.9466   N.2       1 RES1   0.0000
   114 N1P      6.7738   5.8055   4.9466   N.2       1 RES1   0.0000
   115 N1Q      8.5925   3.2717   4.9466   N.2       1 RES1   0.0000
   116 N2A      8.3767   4.3214   1.0098   N.pl3     1 RES1   0.0000
   117 N2B      5.9726   5.0937   1.0098   N.pl3     1 RES1   0.0000
   118 N2O      5.9726   2.9334   6.2414   N.pl3     1 RES1   0.0000
   119 N2P      6.5058   5.4015   6.2414   N.pl3     1 RES1   0.0000
   120 N2Q      8.3767   3.7057   6.2414   N.pl3     1 RES1   0.0000
   121 N3A     10.5233   4.8128   1.1334   N.2       1 RES1   0.0000
   122 N3B      4.4738   6.7070   1.1334   N.2       1 RES1   0.0000
   123 N3O      4.4738   1.3201   6.1178   N.2       1 RES1   0.0000
   124 N3P      5.8581   7.5063   6.1178   N.2       1 RES1   0.0000
   125 N3Q     10.5233   3.2143   6.1178   N.2       1 RES1   0.0000
@<TRIPOS>BOND
     1     1     2    1
     2     3     4    1
     3     5     3    1
     4     6     3    1
     5     7     3    1
     6     8     9    1
     7     9    10   ar
     8    10    11    1
     9    12    10   ar
    10    13    12    1
    11    14    12   ar
    12    15    14    1
    13    16    14   ar
    14    17    16    1
    15    18     9   ar
    16    19    18    1
    17    20    21    1
    18    21     8    2
    19    22     1    1
    20    23     7    2
    21    24    25    1
    22    26    31    1
    23    27    32    1
    24    28    33    1
    25    29    34    1
    26    30    35    1
    27    36    26    1
    28    37    27    1
    29    38    28    1
    30    39    29    1
    31    40    30    1
    32    41    26    1
    33    42    27    1
    34    43    28    1
    35    44    29    1
    36    45    30    1
    37    46    26    1
    38    47    27    1
    39    48    28    1
    40    49    29    1
    41    50    30    1
    42    51    56    1
    43    52    57    1
    44    53    58    1
    45    54    59    1
    46    55    60    1
    47    56    61   ar
    48    57    62   ar
    49    58    63   ar
    50    59    64   ar
    51    60    65   ar
    52    61    66    1
    53    62    67    1
    54    63    68    1
    55    64    69    1
    56    65    70    1
    57    71    61   ar
    58    72    62   ar
    59    73    63   ar
    60    74    64   ar
    61    75    65   ar
    62    76    71    1
    63    77    72    1
    64    78    73    1
    65    79    74    1
    66    80    75    1
    67    81    71   ar
    68    82    72   ar
    69    83    73   ar
    70    84    74   ar
    71    85    75   ar
    72    86    81    1
    73    87    82    1
    74    88    83    1
    75    89    84    1
    76    90    85    1
    77    91    81   ar
    78    92    82   ar
    79    93    83   ar
    80    94    84   ar
    81    95    85   ar
    82    96    91    1
    83    97    92    1
    84    98    93    1
    85    99    94    1
    86   100    95    1
    87   101    56   ar
    88   102    57   ar
    89   103    58   ar
    90   104    59   ar
    91   105    60   ar
    92   106   101    1
    93   107   102    1
    94   108   103    1
    95   109   104    1
    96   110   105    1
    97   111    20    1
    98   112    20    1
    99   113    20    1
   100   114    20    1
   101   115    20    1
   102   116     1    1
   103   117     1    1
   104   118    24    1
   105   119    24    1
   106   120    24    1
   107   121    46    2
   108   122    47    2
   109   123    48    2
   110   124    49    2
   111   125    50    2
   112     7    22    1
   113     8    23    1
   114    16    18   ar
   115    21    22    1
   116    46   116    1
   117    47   117    1
   118    48   118    1
   119    49   119    1
   120    50   120    1
   121    51   111    2
   122    51   121    1
   123    52   112    2
   124    52   122    1
   125    53   113    2
   126    53   123    1
   127    54   114    2
   128    54   124    1
   129    55   115    2
   130    55   125    1
   131    91   101   ar
   132    92   102   ar
   133    93   103   ar
   134    94   104   ar
   135    95   105   ar
   136   111   116    1
   137   112   117    1
   138   113   118    1
   139   114   119    1
   140   115   120    1
@<TRIPOS>SUBSTRUCTURE
     1 RES1        1 GROUP             0 ****  ****    0  
@<TRIPOS>CRYSIN
   13.9034   13.9034   43.5070   90.0000   90.0000  120.0000   238     1
