@<TRIPOS>MOLECULE
WARHEE
   108   114     2     0     0
SMALL
USER_CHARGES
****
Generated from the CSD

@<TRIPOS>ATOM
     1 Fe1     12.0972  15.7399   5.8722   Fe        1 RES1   1.0000
     2 N1      13.3093  15.3077   4.4316   N.2       1 RES1   0.0000
     3 N2      11.5164  16.9727   4.5005   N.2       1 RES1   0.0000
     4 N3      10.7172  16.5234   7.1402   N.2       1 RES1   0.0000
     5 N4      13.0129  14.3699   7.0357   N.2       1 RES1   0.0000
     6 N5      14.1103  18.0195   6.2576   N.1       1 RES1   0.0000
     7 N6       9.9019  13.6858   5.2138   N.1       1 RES1   0.0000
     8 C1      14.4723  14.6137   4.3898   C.2       1 RES1   0.0000
     9 C2      15.1294  14.8442   3.1178   C.2       1 RES1   0.0000
    10 C3      14.3561  15.7234   2.4015   C.2       1 RES1   0.0000
    11 C4      13.2244  16.0340   3.2552   C.2       1 RES1   0.0000
    12 C5      12.2093  16.9908   3.2994   C.2       1 RES1   0.0000
    13 C6      11.8146  18.1466   2.5203   C.2       1 RES1   0.0000
    14 C7      10.9121  18.8320   3.3095   C.2       1 RES1   0.0000
    15 C8      10.7610  18.0962   4.5460   C.2       1 RES1   0.0000
    16 C9      10.0548  18.4477   5.6856   C.2       1 RES1   0.0000
    17 H1       9.5654  19.2348   5.6568   H         1 RES1   0.0000
    18 C10     10.0217  17.7205   6.8626   C.2       1 RES1   0.0000
    19 C11      9.1501  18.0531   7.9616   C.2       1 RES1   0.0000
    20 C12      9.2529  17.0563   8.8704   C.2       1 RES1   0.0000
    21 C13     10.2336  16.1059   8.3468   C.2       1 RES1   0.0000
    22 C14     10.5380  14.9493   9.0800   C.2       1 RES1   0.0000
    23 H2       9.9319  14.7933   9.7657   H         1 RES1   0.0000
    24 C15     11.5285  13.9916   9.0206   C.2       1 RES1   0.0000
    25 H3      11.4203  13.3243   9.6613   H         1 RES1   0.0000
    26 C16     12.6661  13.7853   8.2178   C.2       1 RES1   0.0000
    27 C17     13.6959  12.8595   8.6625   C.2       1 RES1   0.0000
    28 C18     14.6824  12.8914   7.7307   C.2       1 RES1   0.0000
    29 C19     14.2470  13.7823   6.6904   C.2       1 RES1   0.0000
    30 C20     14.9197  13.8986   5.4887   C.2       1 RES1   0.0000
    31 H4      15.7382  13.4622   5.4115   H         1 RES1   0.0000
    32 C21     16.4770  14.2841   2.7359   C.3       1 RES1   0.0000
    33 H5      16.5114  14.1558   1.7744   H         1 RES1   0.0000
    34 H6      16.5964  13.4191   3.1559   H         1 RES1   0.0000
    35 C22     17.6110  15.2121   3.1636   C.3       1 RES1   0.0000
    36 H7      17.5037  16.0642   2.7384   H         1 RES1   0.0000
    37 H8      18.4513  14.8278   2.9031   H         1 RES1   0.0000
    38 H9      17.5887  15.3232   4.1166   H         1 RES1   0.0000
    39 C23     14.6560  16.2770   1.0463   C.3       1 RES1   0.0000
    40 H10     14.9515  17.1842   1.1303   H         1 RES1   0.0000
    41 H11     13.8653  16.2451   0.5058   H         1 RES1   0.0000
    42 H12     15.3448  15.7540   0.6322   H         1 RES1   0.0000
    43 C24     12.3237  18.5817   1.1923   C.3       1 RES1   0.0000
    44 H13     11.7824  19.3037   0.8639   H         1 RES1   0.0000
    45 H14     12.2830  17.8476   0.5770   H         1 RES1   0.0000
    46 H15     13.2351  18.8772   1.2788   H         1 RES1   0.0000
    47 C25     10.3011  20.1670   3.0176   C.3       1 RES1   0.0000
    48 H16      9.5028  20.2816   3.5590   H         1 RES1   0.0000
    49 H17     10.0392  20.2041   2.0842   H         1 RES1   0.0000
    50 C26     11.2907  21.2974   3.3172   C.3       1 RES1   0.0000
    51 H18     11.5500  21.2595   4.2405   H         1 RES1   0.0000
    52 H19     10.8750  22.1426   3.1373   H         1 RES1   0.0000
    53 H20     12.0685  21.1992   2.7613   H         1 RES1   0.0000
    54 C27      8.2664  19.2615   8.0210   C.3       1 RES1   0.0000
    55 H21      7.5450  19.1615   7.3972   H         1 RES1   0.0000
    56 H22      8.7787  20.0447   7.7961   H         1 RES1   0.0000
    57 H23      7.9115  19.3554   8.9086   H         1 RES1   0.0000
    58 C28      8.4913  16.9309  10.1586   C.3       1 RES1   0.0000
    59 H24      8.2915  17.8175  10.5014   H         1 RES1   0.0000
    60 H25      9.0379  16.4734  10.8129   H         1 RES1   0.0000
    61 C29      7.1821  16.1559   9.9566   C.3       1 RES1   0.0000
    62 H26      6.6421  16.6026   9.3015   H         1 RES1   0.0000
    63 H27      6.7047  16.1115  10.7883   H         1 RES1   0.0000
    64 H28      7.3796  15.2672   9.6545   H         1 RES1   0.0000
    65 C30     13.6409  11.9798   9.8845   C.3       1 RES1   0.0000
    66 H29     14.5269  11.8984  10.2681   H         1 RES1   0.0000
    67 H30     13.0608  12.3809  10.5489   H         1 RES1   0.0000
    68 C31     13.1220  10.6121   9.5230   C.3       1 RES1   0.0000
    69 H31     12.2785  10.6965   9.0698   H         1 RES1   0.0000
    70 H32     13.0026  10.0934  10.3215   H         1 RES1   0.0000
    71 H33     13.7536  10.1710   8.9459   H         1 RES1   0.0000
    72 C32     15.9938  12.1526   7.7358   C.3       1 RES1   0.0000
    73 H34     16.1047  11.7003   8.5751   H         1 RES1   0.0000
    74 H35     16.7126  12.7772   7.6119   H         1 RES1   0.0000
    75 H36     16.0019  11.5107   7.0222   H         1 RES1   0.0000
    76 C33     13.3754  17.1351   6.2890   C.1       1 RES1   0.0000
    77 C34     14.9966  19.1439   5.9529   C.3       1 RES1   0.0000
    78 C35     16.3340  18.8729   6.6310   C.3       1 RES1   0.0000
    79 H37     16.1986  18.7695   7.5755   H         1 RES1   0.0000
    80 H38     16.9271  19.6096   6.4723   H         1 RES1   0.0000
    81 H39     16.7171  18.0673   6.2720   H         1 RES1   0.0000
    82 C36     15.1200  19.2029   4.4382   C.3       1 RES1   0.0000
    83 H40     15.5236  18.3947   4.1183   H         1 RES1   0.0000
    84 H41     15.6666  19.9542   4.1904   H         1 RES1   0.0000
    85 H42     14.2453  19.2994   4.0495   H         1 RES1   0.0000
    86 C37     14.3311  20.4065   6.5011   C.3       1 RES1   0.0000
    87 H43     13.4854  20.5358   6.0683   H         1 RES1   0.0000
    88 H44     14.8978  21.1647   6.3331   H         1 RES1   0.0000
    89 H45     14.1961  20.3117   7.4473   H         1 RES1   0.0000
    90 C38     10.7597  14.4254   5.3988   C.1       1 RES1   0.0000
    91 C39      8.6915  12.8746   5.0220   C.3       1 RES1   0.0000
    92 C40      8.0425  13.3941   3.7389   C.3       1 RES1   0.0000
    93 H46      7.8534  14.3324   3.8331   H         1 RES1   0.0000
    94 H47      7.2232  12.9151   3.5777   H         1 RES1   0.0000
    95 H48      8.6401  13.2597   3.0006   H         1 RES1   0.0000
    96 C41      7.7985  13.1412   6.2296   C.3       1 RES1   0.0000
    97 H49      8.2334  12.8289   7.0256   H         1 RES1   0.0000
    98 H50      6.9639  12.6781   6.1184   H         1 RES1   0.0000
    99 H51      7.6344  14.0825   6.3051   H         1 RES1   0.0000
   100 C42      9.1175  11.4172   4.9558   C.3       1 RES1   0.0000
   101 H52      9.7442  11.2996   4.2396   H         1 RES1   0.0000
   102 H53      8.3496  10.8645   4.8005   H         1 RES1   0.0000
   103 H54      9.5296  11.1661   5.7866   H         1 RES1   0.0000
   104 Cl1     15.9481  21.2805   9.7990   Cl        2 RES2   0.0000
   105 O1      14.7150  21.9802   9.5680   O.3       2 RES2  -1.0000
   106 O2      15.6863  19.8719   9.9218   O.2       2 RES2   0.0000
   107 O3      16.8409  21.4869   8.6973   O.2       2 RES2   0.0000
   108 O4      16.5718  21.7726  11.0089   O.2       2 RES2   0.0000
@<TRIPOS>BOND
     1     1     2    1
     2     2     8    1
     3     3     1    1
     4     4     1    1
     5     5     1    1
     6     6    76    3
     7     7    90    3
     8     8     9    2
     9     9    10    1
    10    10    11    2
    11    11     2    1
    12    12     3    2
    13    13    12    1
    14    14    13    2
    15    15     3    1
    16    16    15    2
    17    17    16    1
    18    18     4    1
    19    19    18    2
    20    20    19    1
    21    21     4    1
    22    22    21    1
    23    23    22    1
    24    24    22    2
    25    25    24    1
    26    26     5    2
    27    27    26    1
    28    28    27    2
    29    29     5    1
    30    30     8    1
    31    31    30    1
    32    32     9    1
    33    33    32    1
    34    34    32    1
    35    35    32    1
    36    36    35    1
    37    37    35    1
    38    38    35    1
    39    39    10    1
    40    40    39    1
    41    41    39    1
    42    42    39    1
    43    43    13    1
    44    44    43    1
    45    45    43    1
    46    46    43    1
    47    47    14    1
    48    48    47    1
    49    49    47    1
    50    50    47    1
    51    51    50    1
    52    52    50    1
    53    53    50    1
    54    54    19    1
    55    55    54    1
    56    56    54    1
    57    57    54    1
    58    58    20    1
    59    59    58    1
    60    60    58    1
    61    61    58    1
    62    62    61    1
    63    63    61    1
    64    64    61    1
    65    65    27    1
    66    66    65    1
    67    67    65    1
    68    68    65    1
    69    69    68    1
    70    70    68    1
    71    71    68    1
    72    72    28    1
    73    73    72    1
    74    74    72    1
    75    75    72    1
    76    76     1    1
    77    77     6    1
    78    78    77    1
    79    79    78    1
    80    80    78    1
    81    81    78    1
    82    82    77    1
    83    83    82    1
    84    84    82    1
    85    85    82    1
    86    86    77    1
    87    87    86    1
    88    88    86    1
    89    89    86    1
    90    90     1    1
    91    91     7    1
    92    92    91    1
    93    93    92    1
    94    94    92    1
    95    95    92    1
    96    96    91    1
    97    97    96    1
    98    98    96    1
    99    99    96    1
   100   100    91    1
   101   101   100    1
   102   102   100    1
   103   103   100    1
   104    11    12    1
   105    14    15    1
   106    16    18    1
   107    20    21    2
   108    24    26    1
   109    28    29    1
   110    29    30    2
   111   104   105    1
   112   106   104    2
   113   107   104    2
   114   108   104    2
@<TRIPOS>SUBSTRUCTURE
     1 RES1        1 GROUP             0 ****  ****    0  
     2 RES2      104 GROUP             0 ****  ****    0  
@<TRIPOS>CRYSIN
   44.6980   43.0790    8.4860   90.0000   90.0000   90.0000    43     1
