@<TRIPOS>MOLECULE
WAWGIK
    97   102     3     0     0
SMALL
USER_CHARGES
****
Generated from the CSD

@<TRIPOS>ATOM
     1 Fe1      0.0000   0.0000   0.0000   Fe        1 RES1   2.0000
     2 P1      -2.2005   0.1594  -0.5030   P.3       1 RES1   0.0000
     3 P2      -0.5654   0.9739   1.9719   P.3       1 RES1   0.0000
     4 N1       0.3641   1.6923  -0.7904   N.1       1 RES1   0.0000
     5 C1      -2.6944   1.3857  -1.7415   C.3       1 RES1   0.0000
     6 C2      -3.0907  -1.3101  -0.9933   C.3       1 RES1   0.0000
     7 C3      -0.0543   0.1758   3.5380   C.3       1 RES1   0.0000
     8 C4      -0.0843   2.7213   2.2551   C.3       1 RES1   0.0000
     9 C5       0.5890   2.7295  -1.2470   C.1       1 RES1   0.0000
    10 C6       0.8733   4.0416  -1.7838   C.3       1 RES1   0.0000
    11 C7      -3.1262   0.7092   0.9828   C.ar      1 RES1   0.0000
    12 C8      -2.3902   1.0710   2.0818   C.ar      1 RES1   0.0000
    13 C9      -3.0481   1.5134   3.2484   C.ar      1 RES1   0.0000
    14 C10     -4.4373   1.5615   3.2802   C.ar      1 RES1   0.0000
    15 C11     -5.1689   1.1864   2.1515   C.ar      1 RES1   0.0000
    16 C12     -4.5212   0.7726   1.0124   C.ar      1 RES1   0.0000
    17 H1       1.4625   3.9169  -2.5256   H         1 RES1   0.0000
    18 H2       1.3061   4.5822  -1.1202   H         1 RES1   0.0000
    19 H3       0.0736   4.4800  -2.0818   H         1 RES1   0.0000
    20 H4      -2.5325   1.8006   4.0051   H         1 RES1   0.0000
    21 H5      -4.8892   1.8435   4.0812   H         1 RES1   0.0000
    22 H6      -6.1276   1.2232   2.1938   H         1 RES1   0.0000
    23 H7      -5.0393   0.5293   0.2431   H         1 RES1   0.0000
    24 H8      -2.3243   2.2625  -1.6168   H         1 RES1   0.0000
    25 H9      -3.6494   1.4501  -1.8197   H         1 RES1   0.0000
    26 H10     -2.3325   0.9943  -2.5404   H         1 RES1   0.0000
    27 H11     -2.8383  -2.0602  -0.4481   H         1 RES1   0.0000
    28 H12     -2.7489  -1.4317  -1.8831   H         1 RES1   0.0000
    29 H13     -4.0480  -1.2447  -1.0229   H         1 RES1   0.0000
    30 H14     -0.2685  -0.7511   3.4133   H         1 RES1   0.0000
    31 H15     -0.4566   0.4926   4.3517   H         1 RES1   0.0000
    32 H16      0.8989   0.2790   3.5908   H         1 RES1   0.0000
    33 H17     -0.3409   3.2987   1.5323   H         1 RES1   0.0000
    34 H18      0.8727   2.6907   2.3164   H         1 RES1   0.0000
    35 H19     -0.4470   3.0585   3.0773   H         1 RES1   0.0000
    36 P1B      2.2005  -0.1594   0.5030   P.3       1 RES1   0.0000
    37 P2B      0.5654  -0.9739  -1.9719   P.3       1 RES1   0.0000
    38 N1B     -0.3641  -1.6923   0.7904   N.1       1 RES1   0.0000
    39 C1B      2.6944  -1.3857   1.7415   C.3       1 RES1   0.0000
    40 C2B      3.0907   1.3101   0.9933   C.3       1 RES1   0.0000
    41 C7B      3.1262  -0.7092  -0.9828   C.ar      1 RES1   0.0000
    42 C3B      0.0543  -0.1758  -3.5380   C.3       1 RES1   0.0000
    43 C4B      0.0843  -2.7213  -2.2551   C.3       1 RES1   0.0000
    44 C8B      2.3902  -1.0710  -2.0818   C.ar      1 RES1   0.0000
    45 C5B     -0.5890  -2.7295   1.2470   C.1       1 RES1   0.0000
    46 H8B      2.3243  -2.2625   1.6168   H         1 RES1   0.0000
    47 H9B      3.6494  -1.4501   1.8197   H         1 RES1   0.0000
    48 H10B     2.3325  -0.9943   2.5404   H         1 RES1   0.0000
    49 H11B     2.8383   2.0602   0.4481   H         1 RES1   0.0000
    50 H12B     2.7489   1.4317   1.8831   H         1 RES1   0.0000
    51 H13B     4.0480   1.2447   1.0229   H         1 RES1   0.0000
    52 C12B     4.5212  -0.7726  -1.0124   C.ar      1 RES1   0.0000
    53 H14B     0.2685   0.7511  -3.4133   H         1 RES1   0.0000
    54 H15B     0.4566  -0.4926  -4.3517   H         1 RES1   0.0000
    55 H16B    -0.8989  -0.2790  -3.5908   H         1 RES1   0.0000
    56 H17B     0.3409  -3.2987  -1.5323   H         1 RES1   0.0000
    57 H18B    -0.8727  -2.6907  -2.3164   H         1 RES1   0.0000
    58 H19B     0.4470  -3.0585  -3.0773   H         1 RES1   0.0000
    59 C9B      3.0481  -1.5134  -3.2484   C.ar      1 RES1   0.0000
    60 C6B     -0.8733  -4.0416   1.7838   C.3       1 RES1   0.0000
    61 C11B     5.1689  -1.1864  -2.1515   C.ar      1 RES1   0.0000
    62 H7B      5.0393  -0.5293  -0.2431   H         1 RES1   0.0000
    63 C10B     4.4373  -1.5615  -3.2802   C.ar      1 RES1   0.0000
    64 H4B      2.5325  -1.8006  -4.0051   H         1 RES1   0.0000
    65 H1B     -1.4625  -3.9169   2.5256   H         1 RES1   0.0000
    66 H2B     -1.3061  -4.5822   1.1202   H         1 RES1   0.0000
    67 H3B     -0.0736  -4.4800   2.0818   H         1 RES1   0.0000
    68 H6B      6.1276  -1.2232  -2.1938   H         1 RES1   0.0000
    69 H5B      4.8892  -1.8435  -4.0812   H         1 RES1   0.0000
    70 B1       6.8193   0.8880   4.2080   B         2 RES2  -1.0000
    71 C13      8.5011   0.2657   6.2454   C.ar      2 RES2   0.0000
    72 C14      9.2380   0.6029   7.4036   C.ar      2 RES2   0.0000
    73 C15      9.2545   1.8966   7.9087   C.ar      2 RES2   0.0000
    74 C16      8.4860   2.8715   7.2430   C.ar      2 RES2   0.0000
    75 C17      7.7256   2.5282   6.1080   C.ar      2 RES2   0.0000
    76 C18      7.7153   1.2263   5.5522   C.ar      2 RES2   0.0000
    77 C19      4.7934   2.6620   3.8212   C.ar      2 RES2   0.0000
    78 C20      3.5303   3.2210   4.1699   C.ar      2 RES2   0.0000
    79 C21      2.7391   2.6488   5.1612   C.ar      2 RES2   0.0000
    80 C22      3.2247   1.5155   5.8481   C.ar      2 RES2   0.0000
    81 C23      4.4744   0.9688   5.5162   C.ar      2 RES2   0.0000
    82 C24      5.2992   1.5145   4.5060   C.ar      2 RES2   0.0000
    83 C25      5.6218  -1.5390   3.9713   C.ar      2 RES2   0.0000
    84 C26      5.6668  -2.9390   3.7663   C.ar      2 RES2   0.0000
    85 C27      8.0227  -1.4010   3.6310   C.ar      2 RES2   0.0000
    86 C28      8.0795  -2.8164   3.4556   C.ar      2 RES2   0.0000
    87 C29      6.8845  -3.5920   3.5465   C.ar      2 RES2   0.0000
    88 C30      6.7996  -0.7358   3.9248   C.ar      2 RES2   0.0000
    89 C31      7.1342   1.0883   1.5555   C.ar      2 RES2   0.0000
    90 C32      7.4692   1.7423   0.3466   C.ar      2 RES2   0.0000
    91 C33      8.0969   2.9891   0.3910   C.ar      2 RES2   0.0000
    92 C34      8.4143   3.5736   1.6485   C.ar      2 RES2   0.0000
    93 C35      8.0816   2.8787   2.8553   C.ar      2 RES2   0.0000
    94 C36      7.4073   1.6330   2.8300   C.ar      2 RES2   0.0000
    95 C37      5.9609   4.9225  20.3403   C.1       3 RES3   0.0000
    96 N2       7.0989   4.9644  20.1311   N.1       3 RES3   0.0000
    97 C38      4.5386   4.8356  20.5960   C.3       3 RES3   0.0000
@<TRIPOS>BOND
     1     1     2    1
     2     2     5    1
     3     3     1    1
     4     4     1    1
     5     5    24    1
     6     6     2    1
     7     7     3    1
     8     8     3    1
     9     9     4    3
    10    10     9    1
    11    11     2    1
    12    12     3    1
    13    13    12   ar
    14    14    13   ar
    15    15    14   ar
    16    16    11   ar
    17    17    10    1
    18    18    10    1
    19    19    10    1
    20    20    13    1
    21    21    14    1
    22    22    15    1
    23    23    16    1
    24    25     5    1
    25    26     5    1
    26    27     6    1
    27    28     6    1
    28    29     6    1
    29    30     7    1
    30    31     7    1
    31    32     7    1
    32    33     8    1
    33    34     8    1
    34    35     8    1
    35    36     1    1
    36    37     1    1
    37    38     1    1
    38    39    36    1
    39    40    36    1
    40    41    36    1
    41    42    37    1
    42    43    37    1
    43    44    37    1
    44    45    38    3
    45    46    39    1
    46    47    39    1
    47    48    39    1
    48    49    40    1
    49    50    40    1
    50    51    40    1
    51    52    41   ar
    52    53    42    1
    53    54    42    1
    54    55    42    1
    55    56    43    1
    56    57    43    1
    57    58    43    1
    58    59    44   ar
    59    60    45    1
    60    61    52   ar
    61    62    52    1
    62    63    59   ar
    63    64    59    1
    64    65    60    1
    65    66    60    1
    66    67    60    1
    67    68    61    1
    68    69    63    1
    69    11    12   ar
    70    15    16   ar
    71    41    44   ar
    72    61    63   ar
    73    70    76    1
    74    71    72   ar
    75    72    73   ar
    76    73    74   ar
    77    74    75   ar
    78    75    76   ar
    79    76    71   ar
    80    77    78   ar
    81    78    79   ar
    82    79    80   ar
    83    80    81   ar
    84    81    82   ar
    85    82    70    1
    86    83    84   ar
    87    84    87   ar
    88    85    86   ar
    89    86    87   ar
    90    88    70    1
    91    89    90   ar
    92    90    91   ar
    93    91    92   ar
    94    92    93   ar
    95    93    94   ar
    96    94    70    1
    97    77    82   ar
    98    83    88   ar
    99    85    88   ar
   100    89    94   ar
   101    95    96    3
   102    97    95    1
@<TRIPOS>SUBSTRUCTURE
     1 RES1        1 GROUP             0 ****  ****    0  
     2 RES2       70 GROUP             0 ****  ****    0  
     3 RES3       95 GROUP             0 ****  ****    0  
@<TRIPOS>CRYSIN
   16.2450   10.2190   22.1570   90.0000  107.4700   90.0000   231     1
