@<TRIPOS>MOLECULE
WEFFUJ
   103   110     3     0     0
SMALL
USER_CHARGES
****
Generated from the CSD

@<TRIPOS>ATOM
     1 Fe1      6.6622   1.9704   3.6505   Fe        1 RES1   0.0000
     2 S1       4.7934   4.3985   4.8401   S.o2      1 RES1   0.0000
     3 S2       7.3188   4.1056   1.3411   S.o2      1 RES1   0.0000
     4 O1       4.0657   5.4957   4.2509   O.2       1 RES1   0.0000
     5 O2       6.1643   4.6738   5.2199   O.2       1 RES1   0.0000
     6 O3       6.2012   3.3121   0.9062   O.2       1 RES1   0.0000
     7 O4       7.1189   5.5377   1.3974   O.2       1 RES1   0.0000
     8 N1       7.7462   0.4775   2.6493   N.2       1 RES1   0.0000
     9 N2       5.1882   0.9632   2.5305   N.2       1 RES1   0.0000
    10 N3       4.8591   3.0988   3.9346   N.2       1 RES1  -1.0000
    11 N4       6.2540   0.7518   5.2987   N.2       1 RES1   0.0000
    12 N5       8.2521   2.3632   4.9850   N.2       1 RES1   0.0000
    13 N6       7.7767   3.4865   2.7334   N.2       1 RES1   0.0000
    14 C1       9.0089   0.0469   2.5038   C.2       1 RES1   0.0000
    15 H1       9.7409   0.3806   2.9683   H         1 RES1   0.0000
    16 C2       9.0697  -0.9645   1.5656   C.2       1 RES1   0.0000
    17 H2       9.8385  -1.4076   1.2880   H         1 RES1   0.0000
    18 C3       7.7826  -1.1996   1.1131   C.2       1 RES1   0.0000
    19 H3       7.5103  -1.8299   0.4858   H         1 RES1   0.0000
    20 C4       6.9847  -0.2891   1.7991   C.2       1 RES1   0.0000
    21 C5       5.6084   0.0031   1.7698   C.2       1 RES1   0.0000
    22 H4       5.0240  -0.4744   1.2266   H         1 RES1   0.0000
    23 C6       3.8499   1.3716   2.6520   C.ar      1 RES1   0.0000
    24 C7       2.7649   0.7095   2.1061   C.ar      1 RES1   0.0000
    25 H5       2.8933  -0.0704   1.6163   H         1 RES1   0.0000
    26 C8       1.4887   1.2147   2.2890   C.ar      1 RES1   0.0000
    27 H6       0.7564   0.7716   1.9259   H         1 RES1   0.0000
    28 C9       1.3037   2.3643   3.0070   C.ar      1 RES1   0.0000
    29 H7       0.4440   2.6979   3.1245   H         1 RES1   0.0000
    30 C10      2.3745   3.0358   3.5569   C.ar      1 RES1   0.0000
    31 H8       2.2305   3.8214   4.0347   H         1 RES1   0.0000
    32 C11      3.6757   2.5439   3.4021   C.ar      1 RES1   0.0000
    33 C12      3.9482   3.9989   6.3437   C.ar      1 RES1   0.0000
    34 C13      4.4683   3.0214   7.1659   C.ar      1 RES1   0.0000
    35 H9       5.2325   2.5572   6.9109   H         1 RES1   0.0000
    36 C14      3.8554   2.7334   8.3577   C.ar      1 RES1   0.0000
    37 H10      4.2033   2.0619   8.8983   H         1 RES1   0.0000
    38 C15      2.7318   3.4229   8.7728   C.ar      1 RES1   0.0000
    39 C16      2.2206   4.3871   7.9453   C.ar      1 RES1   0.0000
    40 H11      1.4541   4.8459   8.2002   H         1 RES1   0.0000
    41 C17      2.8234   4.6897   6.7361   C.ar      1 RES1   0.0000
    42 H12      2.4694   5.3568   6.1929   H         1 RES1   0.0000
    43 C18      2.0591   3.0863  10.0888   C.3       1 RES1   0.0000
    44 H13      2.5696   2.4164  10.5479   H         1 RES1   0.0000
    45 H14      1.1736   2.7579   9.9206   H         1 RES1   0.0000
    46 H15      2.0079   3.8762  10.6334   H         1 RES1   0.0000
    47 C19      5.3098  -0.1024   5.7124   C.2       1 RES1   0.0000
    48 H16      4.5432  -0.3180   5.2306   H         1 RES1   0.0000
    49 C20      5.6289  -0.6256   6.9630   C.2       1 RES1   0.0000
    50 H17      5.1283  -1.2382   7.4502   H         1 RES1   0.0000
    51 C21      6.8223  -0.0652   7.3380   C.2       1 RES1   0.0000
    52 H18      7.2861  -0.2190   8.1282   H         1 RES1   0.0000
    53 C22      7.2068   0.7870   6.2997   C.2       1 RES1   0.0000
    54 C23      8.2601   1.6798   6.0928   C.2       1 RES1   0.0000
    55 H19      8.9392   1.7830   6.7201   H         1 RES1   0.0000
    56 C24      9.1866   3.3486   4.6340   C.ar      1 RES1   0.0000
    57 C25     10.2975   3.7234   5.3774   C.ar      1 RES1   0.0000
    58 H20     10.4999   3.2766   6.1662   H         1 RES1   0.0000
    59 C26     11.0922   4.7494   4.9503   C.ar      1 RES1   0.0000
    60 H21     11.8341   4.9997   5.4521   H         1 RES1   0.0000
    61 C27     10.8013   5.4089   3.7905   C.ar      1 RES1   0.0000
    62 H22     11.3374   6.1179   3.5195   H         1 RES1   0.0000
    63 C28      9.7161   5.0338   3.0110   C.ar      1 RES1   0.0000
    64 H23      9.5400   5.4793   2.2142   H         1 RES1   0.0000
    65 C29      8.8933   3.9919   3.4221   C.ar      1 RES1   0.0000
    66 C30      8.6229   3.8582   0.1762   C.ar      1 RES1   0.0000
    67 C31      8.9448   4.8667  -0.7047   C.ar      1 RES1   0.0000
    68 H24      8.5135   5.6878  -0.6500   H         1 RES1   0.0000
    69 C32      9.9053   4.6582  -1.6670   C.ar      1 RES1   0.0000
    70 H25     10.1156   5.3463  -2.2543   H         1 RES1   0.0000
    71 C33     10.5624   3.4539  -1.7805   C.ar      1 RES1   0.0000
    72 C34     10.2499   2.4685  -0.8769   C.ar      1 RES1   0.0000
    73 H26     10.6993   1.6553  -0.9169   H         1 RES1   0.0000
    74 C35      9.2837   2.6588   0.0881   C.ar      1 RES1   0.0000
    75 H27      9.0785   1.9707   0.6807   H         1 RES1   0.0000
    76 C36     11.5944   3.2375  -2.8762   C.3       1 RES1   0.0000
    77 H28     11.9325   2.3408  -2.8215   H         1 RES1   0.0000
    78 H29     12.3158   3.8579  -2.7654   H         1 RES1   0.0000
    79 H30     11.1838   3.3731  -3.7331   H         1 RES1   0.0000
    80 N7       6.8960   7.1048   6.4838   N.4       2 RES2   1.0000
    81 H31      6.3591   6.3603   6.0461   H         2 RES2   0.0000
    82 C37      7.8901   7.5047   5.4802   C.3       2 RES2   0.0000
    83 H32      8.5778   6.8217   5.4281   H         2 RES2   0.0000
    84 H33      8.3125   8.3284   5.7685   H         2 RES2   0.0000
    85 C38      7.3079   7.7106   4.1161   C.3       2 RES2   0.0000
    86 H34      8.0031   7.9687   3.5075   H         2 RES2   0.0000
    87 H35      6.6419   8.4014   4.1535   H         2 RES2   0.0000
    88 H36      6.9060   6.8947   3.8132   H         2 RES2   0.0000
    89 C39      7.4771   6.6497   7.7958   C.3       2 RES2   0.0000
    90 H37      8.0872   7.3300   8.1215   H         2 RES2   0.0000
    91 H38      6.7599   6.5637   8.4432   H         2 RES2   0.0000
    92 C40      8.1995   5.3620   7.7091   C.3       2 RES2   0.0000
    93 H39      8.5440   5.1274   8.5740   H         2 RES2   0.0000
    94 H40      8.9268   5.4454   7.0858   H         2 RES2   0.0000
    95 H41      7.5978   4.6764   7.4088   H         2 RES2   0.0000
    96 C41      5.9537   8.2554   6.8015   C.3       2 RES2   0.0000
    97 H42      6.3780   8.8393   7.4515   H         2 RES2   0.0000
    98 H43      5.8083   8.7742   5.9940   H         2 RES2   0.0000
    99 C42      4.6853   7.8357   7.3167   C.3       2 RES2   0.0000
   100 H44      4.1419   8.6073   7.4942   H         2 RES2   0.0000
   101 H45      4.8170   7.3431   8.1295   H         2 RES2   0.0000
   102 H46      4.2467   7.2779   6.6707   H         2 RES2   0.0000
   103 O5      10.6144   2.2079   8.6407   O.3       3 RES3   0.0000
@<TRIPOS>BOND
     1     1     8    1
     2     2     4    2
     3     3     6    2
     4     5     2    2
     5     7     3    2
     6     8    14    1
     7     9     1    1
     8    10     1    1
     9    11     1    1
    10    12     1    1
    11    13     1    1
    12    14    15    1
    13    16    14    2
    14    17    16    1
    15    18    16    1
    16    19    18    1
    17    20     8    1
    18    21     9    2
    19    22    21    1
    20    23     9    1
    21    24    23   ar
    22    25    24    1
    23    26    24   ar
    24    27    26    1
    25    28    26   ar
    26    29    28    1
    27    30    28   ar
    28    31    30    1
    29    32    10    1
    30    33     2    1
    31    34    33   ar
    32    35    34    1
    33    36    34   ar
    34    37    36    1
    35    38    36   ar
    36    39    38   ar
    37    40    39    1
    38    41    33   ar
    39    42    41    1
    40    43    38    1
    41    44    43    1
    42    45    43    1
    43    46    43    1
    44    47    11    1
    45    48    47    1
    46    49    47    2
    47    50    49    1
    48    51    49    1
    49    52    51    1
    50    53    11    1
    51    54    12    2
    52    55    54    1
    53    56    12    1
    54    57    56   ar
    55    58    57    1
    56    59    57   ar
    57    60    59    1
    58    61    59   ar
    59    62    61    1
    60    63    61   ar
    61    64    63    1
    62    65    13    1
    63    66     3    1
    64    67    66   ar
    65    68    67    1
    66    69    67   ar
    67    70    69    1
    68    71    69   ar
    69    72    71   ar
    70    73    72    1
    71    74    66   ar
    72    75    74    1
    73    76    71    1
    74    77    76    1
    75    78    76    1
    76    79    76    1
    77     2    10    1
    78     3    13    1
    79    18    20    2
    80    20    21    1
    81    23    32   ar
    82    30    32   ar
    83    39    41   ar
    84    51    53    2
    85    53    54    1
    86    56    65   ar
    87    63    65   ar
    88    72    74   ar
    89    80    81    1
    90    82    80    1
    91    83    82    1
    92    84    82    1
    93    85    82    1
    94    86    85    1
    95    87    85    1
    96    88    85    1
    97    89    80    1
    98    90    89    1
    99    91    89    1
   100    92    89    1
   101    93    92    1
   102    94    92    1
   103    95    92    1
   104    96    80    1
   105    97    96    1
   106    98    96    1
   107    99    96    1
   108   100    99    1
   109   101    99    1
   110   102    99    1
@<TRIPOS>SUBSTRUCTURE
     1 RES1        1 GROUP             0 ****  ****    0  
     2 RES2       80 GROUP             0 ****  ****    0  
     3 RES3      103 GROUP             0 ****  ****    0  
@<TRIPOS>CRYSIN
   11.6940   26.0670   14.1860   90.0000  109.8070   90.0000   231     1
