@<TRIPOS>MOLECULE
WEKJIF
   106   111     1     0     0
SMALL
NO_CHARGES
****
Generated from the CSD

@<TRIPOS>ATOM
     1 Fe1      8.5043   3.6830   2.7945   Fe        1 RES1   0.0000
     2 S1       5.9423   6.0647   6.0621   S.2       1 RES1   0.0000
     3 S2       8.2191   5.3975   4.3174   S.3       1 RES1   0.0000
     4 N1       7.2053   2.5541   3.7731   N.2       1 RES1   0.0000
     5 N2       5.8245   4.7249   2.3968   N.pl3     1 RES1   0.0000
     6 N3       7.0919   4.4169   0.4202   N.2       1 RES1   0.0000
     7 N4      10.2662   5.5327   1.2520   N.1       1 RES1   0.0000
     8 N5       8.9536   1.5923   0.7032   N.1       1 RES1   0.0000
     9 N6      10.8696   2.8998   4.5170   N.1       1 RES1   0.0000
    10 C1       7.5519   0.9600   5.6768   C.3       1 RES1   0.0000
    11 C2       6.4956   0.1970   3.4901   C.3       1 RES1   0.0000
    12 C3       7.4995   1.1356   4.1654   C.3       1 RES1   0.0000
    13 C4       6.0923   3.0323   4.1612   C.2       1 RES1   0.0000
    14 C5       5.7016   4.4366   3.8503   C.3       1 RES1   0.0000
    15 C6       6.6188   5.3178   4.7571   C.2       1 RES1   0.0000
    16 C7       4.8130   5.6760   1.8823   C.3       1 RES1   0.0000
    17 C8       3.4164   5.0993   1.9294   C.3       1 RES1   0.0000
    18 C9       4.9067   6.9925   2.5490   C.3       1 RES1   0.0000
    19 C10      6.9542   4.3452   1.7000   C.2       1 RES1   0.0000
    20 C11      6.0904   4.5494  -0.5681   C.ar      1 RES1   0.0000
    21 C12      5.2014   3.5141  -0.8275   C.ar      1 RES1   0.0000
    22 C13      5.1981   2.2998   0.0000   C.3       1 RES1   0.0000
    23 C14      4.3787   3.6234  -1.9680   C.ar      1 RES1   0.0000
    24 C15      4.4037   4.7428  -2.7441   C.ar      1 RES1   0.0000
    25 C16      5.3014   5.7530  -2.4954   C.ar      1 RES1   0.0000
    26 C17      6.1748   5.6778  -1.4063   C.ar      1 RES1   0.0000
    27 C18      7.1359   6.7811  -1.1255   C.3       1 RES1   0.0000
    28 C19      9.5579   4.8199   1.8673   C.1       1 RES1   0.0000
    29 C20     11.1856   6.3297   0.6346   C.ar      1 RES1   0.0000
    30 C21     11.5913   7.5137   1.3678   C.ar      1 RES1   0.0000
    31 C22     10.9140   7.9041   2.6240   C.3       1 RES1   0.0000
    32 C23     12.5319   8.2892   0.7804   C.ar      1 RES1   0.0000
    33 C24     13.1052   7.8576  -0.3537   C.ar      1 RES1   0.0000
    34 C25     12.7750   6.8151  -1.1126   C.ar      1 RES1   0.0000
    35 C26     11.7415   5.9769  -0.5209   C.ar      1 RES1   0.0000
    36 C27     11.2641   4.7715  -1.2070   C.3       1 RES1   0.0000
    37 C28      8.7728   2.3857   1.5328   C.1       1 RES1   0.0000
    38 C29      9.0214   0.5642  -0.2401   C.ar      1 RES1   0.0000
    39 C30      8.6245   0.8275  -1.5650   C.ar      1 RES1   0.0000
    40 C31      8.2415   2.1816  -2.0216   C.3       1 RES1   0.0000
    41 C32      8.6611  -0.2508  -2.4654   C.ar      1 RES1   0.0000
    42 C33      9.1391  -1.4794  -2.0538   C.ar      1 RES1   0.0000
    43 C34      9.5325  -1.6944  -0.7868   C.ar      1 RES1   0.0000
    44 C35      9.4872  -0.6842   0.1694   C.ar      1 RES1   0.0000
    45 C36      9.9372  -0.9027   1.6036   C.3       1 RES1   0.0000
    46 C37      9.9364   3.1434   3.8503   C.1       1 RES1   0.0000
    47 C38     12.0662   2.7099   5.2266   C.ar      1 RES1   0.0000
    48 C39     12.8085   3.8204   5.5675   C.ar      1 RES1   0.0000
    49 C40     12.3424   5.1852   5.2052   C.3       1 RES1   0.0000
    50 C41     14.0029   3.6198   6.2471   C.ar      1 RES1   0.0000
    51 C42     14.3699   2.3195   6.5622   C.ar      1 RES1   0.0000
    52 C43     13.6140   1.2251   6.2385   C.ar      1 RES1   0.0000
    53 C44     12.4039   1.4078   5.5889   C.ar      1 RES1   0.0000
    54 C45     11.5238   0.2579   5.2266   C.3       1 RES1   0.0000
    55 H1       7.7427   0.0215   5.8848   H         1 RES1   0.0000
    56 H2       6.6877   1.2108   6.0649   H         1 RES1   0.0000
    57 H3       8.2571   1.5278   6.0499   H         1 RES1   0.0000
    58 H4       6.6937  -0.7272   3.7495   H         1 RES1   0.0000
    59 H5       6.5656   0.2830   2.5168   H         1 RES1   0.0000
    60 H6       5.5868   0.4281   3.7731   H         1 RES1   0.0000
    61 H7       8.3956   0.9045   3.8417   H         1 RES1   0.0000
    62 H8       5.4847   2.4699   4.6842   H         1 RES1   0.0000
    63 H9       4.7569   4.6067   4.0475   H         1 RES1   0.0000
    64 H10      5.0205   5.8103   0.9347   H         1 RES1   0.0000
    65 H11      3.3983   4.2234   1.4878   H         1 RES1   0.0000
    66 H12      2.8024   5.7082   1.4707   H         1 RES1   0.0000
    67 H13      3.1383   4.9990   2.8641   H         1 RES1   0.0000
    68 H14      4.2201   7.5853   2.1803   H         1 RES1   0.0000
    69 H15      5.7931   7.3775   2.3839   H         1 RES1   0.0000
    70 H16      4.7692   6.8904   3.5137   H         1 RES1   0.0000
    71 H17      4.5170   1.6818  -0.3366   H         1 RES1   0.0000
    72 H18      4.9909   2.5398   0.9283   H         1 RES1   0.0000
    73 H19      6.0782   1.8681  -0.0364   H         1 RES1   0.0000
    74 H20      3.7668   2.8890  -2.1867   H         1 RES1   0.0000
    75 H21      3.7796   4.8109  -3.4966   H         1 RES1   0.0000
    76 H22      5.3130   6.5286  -3.0935   H         1 RES1   0.0000
    77 H23      7.0573   7.4725  -1.8158   H         1 RES1   0.0000
    78 H24      8.0467   6.4211  -1.1255   H         1 RES1   0.0000
    79 H25      6.9403   7.1716  -0.2487   H         1 RES1   0.0000
    80 H26     10.2766   7.2038   2.8770   H         1 RES1   0.0000
    81 H27     10.4345   8.7477   2.4847   H         1 RES1   0.0000
    82 H28     11.5744   8.0188   3.3401   H         1 RES1   0.0000
    83 H29     12.7948   9.1400   1.1877   H         1 RES1   0.0000
    84 H30     13.8350   8.4074  -0.7075   H         1 RES1   0.0000
    85 H31     13.1967   6.5948  -1.9680   H         1 RES1   0.0000
    86 H32     11.7840   4.6497  -2.0323   H         1 RES1   0.0000
    87 H33     10.3207   4.8664  -1.4256   H         1 RES1   0.0000
    88 H34     11.3879   3.9906  -0.6281   H         1 RES1   0.0000
    89 H35      8.2656   2.7995  -1.2606   H         1 RES1   0.0000
    90 H36      7.3353   2.1583  -2.3946   H         1 RES1   0.0000
    91 H37      8.8702   2.4825  -2.7076   H         1 RES1   0.0000
    92 H38      8.3487  -0.1272  -3.3851   H         1 RES1   0.0000
    93 H39      9.1836  -2.2120  -2.7034   H         1 RES1   0.0000
    94 H40      9.8771  -2.5756  -0.5317   H         1 RES1   0.0000
    95 H41     10.2268  -1.8323   1.7151   H         1 RES1   0.0000
    96 H42      9.1936  -0.7164   2.2146   H         1 RES1   0.0000
    97 H43     10.6842  -0.3009   1.8072   H         1 RES1   0.0000
    98 H44     12.9989   5.8426   5.5139   H         1 RES1   0.0000
    99 H45     11.4797   5.3590   5.6340   H         1 RES1   0.0000
   100 H46     12.2428   5.2569   4.2319   H         1 RES1   0.0000
   101 H47     14.5684   4.3792   6.5044   H         1 RES1   0.0000
   102 H48     15.2211   2.1851   7.0274   H         1 RES1   0.0000
   103 H49     13.9239   0.3278   6.4808   H         1 RES1   0.0000
   104 H50     11.9366  -0.5678   5.5546   H         1 RES1   0.0000
   105 H51     11.4174   0.2042   4.2533   H         1 RES1   0.0000
   106 H52     10.6451   0.3708   5.6447   H         1 RES1   0.0000
@<TRIPOS>BOND
     1     1     3    1
     2     2    15    2
     3     3    15    1
     4     4     1    1
     5     5    14    1
     6     6    19    2
     7     7    28    3
     8     8    37    3
     9     9    46    3
    10    10    12    1
    11    11    12    1
    12    12     4    1
    13    13     4    2
    14    14    13    1
    15    15    14    1
    16    16     5    1
    17    17    16    1
    18    18    16    1
    19    19     1    1
    20    20     6    1
    21    21    20   ar
    22    22    21    1
    23    23    21   ar
    24    24    23   ar
    25    25    24   ar
    26    26    20   ar
    27    27    26    1
    28    28     1    1
    29    29     7    1
    30    30    29   ar
    31    31    30    1
    32    32    30   ar
    33    33    32   ar
    34    34    33   ar
    35    35    29   ar
    36    36    35    1
    37    37     1    1
    38    38     8    1
    39    39    38   ar
    40    40    39    1
    41    41    39   ar
    42    42    41   ar
    43    43    42   ar
    44    44    38   ar
    45    45    44    1
    46    46     1    1
    47    47     9    1
    48    48    47   ar
    49    49    48    1
    50    50    48   ar
    51    51    50   ar
    52    52    51   ar
    53    53    47   ar
    54    54    53    1
    55    55    10    1
    56    56    10    1
    57    57    10    1
    58    58    11    1
    59    59    11    1
    60    60    11    1
    61    61    12    1
    62    62    13    1
    63    63    14    1
    64    64    16    1
    65    65    17    1
    66    66    17    1
    67    67    17    1
    68    68    18    1
    69    69    18    1
    70    70    18    1
    71    71    22    1
    72    72    22    1
    73    73    22    1
    74    74    23    1
    75    75    24    1
    76    76    25    1
    77    77    27    1
    78    78    27    1
    79    79    27    1
    80    80    31    1
    81    81    31    1
    82    82    31    1
    83    83    32    1
    84    84    33    1
    85    85    34    1
    86    86    36    1
    87    87    36    1
    88    88    36    1
    89    89    40    1
    90    90    40    1
    91    91    40    1
    92    92    41    1
    93    93    42    1
    94    94    43    1
    95    95    45    1
    96    96    45    1
    97    97    45    1
    98    98    49    1
    99    99    49    1
   100   100    49    1
   101   101    50    1
   102   102    51    1
   103   103    52    1
   104   104    54    1
   105   105    54    1
   106   106    54    1
   107     5    19    1
   108    25    26   ar
   109    34    35   ar
   110    43    44   ar
   111    52    53   ar
@<TRIPOS>SUBSTRUCTURE
     1 RES1        1 GROUP             0 ****  ****    0  
@<TRIPOS>CRYSIN
   11.1620   17.9110   21.4990   90.0000   94.3100   90.0000   231     1
