@<TRIPOS>MOLECULE
WEQGOO
    59    68     1     0     0
SMALL
NO_CHARGES
****
Generated from the CSD

@<TRIPOS>ATOM
     1 Fe1      4.3429  20.2654   1.3726   Fe        1 RES1   0.0000
     2 Cl1      5.3356  20.2874  -0.8164   Cl        1 RES1   0.0000
     3 P1       5.8016  21.7798   2.1395   P.3       1 RES1   0.0000
     4 P2       5.8364  18.7755   2.1764   P.3       1 RES1   0.0000
     5 P3       2.7883  18.7144   0.9460   P.3       1 RES1   0.0000
     6 P4       2.6880  21.7407   0.9586   P.3       1 RES1   0.0000
     7 C1       5.8016  22.1779   3.9387   C.ar      1 RES1   0.0000
     8 C2       6.9540  22.6713   4.5581   C.ar      1 RES1   0.0000
     9 C3       6.9944  22.8911   5.9128   C.ar      1 RES1   0.0000
    10 C4       5.9050  22.6444   6.6860   C.ar      1 RES1   0.0000
    11 C5       4.7729  22.1632   6.1172   C.ar      1 RES1   0.0000
    12 C6       4.7144  21.9288   4.7383   C.ar      1 RES1   0.0000
    13 C7       6.1368  23.4382   1.3979   C.ar      1 RES1   0.0000
    14 C8       6.9984  24.7450  -0.4277   C.ar      1 RES1   0.0000
    15 C9       6.6938  25.8954   0.2181   C.ar      1 RES1   0.0000
    16 C10      6.1190  25.8490   1.4305   C.ar      1 RES1   0.0000
    17 C11      5.8345  24.6253   2.0499   C.ar      1 RES1   0.0000
    18 C12      6.6503  17.4224   1.2083   C.ar      1 RES1   0.0000
    19 C13      6.4294  17.2245  -0.1180   C.ar      1 RES1   0.0000
    20 C14      7.1110  16.2377  -0.8132   C.ar      1 RES1   0.0000
    21 C15      8.0154  15.4317  -0.1728   C.ar      1 RES1   0.0000
    22 C16      8.2473  15.6076   1.1693   C.ar      1 RES1   0.0000
    23 C17      7.5759  16.5968   1.8456   C.ar      1 RES1   0.0000
    24 C18      5.3599  17.8302   3.6712   C.ar      1 RES1   0.0000
    25 C19      4.9351  16.5137   3.5721   C.ar      1 RES1   0.0000
    26 C20      4.5060  15.7981   4.6803   C.ar      1 RES1   0.0000
    27 C21      4.5036  16.3941   5.8875   C.ar      1 RES1   0.0000
    28 C22      4.8807  17.6886   6.0329   C.ar      1 RES1   0.0000
    29 C23      5.3065  18.4189   4.9331   C.ar      1 RES1   0.0000
    30 C24      3.0323  17.2172  -0.0980   C.ar      1 RES1   0.0000
    31 C25      3.2608  17.3637  -1.4653   C.ar      1 RES1   0.0000
    32 C26      3.4388  16.2451  -2.2617   C.ar      1 RES1   0.0000
    33 C27      3.4381  14.9896  -1.7297   C.ar      1 RES1   0.0000
    34 C28      3.2171  14.8235  -0.3855   C.ar      1 RES1   0.0000
    35 C29      3.0268  15.9349   0.4319   C.ar      1 RES1   0.0000
    36 C30      1.7468  18.0892   2.3270   C.ar      1 RES1   0.0000
    37 C31      0.6131  17.3271   2.0805   C.ar      1 RES1   0.0000
    38 C32     -0.2771  17.0218   3.0907   C.ar      1 RES1   0.0000
    39 C33     -0.0548  17.4541   4.3601   C.ar      1 RES1   0.0000
    40 C34      1.0816  18.1649   4.6403   C.ar      1 RES1   0.0000
    41 C35      1.9702  18.4824   3.6395   C.ar      1 RES1   0.0000
    42 C36      2.2474  22.9253   2.2891   C.ar      1 RES1   0.0000
    43 C37      1.6766  22.4783   3.4594   C.ar      1 RES1   0.0000
    44 C38      1.4144  23.3650   4.5097   C.ar      1 RES1   0.0000
    45 C39      1.6917  24.6717   4.3906   C.ar      1 RES1   0.0000
    46 C40      2.2404  25.1382   3.2287   C.ar      1 RES1   0.0000
    47 C41      2.5202  24.2736   2.1764   C.ar      1 RES1   0.0000
    48 C42      2.6006  22.8716  -0.5004   C.ar      1 RES1   0.0000
    49 C43      3.7014  23.1598  -1.2504   C.ar      1 RES1   0.0000
    50 C44      3.6647  24.1099  -2.2448   C.ar      1 RES1   0.0000
    51 C45      2.5117  24.7645  -2.5282   C.ar      1 RES1   0.0000
    52 C46      1.3977  24.4763  -1.8308   C.ar      1 RES1   0.0000
    53 C47      1.4361  23.5433  -0.8164   C.ar      1 RES1   0.0000
    54 C48      7.4503  20.9957   1.9825   C.3       1 RES1   0.0000
    55 C49      7.3611  19.6768   2.7336   C.3       1 RES1   0.0000
    56 C50      1.4565  19.5424  -0.0232   C.3       1 RES1   0.0000
    57 C51      1.1074  20.8101   0.7479   C.3       1 RES1   0.0000
    58 H1       3.6886  20.2190   2.5092   H         1 RES1   0.0000
    59 C52      6.7163  23.4724   0.1685   C.ar      1 RES1   0.0000
@<TRIPOS>BOND
     1     1     2    1
     2     3     1    1
     3     4     1    1
     4     5     1    1
     5     6     1    1
     6     7     3    1
     7     8     7   ar
     8     9     8   ar
     9    10     9   ar
    10    11    10   ar
    11    12     7   ar
    12    13     3    1
    13    14    15   ar
    14    15    16   ar
    15    16    17   ar
    16    17    13   ar
    17    18     4    1
    18    19    18   ar
    19    20    19   ar
    20    21    20   ar
    21    22    21   ar
    22    23    18   ar
    23    24     4    1
    24    25    24   ar
    25    26    25   ar
    26    27    26   ar
    27    28    27   ar
    28    29    24   ar
    29    30     5    1
    30    31    30   ar
    31    32    31   ar
    32    33    32   ar
    33    34    33   ar
    34    35    30   ar
    35    36     5    1
    36    37    36   ar
    37    38    37   ar
    38    39    38   ar
    39    40    39   ar
    40    41    36   ar
    41    42     6    1
    42    43    42   ar
    43    44    43   ar
    44    45    44   ar
    45    46    45   ar
    46    47    42   ar
    47    48     6    1
    48    49    48   ar
    49    50    49   ar
    50    51    50   ar
    51    52    51   ar
    52    53    48   ar
    53    54     3    1
    54    55     4    1
    55    56     5    1
    56    57     6    1
    57    58     1    1
    58    59    13   ar
    59    11    12   ar
    60    14    59   ar
    61    22    23   ar
    62    28    29   ar
    63    34    35   ar
    64    40    41   ar
    65    46    47   ar
    66    52    53   ar
    67    54    55    1
    68    56    57    1
@<TRIPOS>SUBSTRUCTURE
     1 RES1        1 GROUP             0 ****  ****    0  
@<TRIPOS>CRYSIN
   17.2090   24.4250   10.6960   90.0000   99.9800   90.0000   231     1
