@<TRIPOS>MOLECULE
WEQHUZ
   100   107     5     0     0
SMALL
USER_CHARGES
****
Generated from the CSD

@<TRIPOS>ATOM
     1 Fe1      4.7908   7.8300   9.6290   Fe        1 RES1   2.0000
     2 N1       6.6115   8.1371  10.3299   N.ar      1 RES1   0.0000
     3 N2       4.9578   9.6479   9.1733   N.ar      1 RES1   0.0000
     4 N3       3.0487   8.0974   8.7630   N.ar      1 RES1   0.0000
     5 N4       5.5586   6.9401   8.0565   N.ar      1 RES1   0.0000
     6 N5       4.5464   6.0522  10.1630   N.ar      1 RES1   0.0000
     7 N6       3.9655   8.1567  11.3831   N.ar      1 RES1   0.0000
     8 F1       6.6429  16.3826  10.9857   F         1 RES1   0.0000
     9 F2       6.3658  18.9986  11.5177   F         1 RES1   0.0000
    10 F3       4.3234  20.4033  10.4063   F         1 RES1   0.0000
    11 F4       2.5716  19.1753   8.7263   F         1 RES1   0.0000
    12 F5       2.8638  16.5598   8.1771   F         1 RES1   0.0000
    13 F6       5.7092  -1.0551  11.3207   F         1 RES1   0.0000
    14 F7       5.4071  -3.5422  12.3168   F         1 RES1   0.0000
    15 F8       3.1306  -4.2204  13.6059   F         1 RES1   0.0000
    16 F9       1.1403  -2.3982  13.9225   F         1 RES1   0.0000
    17 F10      1.4473   0.0874  12.9479   F         1 RES1   0.0000
    18 C1       7.4707   7.2448  10.8500   C.ar      1 RES1   0.0000
    19 H1       7.2036   6.3335  10.9082   H         1 RES1   0.0000
    20 C2       8.7350   7.5997  11.3067   C.ar      1 RES1   0.0000
    21 H2       9.3158   6.9449  11.6771   H         1 RES1   0.0000
    22 C3       9.1311   8.9175  11.2119   C.ar      1 RES1   0.0000
    23 H3       9.9919   9.1802  11.5167   H         1 RES1   0.0000
    24 C4       8.2733   9.8518  10.6745   C.ar      1 RES1   0.0000
    25 H4       8.5305  10.7612  10.6045   H         1 RES1   0.0000
    26 C5       7.0379   9.4363  10.2426   C.ar      1 RES1   0.0000
    27 C6       6.0381  10.3266   9.6288   C.ar      1 RES1   0.0000
    28 C7       6.0931  11.7084   9.5642   C.ar      1 RES1   0.0000
    29 H5       6.8546  12.1750   9.8851   H         1 RES1   0.0000
    30 C8       5.0109  12.4034   9.0182   C.ar      1 RES1   0.0000
    31 C9       3.9191  11.6730   8.5196   C.ar      1 RES1   0.0000
    32 H6       3.1899  12.1225   8.1103   H         1 RES1   0.0000
    33 C10      3.9114  10.2984   8.6273   C.ar      1 RES1   0.0000
    34 C11      2.8064   9.3761   8.3160   C.ar      1 RES1   0.0000
    35 C12      1.6213   9.7142   7.6871   C.ar      1 RES1   0.0000
    36 H7       1.4791  10.6036   7.3877   H         1 RES1   0.0000
    37 C13      0.6482   8.7585   7.4943   C.ar      1 RES1   0.0000
    38 H8      -0.1627   8.9749   7.0474   H         1 RES1   0.0000
    39 C14      0.8784   7.4650   7.9725   C.ar      1 RES1   0.0000
    40 H9       0.2155   6.7920   7.8734   H         1 RES1   0.0000
    41 C15      2.0679   7.1780   8.5831   C.ar      1 RES1   0.0000
    42 H10      2.2141   6.2905   8.8965   H         1 RES1   0.0000
    43 C16      4.9746  13.8219   9.1000   C.1       1 RES1   0.0000
    44 C17      4.9004  15.0003   9.2745   C.1       1 RES1   0.0000
    45 C18      4.7715  16.3940   9.5459   C.ar      1 RES1   0.0000
    46 C19      5.6455  17.0699  10.3999   C.ar      1 RES1   0.0000
    47 C20      5.5039  18.3882  10.6939   C.ar      1 RES1   0.0000
    48 C21      4.4627  19.1075  10.1220   C.ar      1 RES1   0.0000
    49 C22      3.5935  18.4789   9.2713   C.ar      1 RES1   0.0000
    50 C23      3.7483  17.1573   8.9913   C.ar      1 RES1   0.0000
    51 C24      6.1332   7.5238   6.9914   C.ar      1 RES1   0.0000
    52 H11      6.1593   8.4733   6.9440   H         1 RES1   0.0000
    53 C25      6.6846   6.7882   5.9651   C.ar      1 RES1   0.0000
    54 H12      7.1187   7.2267   5.2425   H         1 RES1   0.0000
    55 C26      6.6048   5.4093   5.9920   C.ar      1 RES1   0.0000
    56 H13      6.9444   4.8958   5.2694   H         1 RES1   0.0000
    57 C27      6.0291   4.7960   7.0733   C.ar      1 RES1   0.0000
    58 H14      5.9761   3.8498   7.1142   H         1 RES1   0.0000
    59 C28      5.5244   5.5707   8.1071   C.ar      1 RES1   0.0000
    60 C29      4.9251   5.0587   9.3391   C.ar      1 RES1   0.0000
    61 C30      4.7480   3.7275   9.6966   C.ar      1 RES1   0.0000
    62 H15      5.0298   3.0282   9.1183   H         1 RES1   0.0000
    63 C31      4.1464   3.4385  10.9265   C.ar      1 RES1   0.0000
    64 C32      3.7537   4.4812  11.7665   C.ar      1 RES1   0.0000
    65 H16      3.3484   4.2988  12.6054   H         1 RES1   0.0000
    66 C33      3.9638   5.7909  11.3562   C.ar      1 RES1   0.0000
    67 C34      3.6012   7.0199  12.0713   C.ar      1 RES1   0.0000
    68 C35      2.9652   7.0953  13.2957   C.ar      1 RES1   0.0000
    69 H17      2.6968   6.3001  13.7427   H         1 RES1   0.0000
    70 C36      2.7236   8.3181  13.8633   C.ar      1 RES1   0.0000
    71 H18      2.3020   8.3778  14.7130   H         1 RES1   0.0000
    72 C37      3.0995   9.4716  13.1880   C.ar      1 RES1   0.0000
    73 H19      2.9444  10.3266  13.5682   H         1 RES1   0.0000
    74 C38      3.6950   9.3465  11.9679   C.ar      1 RES1   0.0000
    75 H20      3.9330  10.1403  11.5027   H         1 RES1   0.0000
    76 C39      3.9489   2.0734  11.3228   C.1       1 RES1   0.0000
    77 C40      3.7835   0.9529  11.6545   C.1       1 RES1   0.0000
    78 C41      3.5894  -0.4074  12.1165   C.ar      1 RES1   0.0000
    79 C42      4.5841  -1.3703  11.9657   C.ar      1 RES1   0.0000
    80 C43      4.4395  -2.6275  12.4654   C.ar      1 RES1   0.0000
    81 C44      3.2877  -2.9719  13.1148   C.ar      1 RES1   0.0000
    82 C45      2.2777  -2.0639  13.2796   C.ar      1 RES1   0.0000
    83 C46      2.4455  -0.7786  12.7863   C.ar      1 RES1   0.0000
    84 Cl1      2.8572   4.0886   1.4057   Cl        2 RES2   0.0000
    85 O1       1.4182   4.1918   1.4140   O.2       2 RES2   0.0000
    86 O2       3.3931   4.8060   2.5275   O.2       2 RES2   0.0000
    87 O3       3.3831   4.6942   0.1885   O.3       2 RES2  -1.0000
    88 O4       3.2517   2.7264   1.4463   O.2       2 RES2   0.0000
    89 Cl2      7.1793  10.9676   5.6012   Cl        3 RES3   0.0000
    90 O5       7.2395  11.9854   4.6211   O.2       3 RES3   0.0000
    91 O6       7.7541   9.7663   5.0680   O.3       3 RES3  -1.0000
    92 O7       5.8103  10.7670   5.9328   O.2       3 RES3   0.0000
    93 O8       7.9006  11.3482   6.7469   O.2       3 RES3   0.0000
    94 C47      3.8841  22.7624   8.1782   C.3       4 RES4   0.0000
    95 H21      3.3033  22.2389   8.7683   H         4 RES4   0.0000
    96 H22      4.7997  22.4156   8.2299   H         4 RES4   0.0000
    97 H23      3.5603  22.6927   7.2563   H         4 RES4   0.0000
    98 C48      3.8676  24.1552   8.5960   C.1       4 RES4   0.0000
    99 N7       3.8182  25.2514   8.9030   N.1       4 RES4   0.0000
   100 O9       5.7317   2.4837   4.1742   O.3       5 RES5   0.0000
@<TRIPOS>BOND
     1     1     2    1
     2     2    18   ar
     3     3     1    1
     4     4     1    1
     5     5     1    1
     6     6     1    1
     7     7     1    1
     8     8    46    1
     9     9    47    1
    10    10    48    1
    11    11    49    1
    12    12    50    1
    13    13    79    1
    14    14    80    1
    15    15    81    1
    16    16    82    1
    17    17    83    1
    18    18    19    1
    19    20    18   ar
    20    21    20    1
    21    22    20   ar
    22    23    22    1
    23    24    22   ar
    24    25    24    1
    25    26     2   ar
    26    27     3   ar
    27    28    27   ar
    28    29    28    1
    29    30    28   ar
    30    31    30   ar
    31    32    31    1
    32    33     3   ar
    33    34     4   ar
    34    35    34   ar
    35    36    35    1
    36    37    35   ar
    37    38    37    1
    38    39    37   ar
    39    40    39    1
    40    41     4   ar
    41    42    41    1
    42    43    30    1
    43    44    43    3
    44    45    44    1
    45    46    45   ar
    46    47    46   ar
    47    48    47   ar
    48    49    48   ar
    49    50    45   ar
    50    51     5   ar
    51    52    51    1
    52    53    51   ar
    53    54    53    1
    54    55    53   ar
    55    56    55    1
    56    57    55   ar
    57    58    57    1
    58    59     5   ar
    59    60     6   ar
    60    61    60   ar
    61    62    61    1
    62    63    61   ar
    63    64    63   ar
    64    65    64    1
    65    66     6   ar
    66    67     7   ar
    67    68    67   ar
    68    69    68    1
    69    70    68   ar
    70    71    70    1
    71    72    70   ar
    72    73    72    1
    73    74     7   ar
    74    75    74    1
    75    76    63    1
    76    77    76    3
    77    78    77    1
    78    79    78   ar
    79    80    79   ar
    80    81    80   ar
    81    82    81   ar
    82    83    78   ar
    83    24    26   ar
    84    26    27    1
    85    31    33   ar
    86    33    34    1
    87    39    41   ar
    88    49    50   ar
    89    57    59   ar
    90    59    60    1
    91    64    66   ar
    92    66    67    1
    93    72    74   ar
    94    82    83   ar
    95    84    85    2
    96    86    84    2
    97    87    84    1
    98    88    84    2
    99    89    90    2
   100    91    89    1
   101    92    89    2
   102    93    89    2
   103    94    95    1
   104    96    94    1
   105    97    94    1
   106    98    94    1
   107    99    98    3
@<TRIPOS>SUBSTRUCTURE
     1 RES1        1 GROUP             0 ****  ****    0  
     2 RES2       84 GROUP             0 ****  ****    0  
     3 RES3       89 GROUP             0 ****  ****    0  
     4 RES4       94 GROUP             0 ****  ****    0  
     5 RES5      100 GROUP             0 ****  ****    0  
@<TRIPOS>CRYSIN
    9.1700   47.7640   11.0790   90.0000  103.5800   90.0000   231     1
