@<TRIPOS>MOLECULE
WESSIA
   135   147     4     0     0
SMALL
USER_CHARGES
****
Generated from the CSD

@<TRIPOS>ATOM
     1 Fe1      3.9919   5.4194   5.3035   Fe        1 RES1   2.0000
     2 N1       3.6418   7.2767   5.8615   N.ar      1 RES1   0.0000
     3 N2       2.2331   5.2109   5.9553   N.ar      1 RES1   0.0000
     4 N3       3.7643   3.4721   4.9688   N.ar      1 RES1   0.0000
     5 N4       4.9649   5.2116   7.0259   N.ar      1 RES1   0.0000
     6 N5       5.7532   5.6677   4.6815   N.ar      1 RES1   0.0000
     7 N6       3.6022   5.7776   3.3961   N.ar      1 RES1   0.0000
     8 C1       4.5028   8.3009   5.8095   C.ar      1 RES1   0.0000
     9 H1       5.4005   8.0717   5.5912   H         1 RES1   0.0000
    10 C2       4.1924   9.5694   6.3240   C.ar      1 RES1   0.0000
    11 H2       4.8224  10.2787   6.2790   H         1 RES1   0.0000
    12 C3       2.9425   9.7677   6.9016   C.ar      1 RES1   0.0000
    13 H3       2.7062  10.6179   7.2518   H         1 RES1   0.0000
    14 C4       2.0470   8.7123   6.9606   C.ar      1 RES1   0.0000
    15 H4       1.1861   8.8303   7.3476   H         1 RES1   0.0000
    16 C5       2.4244   7.4816   6.4481   C.ar      1 RES1   0.0000
    17 C6       1.5940   6.2658   6.4962   C.ar      1 RES1   0.0000
    18 C7       0.3231   6.1340   7.0338   C.ar      1 RES1   0.0000
    19 H5      -0.1218   6.8857   7.4064   H         1 RES1   0.0000
    20 C8      -0.2950   4.8781   7.0190   C.ar      1 RES1   0.0000
    21 C9       0.3882   3.7941   6.4544   C.ar      1 RES1   0.0000
    22 H6      -0.0091   2.9301   6.4357   H         1 RES1   0.0000
    23 C10      1.6518   3.9980   5.9233   C.ar      1 RES1   0.0000
    24 C11      2.5301   2.9931   5.3065   C.ar      1 RES1   0.0000
    25 C12      2.1689   1.6696   5.0900   C.ar      1 RES1   0.0000
    26 H7       1.3066   1.3556   5.3344   H         1 RES1   0.0000
    27 C13      3.0965   0.8124   4.5074   C.ar      1 RES1   0.0000
    28 H8       2.8757  -0.0974   4.3463   H         1 RES1   0.0000
    29 C14      4.3515   1.3017   4.1613   C.ar      1 RES1   0.0000
    30 H9       4.9980   0.7276   3.7674   H         1 RES1   0.0000
    31 C15      4.6481   2.6379   4.3985   C.ar      1 RES1   0.0000
    32 H10      5.5030   2.9713   4.1504   H         1 RES1   0.0000
    33 C16     -1.6402   4.6718   7.5850   C.ar      1 RES1   0.0000
    34 C17     -2.0837   5.4006   8.6933   C.ar      1 RES1   0.0000
    35 H11     -1.5168   6.0607   9.0735   H         1 RES1   0.0000
    36 C18     -3.3367   5.1772   9.2483   C.ar      1 RES1   0.0000
    37 H12     -3.6076   5.6734  10.0115   H         1 RES1   0.0000
    38 C19     -4.1996   4.2341   8.6976   C.ar      1 RES1   0.0000
    39 C20     -3.7628   3.5099   7.5818   C.ar      1 RES1   0.0000
    40 H13     -4.3401   2.8648   7.1909   H         1 RES1   0.0000
    41 C21     -2.5090   3.7139   7.0379   C.ar      1 RES1   0.0000
    42 H14     -2.2315   3.2016   6.2877   H         1 RES1   0.0000
    43 C22     -5.5742   4.0485   9.2232   C.ar      1 RES1   0.0000
    44 C23     -5.8765   4.1459  10.5852   C.ar      1 RES1   0.0000
    45 H15     -5.1830   4.3407  11.2042   H         1 RES1   0.0000
    46 C24     -7.1745   3.9637  11.0473   C.ar      1 RES1   0.0000
    47 H16     -7.3545   4.0347  11.9768   H         1 RES1   0.0000
    48 C25     -8.2258   3.6749  10.1597   C.ar      1 RES1   0.0000
    49 C26     -7.9329   3.6107   8.7990   C.ar      1 RES1   0.0000
    50 H17     -8.6310   3.4469   8.1746   H         1 RES1   0.0000
    51 C27     -6.6307   3.7826   8.3464   C.ar      1 RES1   0.0000
    52 H18     -6.4538   3.7184   7.4151   H         1 RES1   0.0000
    53 C28     -9.5903   3.3930  10.6468   C.ar      1 RES1   0.0000
    54 C29     -9.8025   2.8006  11.8970   C.ar      1 RES1   0.0000
    55 H19     -9.0592   2.5840  12.4469   H         1 RES1   0.0000
    56 C30    -11.0896   2.5256  12.3455   C.ar      1 RES1   0.0000
    57 H20    -11.2132   2.1314  13.2000   H         1 RES1   0.0000
    58 C31    -12.1899   2.8201  11.5624   C.ar      1 RES1   0.0000
    59 H21    -13.0668   2.6344  11.8745   H         1 RES1   0.0000
    60 C32    -11.9919   3.3896  10.3119   C.ar      1 RES1   0.0000
    61 H22    -12.7409   3.5867   9.7612   H         1 RES1   0.0000
    62 C33    -10.7116   3.6772   9.8564   C.ar      1 RES1   0.0000
    63 H23    -10.5957   4.0702   8.9995   H         1 RES1   0.0000
    64 C34      4.4225   5.0271   8.2465   C.ar      1 RES1   0.0000
    65 H24      3.4882   4.8666   8.3096   H         1 RES1   0.0000
    66 C35      5.1694   5.0626   9.4130   C.ar      1 RES1   0.0000
    67 H25      4.7546   4.9400  10.2596   H         1 RES1   0.0000
    68 C36      6.5296   5.2792   9.3201   C.ar      1 RES1   0.0000
    69 H26      7.0596   5.3101  10.1073   H         1 RES1   0.0000
    70 C37      7.1236   5.4545   8.0717   C.ar      1 RES1   0.0000
    71 H27      8.0602   5.5931   7.9918   H         1 RES1   0.0000
    72 C38      6.3052   5.4224   6.9447   C.ar      1 RES1   0.0000
    73 C39      6.7746   5.6745   5.5699   C.ar      1 RES1   0.0000
    74 C40      8.0686   5.9518   5.1618   C.ar      1 RES1   0.0000
    75 H28      8.7791   5.9472   5.7915   H         1 RES1   0.0000
    76 C41      8.3264   6.2429   3.8057   C.ar      1 RES1   0.0000
    77 C42      7.2387   6.2280   2.9105   C.ar      1 RES1   0.0000
    78 H29      7.3770   6.4102   1.9892   H         1 RES1   0.0000
    79 C43      5.9680   5.9484   3.3771   C.ar      1 RES1   0.0000
    80 C44      4.7091   5.9850   2.6165   C.ar      1 RES1   0.0000
    81 C45      4.6206   6.2440   1.2582   C.ar      1 RES1   0.0000
    82 H30      5.4060   6.3815   0.7400   H         1 RES1   0.0000
    83 C46      3.3615   6.2979   0.6625   C.ar      1 RES1   0.0000
    84 H31      3.2743   6.4835  -0.2655   H         1 RES1   0.0000
    85 C47      2.2392   6.0779   1.4434   C.ar      1 RES1   0.0000
    86 H32      1.3716   6.1065   1.0577   H         1 RES1   0.0000
    87 C48      2.3976   5.8120   2.8021   C.ar      1 RES1   0.0000
    88 H33      1.6245   5.6493   3.3299   H         1 RES1   0.0000
    89 C49      9.6936   6.5397   3.3378   C.ar      1 RES1   0.0000
    90 C50     10.5924   7.2707   4.1187   C.ar      1 RES1   0.0000
    91 H34     10.3190   7.6030   4.9666   H         1 RES1   0.0000
    92 C51     11.8902   7.5160   3.6620   C.ar      1 RES1   0.0000
    93 H35     12.4890   8.0213   4.2005   H         1 RES1   0.0000
    94 C52     12.3213   7.0290   2.4241   C.ar      1 RES1   0.0000
    95 C53     11.4325   6.2807   1.6578   C.ar      1 RES1   0.0000
    96 H36     11.7146   5.9243   0.8227   H         1 RES1   0.0000
    97 C54     10.1353   6.0481   2.1022   C.ar      1 RES1   0.0000
    98 H37      9.5386   5.5473   1.5583   H         1 RES1   0.0000
    99 C55     13.6956   7.2948   1.9224   C.ar      1 RES1   0.0000
   100 C56     14.7966   7.3200   2.7889   C.ar      1 RES1   0.0000
   101 H38     14.6676   7.1481   3.7151   H         1 RES1   0.0000
   102 C57     16.0761   7.5939   2.3135   C.ar      1 RES1   0.0000
   103 H39     16.8052   7.5939   2.9208   H         1 RES1   0.0000
   104 C58     16.3136   7.8700   0.9581   C.ar      1 RES1   0.0000
   105 C59     15.2098   7.8150   0.0958   C.ar      1 RES1   0.0000
   106 H40     15.3378   7.9709  -0.8336   H         1 RES1   0.0000
   107 C60     13.9305   7.5389   0.5687   C.ar      1 RES1   0.0000
   108 H41     13.2028   7.5148  -0.0414   H         1 RES1   0.0000
   109 C61     17.6713   8.1955   0.4601   C.ar      1 RES1   0.0000
   110 C62     18.8109   7.8276   1.1903   C.ar      1 RES1   0.0000
   111 H42     18.7051   7.4140   2.0393   H         1 RES1   0.0000
   112 C63     20.0919   8.0557   0.6980   C.ar      1 RES1   0.0000
   113 H43     20.8476   7.8047   1.2144   H         1 RES1   0.0000
   114 C64     20.2696   8.6493  -0.5428   C.ar      1 RES1   0.0000
   115 H44     21.1416   8.7879  -0.8923   H         1 RES1   0.0000
   116 C65     19.1479   9.0354  -1.2660   C.ar      1 RES1   0.0000
   117 H45     19.2599   9.4491  -2.1155   H         1 RES1   0.0000
   118 C66     17.8673   8.8303  -0.7709   C.ar      1 RES1   0.0000
   119 H46     17.1155   9.1237  -1.2732   H         1 RES1   0.0000
   120 Cl1      5.5932   4.2609  13.5739   Cl        2 RES2   0.0000
   121 O1       4.3555   4.6546  12.9630   O.2       2 RES2   0.0000
   122 O2       6.6044   4.0897  12.5677   O.2       2 RES2   0.0000
   123 O3       6.0277   5.3101  14.4815   O.3       2 RES2  -1.0000
   124 O4       5.3923   3.0515  14.3254   O.2       2 RES2   0.0000
   125 Cl2     17.7100   0.7759  14.1197   Cl        3 RES3   0.0000
   126 O5      18.5592  -0.1192  14.8608   O.2       3 RES3   0.0000
   127 O6      16.3638   0.3495  14.2991   O.2       3 RES3   0.0000
   128 O7      17.8671   2.1211  14.6353   O.3       3 RES3  -1.0000
   129 O8      18.1079   0.7276  12.7390   O.2       3 RES3   0.0000
   130 C67      5.4211   7.7268  16.9645   C.3       4 RES4   0.0000
   131 H47      6.3793   7.7131  16.7541   H         4 RES4   0.0000
   132 H48      5.2177   7.0186  17.6116   H         4 RES4   0.0000
   133 H49      5.1835   8.5965  17.3482   H         4 RES4   0.0000
   134 O9       4.6817   7.5148  15.7897   O.3       4 RES4   0.0000
   135 H50      4.9182   6.7895  15.4373   H         4 RES4   0.0000
@<TRIPOS>BOND
     1     1     2    1
     2     2     8   ar
     3     3     1    1
     4     4     1    1
     5     5     1    1
     6     6     1    1
     7     7     1    1
     8     8     9    1
     9    10     8   ar
    10    11    10    1
    11    12    10   ar
    12    13    12    1
    13    14    12   ar
    14    15    14    1
    15    16     2   ar
    16    17     3   ar
    17    18    17   ar
    18    19    18    1
    19    20    18   ar
    20    21    20   ar
    21    22    21    1
    22    23     3   ar
    23    24     4   ar
    24    25    24   ar
    25    26    25    1
    26    27    25   ar
    27    28    27    1
    28    29    27   ar
    29    30    29    1
    30    31     4   ar
    31    32    31    1
    32    33    20    1
    33    34    33   ar
    34    35    34    1
    35    36    34   ar
    36    37    36    1
    37    38    36   ar
    38    39    38   ar
    39    40    39    1
    40    41    33   ar
    41    42    41    1
    42    43    38    1
    43    44    43   ar
    44    45    44    1
    45    46    44   ar
    46    47    46    1
    47    48    46   ar
    48    49    48   ar
    49    50    49    1
    50    51    43   ar
    51    52    51    1
    52    53    48    1
    53    54    53   ar
    54    55    54    1
    55    56    54   ar
    56    57    56    1
    57    58    56   ar
    58    59    58    1
    59    60    58   ar
    60    61    60    1
    61    62    53   ar
    62    63    62    1
    63    64     5   ar
    64    65    64    1
    65    66    64   ar
    66    67    66    1
    67    68    66   ar
    68    69    68    1
    69    70    68   ar
    70    71    70    1
    71    72     5   ar
    72    73     6   ar
    73    74    73   ar
    74    75    74    1
    75    76    74   ar
    76    77    76   ar
    77    78    77    1
    78    79     6   ar
    79    80     7   ar
    80    81    80   ar
    81    82    81    1
    82    83    81   ar
    83    84    83    1
    84    85    83   ar
    85    86    85    1
    86    87     7   ar
    87    88    87    1
    88    89    76    1
    89    90    89   ar
    90    91    90    1
    91    92    90   ar
    92    93    92    1
    93    94    92   ar
    94    95    94   ar
    95    96    95    1
    96    97    89   ar
    97    98    97    1
    98    99    94    1
    99   100    99   ar
   100   101   100    1
   101   102   100   ar
   102   103   102    1
   103   104   102   ar
   104   105   104   ar
   105   106   105    1
   106   107    99   ar
   107   108   107    1
   108   109   104    1
   109   110   109   ar
   110   111   110    1
   111   112   110   ar
   112   113   112    1
   113   114   112   ar
   114   115   114    1
   115   116   114   ar
   116   117   116    1
   117   118   109   ar
   118   119   118    1
   119    14    16   ar
   120    16    17    1
   121    21    23   ar
   122    23    24    1
   123    29    31   ar
   124    39    41   ar
   125    49    51   ar
   126    60    62   ar
   127    70    72   ar
   128    72    73    1
   129    77    79   ar
   130    79    80    1
   131    85    87   ar
   132    95    97   ar
   133   105   107   ar
   134   116   118   ar
   135   120   121    2
   136   122   120    2
   137   123   120    1
   138   124   120    2
   139   125   126    2
   140   127   125    2
   141   128   125    1
   142   129   125    2
   143   130   131    1
   144   132   130    1
   145   133   130    1
   146   134   130    1
   147   135   134    1
@<TRIPOS>SUBSTRUCTURE
     1 RES1        1 GROUP             0 ****  ****    0  
     2 RES2      120 GROUP             0 ****  ****    0  
     3 RES3      125 GROUP             0 ****  ****    0  
     4 RES4      130 GROUP             0 ****  ****    0  
@<TRIPOS>CRYSIN
   21.6780   11.4590   22.3430   90.0000  103.0700   90.0000    14     1
