@<TRIPOS>MOLECULE
WESTEU
   255   278    14     0     0
SMALL
USER_CHARGES
****
Generated from the CSD

@<TRIPOS>ATOM
     1 Fe1      5.1107  14.9878   0.0000   Fe        1 RES1   0.0000
     2 Fe2     -0.3995  17.0284  -3.1155   Fe        1 RES1   0.0000
     3 Fe3     -0.5145  21.1478  -9.3199   Fe        1 RES1   0.0000
     4 Fe4      2.3599  14.5499  -2.4940   Fe        1 RES1   0.0000
     5 Fe5      2.4516   8.5414   6.8807   Fe        1 RES1   0.0000
     6 Fe6      2.3310  16.6341  -5.6164   Fe        1 RES1   0.0000
     7 Fe7      2.3567  12.6295   0.7031   Fe        1 RES1   0.0000
     8 Fe8      2.2603  18.6529  -8.7537   Fe        1 RES1   0.0000
     9 Fe9      5.0401  18.9824  -6.3001   Fe        1 RES1   0.0000
    10 Fe10     2.3918  10.6371   3.8292   Fe        1 RES1   0.0000
    11 S1       0.0511  14.3037  -4.8982   S.o2      1 RES1   0.0000
    12 S2       0.2331   6.1607   7.4207   S.o2      1 RES1   0.0000
    13 S3       4.4638  16.2976  -8.1279   S.o2      1 RES1   0.0000
    14 S4       0.1730  10.2313   1.3922   S.o2      1 RES1   0.0000
    15 S5       4.5580  12.2057  -1.7218   S.o2      1 RES1   0.0000
    16 S6       4.6678   8.3305   4.4430   S.o2      1 RES1   0.0000
    17 F1       3.7476  15.6216  -1.3309   F         1 RES1   0.0000
    18 F2       3.6567  14.1852   1.2619   F         1 RES1   0.0000
    19 O1       5.5306  13.2080  -1.1780   O.2       1 RES1   0.0000
    20 F3       1.0104  16.1022  -2.0262   F         1 RES1   0.0000
    21 F4      -1.7970  17.8756  -4.2853   F         1 RES1   0.0000
    22 F5       0.9696  13.7550   1.7745   F         1 RES1   0.0000
    23 F6       1.0197  17.8155  -4.4437   F         1 RES1   0.0000
    24 O2      -0.8279  11.1416   2.0187   O.2       1 RES1   0.0000
    25 O3      -0.8803  15.2073  -4.1735   O.2       1 RES1   0.0000
    26 F7       0.8761  20.1619  -8.2388   F         1 RES1   0.0000
    27 F8       1.1245   9.6720   8.0655   F         1 RES1   0.0000
    28 O4      -0.7035   7.0939   8.1065   O.2       1 RES1   0.0000
    29 F9       3.1649  15.5272  -4.0747   F         1 RES1   0.0000
    30 F10      1.4957  13.5699  -0.9320   F         1 RES1   0.0000
    31 O5       3.6742  12.8453  -2.7382   O.2       1 RES1   0.0000
    32 O6       0.9643  13.6597  -3.9069   O.2       1 RES1   0.0000
    33 F11      1.5380   9.5671   5.3646   F         1 RES1   0.0000
    34 F12      3.2962   7.4214   8.3842   F         1 RES1   0.0000
    35 F13      3.8003  10.0153   7.5324   F         1 RES1   0.0000
    36 O7       3.8749   7.6955   5.5137   O.2       1 RES1   0.0000
    37 O8       1.0663   6.9311   6.4662   O.2       1 RES1   0.0000
    38 F14      1.4383  17.6343  -7.1857   F         1 RES1   0.0000
    39 F15      3.7123  18.0540  -4.9974   F         1 RES1   0.0000
    40 O9       0.8489  15.0911  -5.8753   O.3       1 RES1  -1.0000
    41 O10      3.7041  15.7085  -7.0067   O.2       1 RES1   0.0000
    42 F16      3.2290  11.6940   2.3076   F         1 RES1   0.0000
    43 O11      3.7454  11.6703  -0.6021   O.3       1 RES1  -1.0000
    44 O12      0.9905  10.9872   0.4269   O.2       1 RES1   0.0000
    45 F17      3.6141  19.6871  -7.5249   F         1 RES1   0.0000
    46 O13      3.5492  16.9585  -9.0907   O.2       1 RES1   0.0000
    47 O14      1.0976   5.5050   8.4401   O.2       1 RES1  -1.0000
    48 F18      3.7042  11.6878   5.1017   F         1 RES1   0.0000
    49 O15      5.6286   9.3064   5.0402   O.2       1 RES1   0.0000
    50 O16      5.4396  17.3148  -7.6069   O.3       1 RES1  -1.0000
    51 O17      3.7755   9.0561   3.5006   O.3       1 RES1  -1.0000
    52 O18      1.0452   9.6761   2.4605   O.3       1 RES1  -1.0000
    53 O19     -0.7065  13.2549  -5.5733   O.3       1 RES1  -1.0000
    54 O20     -0.5395   5.1376   6.7215   O.3       1 RES1  -1.0000
    55 O21      5.2267  15.2655  -8.8353   O.3       1 RES1  -1.0000
    56 O22     -0.5206   9.1299   0.7176   O.3       1 RES1  -1.0000
    57 O23      5.2836  11.1006  -2.3412   O.3       1 RES1  -1.0000
    58 O24      5.4261   7.3527   3.6944   O.3       1 RES1  -1.0000
    59 Fe2A    10.6209  12.9472   3.1155   Fe        1 RES1   0.0000
    60 Fe2A    -0.4229  12.9472   3.1155   Fe        1 RES1   0.0000
    61 Fe2     10.6443  17.0284  -3.1155   Fe        1 RES1   0.0000
    62 Fe3     -0.3079   8.8278   9.3199   Fe        1 RES1   0.0000
    63 Fe3     10.5293  21.1478  -9.3199   Fe        1 RES1   0.0000
    64 Fe3     10.7359   8.8278   9.3199   Fe        1 RES1   0.0000
    65 Fe4A     7.8615  15.4257   2.4940   Fe        1 RES1   0.0000
    66 Fe5A     7.7698  21.4342  -6.8807   Fe        1 RES1   0.0000
    67 Fe5      2.2450  20.8613 -11.7592   Fe        1 RES1   0.0000
    68 Fe6A     7.8904  13.3414   5.6164   Fe        1 RES1   0.0000
    69 Fe7A     7.8647  17.3461  -0.7031   Fe        1 RES1   0.0000
    70 Fe8A     7.9611  11.3227   8.7537   Fe        1 RES1   0.0000
    71 Fe8      2.4669   6.3329   9.8862   Fe        1 RES1   0.0000
    72 Fe9A     5.1813  10.9931   6.3001   Fe        1 RES1   0.0000
    73 Fe10A    7.8297  19.3385  -3.8292   Fe        1 RES1   0.0000
    74 Fe10A   -3.2141  19.3385  -3.8292   Fe        1 RES1   0.0000
    75 S1A     10.1703  15.6719   4.8982   S.o2      1 RES1   0.0000
    76 S2       0.0265  18.4806 -11.2192   S.o2      1 RES1   0.0000
    77 S3A      5.7576  13.6780   8.1279   S.o2      1 RES1   0.0000
    78 S4A     10.0484  19.7442  -1.3922   S.o2      1 RES1   0.0000
    79 S5A      5.6634  17.7699   1.7218   S.o2      1 RES1   0.0000
    80 S6A      5.5536  21.6451  -4.4430   S.o2      1 RES1   0.0000
    81 F1A      6.4738  14.3540   1.3309   F         1 RES1   0.0000
    82 F2A      6.5648  15.7904  -1.2619   F         1 RES1   0.0000
    83 O1A      4.6908  16.7676   1.1780   O.3       1 RES1   0.0000
    84 F3A      9.2110  13.8734   2.0262   F         1 RES1   0.0000
    85 F4A      0.9747  12.1000   4.2853   F         1 RES1   0.0000
    86 F4A     12.0185  12.1000   4.2853   F         1 RES1   0.0000
    87 F4       9.2468  17.8756  -4.2853   F         1 RES1   0.0000
    88 F5A      9.2518  16.2206  -1.7745   F         1 RES1   0.0000
    89 F5A     -1.7920  16.2206  -1.7745   F         1 RES1   0.0000
    90 F5      12.0134  13.7550   1.7745   F         1 RES1   0.0000
    91 F6A      9.2018  12.1601   4.4437   F         1 RES1   0.0000
    92 O2A     11.0494  18.8340  -2.0187   O.2       1 RES1   0.0000
    93 O2A      0.0056  18.8340  -2.0187   O.2       1 RES1   0.0000
    94 O2      10.2159  11.1416   2.0187   O.2       1 RES1   0.0000
    95 O3A     11.1018  14.7683   4.1735   O.2       1 RES1   0.0000
    96 F7A      9.3454   9.8137   8.2388   F         1 RES1   0.0000
    97 F7A     -1.9050  22.1336 -10.4011   F         1 RES1   0.0000
    98 F8A      9.0969  20.3036  -8.0655   F         1 RES1   0.0000
    99 F8       0.9180  21.9919 -10.5744   F         1 RES1   0.0000
   100 F8A     -1.9469  20.3036  -8.0655   F         1 RES1   0.0000
   101 O4      -0.9100  19.4138 -10.5334   O.2       1 RES1   0.0000
   102 O4A     -0.1189  22.8817  -8.1065   O.2       1 RES1   0.0000
   103 F9A      7.0565  14.4484   4.0747   F         1 RES1   0.0000
   104 F10A     8.7257  16.4056   0.9320   F         1 RES1   0.0000
   105 O5A      6.5473  17.1303   2.7382   O.3       1 RES1  -1.0000
   106 O6A      9.2572  16.3159   3.9069   O.3       1 RES1  -1.0000
   107 F11A     8.6835  20.4084  -5.3646   F         1 RES1   0.0000
   108 F12      3.0896  19.7414 -10.2557   F         1 RES1   0.0000
   109 F12A     6.9253  22.5541  -8.3842   F         1 RES1   0.0000
   110 F12A     7.1319  10.2342  10.2557   F         1 RES1   0.0000
   111 F13A     6.4211  19.9603  -7.5324   F         1 RES1   0.0000
   112 O7A      6.3466  22.2801  -5.5137   O.2       1 RES1   0.0000
   113 O8       0.8598  19.2510 -12.1737   O.2       1 RES1   0.0000
   114 O8A      9.1551  23.0445  -6.4662   O.2       1 RES1   0.0000
   115 F14A     8.7832  12.3413   7.1857   F         1 RES1   0.0000
   116 F15A     6.5092  11.9216   4.9974   F         1 RES1   0.0000
   117 O9A      9.3726  14.8845   5.8753   O.3       1 RES1  -1.0000
   118 O10A     6.5174  14.2671   7.0067   O.2       1 RES1   0.0000
   119 F16A     6.9925  18.2816  -2.3076   F         1 RES1   0.0000
   120 O11A     6.4760  18.3053   0.6021   O.3       1 RES1  -1.0000
   121 O12A     9.2310  18.9884  -0.4269   O.2       1 RES1   0.0000
   122 F17A     6.6074  10.2885   7.5249   F         1 RES1   0.0000
   123 O13A     6.6722  13.0171   9.0907   O.2       1 RES1   0.0000
   124 O14      0.8910  17.8249 -10.1997   O.3       1 RES1  -1.0000
   125 O14A     9.3304  12.1507  10.1997   O.2       1 RES1  -1.0000
   126 F18A     6.5173  18.2878  -5.1017   F         1 RES1   0.0000
   127 O15A     4.5928  20.6692  -5.0402   O.2       1 RES1   0.0000
   128 O16A     4.7819  12.6608   7.6069   O.3       1 RES1  -1.0000
   129 O17A     6.4459  20.9195  -3.5006   O.3       1 RES1  -1.0000
   130 O18A     9.1762  20.2995  -2.4605   O.3       1 RES1  -1.0000
   131 O19A    10.9279  16.7207   5.5733   O.2       1 RES1   0.0000
   132 O20     -0.7461  17.4576 -11.9183   O.3       1 RES1  -1.0000
   133 O21A     4.9948  14.7101   8.8353   O.3       1 RES1  -1.0000
   134 O22A    10.7420  20.8457  -0.7176   O.3       1 RES1  -1.0000
   135 O23A     4.9379  18.8750   2.3412   O.2       1 RES1   0.0000
   136 O24A     4.7953  22.6229  -3.6944   O.3       1 RES1  -1.0000
   137 N1       7.8619   9.8381   3.3309   N.4       2 RES2   1.0000
   138 H1       7.2195   9.9916   3.9423   H         2 RES2   0.0000
   139 H2       8.4263  10.5391   3.3384   H         2 RES2   0.0000
   140 N4       9.8666   9.7044   5.6218   N.4       2 RES2   1.0000
   141 H8      10.6898   9.4941   5.3571   H         2 RES2   0.0000
   142 H9       9.8539   9.7994   6.5053   H         2 RES2   0.0000
   143 H10      9.6154  10.4660   5.2359   H         2 RES2   0.0000
   144 N10      5.9510  11.8954   2.2592   N.4       2 RES2   1.0000
   145 H24      5.1439  11.5330   2.1566   H         2 RES2   0.0000
   146 H25      5.9307  12.7448   1.9945   H         2 RES2   0.0000
   147 H26      6.1879  11.8563   3.1166   H         2 RES2   0.0000
   148 C1       6.9519  11.1332   1.4260   C.3       2 RES2   0.0000
   149 H27      7.7839  11.6310   1.3961   H         2 RES2   0.0000
   150 H28      6.6179  11.0617   0.5182   H         2 RES2   0.0000
   151 C7       8.9225   8.6134   5.2248   C.3       2 RES2   0.0000
   152 H45      8.0871   8.7299   5.7038   H         2 RES2   0.0000
   153 H46      9.2985   7.7598   5.4913   H         2 RES2   0.0000
   154 C10      8.6234   8.5728   3.7056   C.3       2 RES2   0.0000
   155 H51      9.4522   8.5235   3.2042   H         2 RES2   0.0000
   156 H52      8.0915   7.7898   3.4912   H         2 RES2   0.0000
   157 C11      7.2308   9.7238   1.9665   C.3       2 RES2   0.0000
   158 H53      6.4031   9.2242   2.0262   H         2 RES2   0.0000
   159 H54      7.8289   9.2524   1.3644   H         2 RES2   0.0000
   160 N2      10.0076   5.5291  11.7394   N.4       3 RES3   1.0000
   161 H3      10.8306   5.2787  11.5083   H         3 RES3   0.0000
   162 H4       9.9721   5.6493  12.6211   H         3 RES3   0.0000
   163 H5       9.8035   6.2915  11.3275   H         3 RES3   0.0000
   164 N7       6.0003   7.7900   8.4252   N.4       3 RES3   1.0000
   165 H16      5.1907   7.4461   8.2947   H         3 RES3   0.0000
   166 H17      6.0035   8.6443   8.1736   H         3 RES3   0.0000
   167 H18      6.2100   7.7352   9.2882   H         3 RES3   0.0000
   168 N8       7.9486   5.7013   9.4765   N.4       3 RES3   1.0000
   169 H19      7.3026   5.8266  10.0898   H         3 RES3   0.0000
   170 H20      8.4982   6.4138   9.5119   H         3 RES3   0.0000
   171 C2       9.0205   4.4565  11.3349   C.3       3 RES3   0.0000
   172 H35      8.1912   4.5891  11.8214   H         3 RES3   0.0000
   173 H36      9.3755   3.5885  11.5847   H         3 RES3   0.0000
   174 C4       7.0071   7.0253   7.6163   C.3       3 RES3   0.0000
   175 H39      6.6797   6.9563   6.7048   H         3 RES3   0.0000
   176 H40      7.8321   7.5356   7.5902   H         3 RES3   0.0000
   177 C8       8.7309   4.4676   9.8419   C.3       3 RES3   0.0000
   178 H47      9.5653   4.4524   9.3479   H         3 RES3   0.0000
   179 H48      8.2236   3.6766   9.6033   H         3 RES3   0.0000
   180 C13      7.3176   5.6459   8.1158   C.3       3 RES3   0.0000
   181 H57      7.9210   5.2052   7.4970   H         3 RES3   0.0000
   182 H58      6.5005   5.1263   8.1605   H         3 RES3   0.0000
   183 N3       3.8772   3.9552   4.7849   N.4       4 RES4   1.0000
   184 H6       4.7193   4.2713   4.7942   H         4 RES4   0.0000
   185 H7       3.8929   3.1303   4.4251   H         4 RES4   0.0000
   186 N11      2.7593   5.7356   1.6422   N.4       4 RES4   1.0000
   187 H29      2.1087   6.0771   2.1436   H         4 RES4   0.0000
   188 H30      2.4053   5.2410   0.9935   H         4 RES4   0.0000
   189 H31      3.2362   6.3978   1.2843   H         4 RES4   0.0000
   190 N12      1.6576   2.7460   7.6461   N.4       4 RES4   1.0000
   191 H32      2.2702   2.2363   8.0431   H         4 RES4   0.0000
   192 H33      0.8686   2.3346   7.6722   H         4 RES4   0.0000
   193 H34      1.6001   3.5263   8.0711   H         4 RES4   0.0000
   194 C12      3.6621   4.8711   2.5033   C.3       4 RES4   0.0000
   195 H55      4.5566   5.2454   2.5425   H         4 RES4   0.0000
   196 H56      3.7158   3.9716   2.1454   H         4 RES4   0.0000
   197 C14      3.3480   3.8741   6.2183   C.3       4 RES4   0.0000
   198 H59      3.1358   4.7621   6.5482   H         4 RES4   0.0000
   199 H60      4.0156   3.4810   6.8017   H         4 RES4   0.0000
   200 C15      2.0606   2.9855   6.1884   C.3       4 RES4   0.0000
   201 H61      1.3480   3.4406   5.7131   H         4 RES4   0.0000
   202 H62      2.2415   2.1427   5.7448   H         4 RES4   0.0000
   203 C16      3.0063   4.8609   3.9293   C.3       4 RES4   0.0000
   204 H63      2.9819   5.7563   4.3002   H         4 RES4   0.0000
   205 H64      2.1005   4.5188   3.8845   H         4 RES4   0.0000
   206 N5      -2.7385   1.0906   2.9078   N.4       5 RES5   1.0000
   207 H11     -2.1565   0.8306   2.2741   H         5 RES5   0.0000
   208 H12     -3.3552   0.4410   2.9973   H         5 RES5   0.0000
   209 N6      -4.7328   1.1911   0.6151   N.4       5 RES5   1.0000
   210 H13     -4.4772   0.4165   0.9730   H         5 RES5   0.0000
   211 H14     -4.7784   1.1079  -0.2703   H         5 RES5   0.0000
   212 H15     -5.5336   1.4149   0.9320   H         5 RES5   0.0000
   213 N9      -0.7437  -0.9273   3.9927   N.4       5 RES5   1.0000
   214 H21     -0.9572  -0.8740   3.1296   H         5 RES5   0.0000
   215 H22     -0.7692  -1.7775   4.2518   H         5 RES5   0.0000
   216 H23      0.0764  -0.6025   4.1157   H         5 RES5   0.0000
   217 C3      -1.7319  -0.1213   4.8072   C.3       5 RES5   0.0000
   218 H37     -2.5670  -0.6091   4.8650   H         5 RES5   0.0000
   219 H38     -1.3877  -0.0149   5.7075   H         5 RES5   0.0000
   220 C5      -3.7418   2.2545   0.9655   C.3       5 RES5   0.0000
   221 H41     -4.0867   3.1093   0.6654   H         5 RES5   0.0000
   222 H42     -2.9198   2.0832   0.4809   H         5 RES5   0.0000
   223 C6      -3.4225   2.3505   2.4530   C.3       5 RES5   0.0000
   224 H43     -2.8460   3.1126   2.6152   H         5 RES5   0.0000
   225 H44     -4.2418   2.4780   2.9563   H         5 RES5   0.0000
   226 C9      -1.9976   1.2432   4.2145   C.3       5 RES5   0.0000
   227 H49     -2.5277   1.7706   4.8315   H         5 RES5   0.0000
   228 H50     -1.1571   1.7042   4.0635   H         5 RES5   0.0000
   229 O25     -1.0341   2.1749   7.2584   O.3       6 RES6   0.0000
   230 H66     -1.1096   1.3694   7.2323   H         6 RES6   0.0000
   231 H69     -1.9505   1.9845   7.6554   H         6 RES6   0.0000
   232 O26      1.4572   1.6181  10.2370   O.3       7 RES7   0.0000
   233 H70      1.0169   0.5931  10.2594   H         7 RES7   0.0000
   234 H72      2.1050   1.2262  10.6508   H         7 RES7   0.0000
   235 O27      6.3861   5.1097   4.8613   O.3       8 RES8   0.0000
   236 H67      7.0708   4.7968   4.6022   H         8 RES8   0.0000
   237 H71      6.7211   6.0327   4.5034   H         8 RES8   0.0000
   238 O28      9.1118   4.8695   4.3766   O.3       9 RES9   0.0000
   239 H73      8.2702   4.5136   3.8901   H         9 RES9   0.0000
   240 H74      9.6281   4.6172   5.2005   H         9 RES9   0.0000
   241 O29      3.7146   8.3037   0.8202   O.3      10 RES10   0.0000
   242 H68      3.7881   8.6697   1.6496   H        10 RES10   0.0000
   243 H80      3.9328   8.8150   0.4548   H        10 RES10   0.0000
   244 O30      6.0664   8.6798  -0.8873   O.3      11 RES11   0.0000
   245 H77      5.7849   7.9074  -1.7391   H        11 RES11   0.0000
   246 H82      5.7036   7.7930  -0.6431   H        11 RES11   0.0000
   247 O31      8.8525   9.4256  -1.5620   O.3      12 RES12   0.0000
   248 H76      9.1967   8.9345  -2.1026   H        12 RES12   0.0000
   249 H78      9.4576   9.1427  -0.7531   H        12 RES12   0.0000
   250 O32     12.4379  16.7344   7.8996   O.3      13 RES13   0.0000
   251 H65     13.0932  17.0452   8.2798   H        13 RES13   0.0000
   252 H75     11.9760  16.6721   7.0869   H        13 RES13   0.0000
   253 O33     11.8268   7.0715   3.4260   O.3      14 RES14   0.0000
   254 H79     12.4796   7.0023   3.7597   H        14 RES14   0.0000
   255 H81     12.0228   6.5966   2.3803   H        14 RES14   0.0000
@<TRIPOS>BOND
     1     1    17    1
     2     2    20    1
     3     3    26    1
     4     4    17    1
     5     5    27    1
     6     6    23    1
     7     7    18    1
     8     8    26    1
     9     9    39    1
    10    10    33    1
    11    11    25    2
    12    12    28    2
    13    13    41    2
    14    14    24    2
    15    15    19    2
    16    16    36    2
    17    18     1    1
    18    19     1    1
    19    20     4    1
    20    21     2    1
    21    22     7    1
    22    23     2    1
    23    24    60   un
    24    25     2    1
    25    27    62   un
    26    28    62   un
    27    29     4    1
    28    30     4    1
    29    31     4    1
    30    32     4    1
    31    33     5    1
    32    34     5    1
    33    35     5    1
    34    36     5    1
    35    37     5    1
    36    38     6    1
    37    39     6    1
    38    40     6    1
    39    41     6    1
    40    42     7    1
    41    43     7    1
    42    44     7    1
    43    45     8    1
    44    46     8    1
    45    47    12    1
    46    48    10    1
    47    49    16    2
    48    50     9    1
    49    51    10    1
    50    52    10    1
    51    53    11    1
    52    54    12    1
    53    55    13    1
    54    56    14    1
    55    57    15    1
    56    58    16    1
    57    59    84    1
    58    60    22   un
    59    61    87   un
    60    63    98   un
    61    64    96   un
    62    65    81    1
    63    66    98    1
    64    67    99   un
    65    68    91    1
    66    69    82    1
    67    70    96    1
    68    71    34   un
    69    72    35    1
    70    73    87    1
    71    74    21   un
    72    75    95    2
    73    76   101    2
    74    77   118    2
    75    78    92    2
    76    79    83    1
    77    80   112    2
    78    81     1    1
    79    82     1    1
    80    83     1    1
    81    84    65    1
    82    85    10    1
    83    86    59   un
    84    88    61   un
    85    89     2   un
    86    90    59   un
    87    91    59    1
    88    92    61   un
    89    93     2   un
    90    94    59   un
    91    95    59    1
    92    97     3   un
    93    99     3    1
    94   100     3   un
    95   101     3    1
    96   102     3   un
    97   103    65    1
    98   104    65    1
    99   105    65    1
   100   106    65    1
   101   107    66    1
   102   108     8    1
   103   109    66   un
   104   110    70   un
   105   111     9    1
   106   112    66    1
   107   113    67   un
   108   114    66   un
   109   115    68    1
   110   116    68    1
   111   117    68    1
   112   118    68    1
   113   119    69    1
   114   120    69    1
   115   121    69    1
   116   122    70    1
   117   123    70    1
   118   124     8    1
   119   125    70   un
   120   126     9    1
   121   127     9    1
   122   128    72    1
   123   129    73    1
   124   130    73    1
   125   131    75    2
   126   132    76    1
   127   133    77    1
   128   134    78    1
   129   135    79    2
   130   136    80    1
   131     6    29    1
   132     7    30    1
   133     8    38    1
   134     9    45    1
   135    10    42    1
   136    11    32    2
   137    11    40    1
   138    12    37    2
   139    13    46    2
   140    13    50    1
   141    14    44    2
   142    14    52    1
   143    15    31    2
   144    15    43    1
   145    16    51    1
   146    47    71   un
   147    48    72    1
   148    49    72    1
   149    60    85   un
   150    66   111    1
   151    67   108   un
   152    68   103    1
   153    69    88    1
   154    69   104    1
   155    70   115    1
   156    72   116    1
   157    72   122    1
   158    73   107    1
   159    73   119    1
   160    73   126    1
   161    75   106    1
   162    75   117    1
   163    76   113    2
   164    76   124    1
   165    77   123    2
   166    77   128    1
   167    78   121    2
   168    78   130    1
   169    79   105    1
   170    79   120    1
   171    80   127    2
   172    80   129    1
   173   137   138    1
   174   139   137    1
   175   140   141    1
   176   142   140    1
   177   143   140    1
   178   144   145    1
   179   146   144    1
   180   147   144    1
   181   148   144    1
   182   149   148    1
   183   150   148    1
   184   151   140    1
   185   152   151    1
   186   153   151    1
   187   154   137    1
   188   155   154    1
   189   156   154    1
   190   157   137    1
   191   158   157    1
   192   159   157    1
   193   148   157    1
   194   151   154    1
   195   160   161    1
   196   162   160    1
   197   163   160    1
   198   164   165    1
   199   166   164    1
   200   167   164    1
   201   168   169    1
   202   170   168    1
   203   171   160    1
   204   172   171    1
   205   173   171    1
   206   174   164    1
   207   175   174    1
   208   176   174    1
   209   177   168    1
   210   178   177    1
   211   179   177    1
   212   180   168    1
   213   181   180    1
   214   182   180    1
   215   171   177    1
   216   174   180    1
   217   183   184    1
   218   185   183    1
   219   186   187    1
   220   188   186    1
   221   189   186    1
   222   190   191    1
   223   192   190    1
   224   193   190    1
   225   194   186    1
   226   195   194    1
   227   196   194    1
   228   197   183    1
   229   198   197    1
   230   199   197    1
   231   200   190    1
   232   201   200    1
   233   202   200    1
   234   203   183    1
   235   204   203    1
   236   205   203    1
   237   194   203    1
   238   197   200    1
   239   206   207    1
   240   208   206    1
   241   209   210    1
   242   211   209    1
   243   212   209    1
   244   213   214    1
   245   215   213    1
   246   216   213    1
   247   217   213    1
   248   218   217    1
   249   219   217    1
   250   220   209    1
   251   221   220    1
   252   222   220    1
   253   223   206    1
   254   224   223    1
   255   225   223    1
   256   226   206    1
   257   227   226    1
   258   228   226    1
   259   217   226    1
   260   220   223    1
   261   229   230    1
   262   231   229    1
   263   232   233    1
   264   234   232    1
   265   235   236    1
   266   237   235    1
   267   238   239    1
   268   240   238    1
   269   241   242    1
   270   243   241    1
   271   244   245    1
   272   246   244    1
   273   247   248    1
   274   249   247    1
   275   250   251    1
   276   252   250    1
   277   253   254    1
   278   255   253    1
@<TRIPOS>SUBSTRUCTURE
     1 RES1        1 GROUP             0 ****  ****    0  
     2 RES2      137 GROUP             0 ****  ****    0  
     3 RES3      160 GROUP             0 ****  ****    0  
     4 RES4      183 GROUP             0 ****  ****    0  
     5 RES5      206 GROUP             0 ****  ****    0  
     6 RES6      229 GROUP             0 ****  ****    0  
     7 RES7      232 GROUP             0 ****  ****    0  
     8 RES8      235 GROUP             0 ****  ****    0  
     9 RES9      238 GROUP             0 ****  ****    0  
    10 RES10     241 GROUP             0 ****  ****    0  
    11 RES11     244 GROUP             0 ****  ****    0  
    12 RES12     247 GROUP             0 ****  ****    0  
    13 RES13     250 GROUP             0 ****  ****    0  
    14 RES14     253 GROUP             0 ****  ****    0  
@<TRIPOS>CRYSIN
   11.0438   15.8352   19.5662   77.4810   74.2310   71.1710     2     1
