@<TRIPOS>MOLECULE
WETJUD
   108   119     2     0     0
SMALL
NO_CHARGES
****
Generated from the CSD

@<TRIPOS>ATOM
     1 Fe1      5.2229  16.0525   6.6200   Fe        1 RES1   0.0000
     2 S1       9.5095  17.1782   7.1953   S.3       1 RES1   0.0000
     3 S2       8.4226  15.1193   9.6239   S.3       1 RES1   0.0000
     4 F1       6.4858  19.2670   4.0001   F         1 RES1   0.0000
     5 F2       3.9821  12.8609   9.2715   F         1 RES1   0.0000
     6 O1       7.3119  17.5699   5.3168   O.3       1 RES1   0.0000
     7 O2       5.5786  14.5133   9.0367   O.3       1 RES1   0.0000
     8 O3       5.3146  18.8438   5.9309   O.3       1 RES1   0.0000
     9 O4       3.2578  14.8428   8.3722   O.3       1 RES1   0.0000
    10 O5       5.2804  17.2912   4.0113   O.3       1 RES1   0.0000
    11 O6       4.6524  13.2727   7.1303   O.3       1 RES1   0.0000
    12 O7       8.7396  22.5403  11.2466   O.2       1 RES1   0.0000
    13 O8      10.6458  21.5884  11.9415   O.3       1 RES1   0.0000
    14 O9       9.7096  13.8665  11.5958   O.2       1 RES1   0.0000
    15 O10      8.7412  13.3629  13.5513   O.3       1 RES1   0.0000
    16 N1       6.9923  16.6869   6.3152   N.2       1 RES1   0.0000
    17 N2       6.1251  15.4128   8.1640   N.2       1 RES1   0.0000
    18 N3       4.7665  17.8945   6.7570   N.2       1 RES1   0.0000
    19 N4       3.6503  15.9928   7.7252   N.2       1 RES1   0.0000
    20 N5       4.9736  16.1548   4.7330   N.2       1 RES1   0.0000
    21 N6       4.9014  14.2303   6.1700   N.2       1 RES1   0.0000
    22 C1       7.8804  16.5317   7.2545   C.2       1 RES1   0.0000
    23 C2       7.3954  15.7189   8.3379   C.2       1 RES1   0.0000
    24 C3       3.7692  18.2713   7.5160   C.2       1 RES1   0.0000
    25 C4       3.1974  17.1221   8.2183   C.2       1 RES1   0.0000
    26 C5       4.8452  15.0532   4.0419   C.2       1 RES1   0.0000
    27 C6       4.6605  13.9076   4.9310   C.2       1 RES1   0.0000
    28 C7       3.2649  19.6478   7.6692   C.ar      1 RES1   0.0000
    29 C8       4.1273  20.7035   7.8572   C.ar      1 RES1   0.0000
    30 H1       5.0652  20.5626   7.8124   H         1 RES1   0.0000
    31 C9       3.6230  21.9742   8.1137   C.ar      1 RES1   0.0000
    32 H2       4.2204  22.6983   8.2607   H         1 RES1   0.0000
    33 C10      2.2564  22.1880   8.1561   C.ar      1 RES1   0.0000
    34 H3       1.9143  23.0579   8.3304   H         1 RES1   0.0000
    35 C11      1.3924  21.1311   7.9369   C.ar      1 RES1   0.0000
    36 H4       0.4545  21.2817   7.9469   H         1 RES1   0.0000
    37 C12      1.8806  19.8579   7.7053   C.ar      1 RES1   0.0000
    38 H5       1.2815  19.1339   7.5683   H         1 RES1   0.0000
    39 C13      2.3158  17.2314   9.4038   C.ar      1 RES1   0.0000
    40 C14      2.6739  18.1474  10.3924   C.ar      1 RES1   0.0000
    41 H6       3.4560  18.6771  10.2878   H         1 RES1   0.0000
    42 C15      1.8902  18.2884  11.5306   C.ar      1 RES1   0.0000
    43 H7       2.1375  18.9055  12.2079   H         1 RES1   0.0000
    44 C16      0.7596  17.5351  11.6625   C.ar      1 RES1   0.0000
    45 H8       0.2280  17.6323  12.4445   H         1 RES1   0.0000
    46 C17      0.3678  16.6264  10.6863   C.ar      1 RES1   0.0000
    47 H9      -0.4304  16.1211  10.7834   H         1 RES1   0.0000
    48 C18      1.1756  16.4734   9.5606   C.ar      1 RES1   0.0000
    49 H10      0.9379  15.8416   8.8932   H         1 RES1   0.0000
    50 C19      5.0347  14.9135   2.5825   C.ar      1 RES1   0.0000
    51 C20      4.4212  15.7202   1.6437   C.ar      1 RES1   0.0000
    52 H11      3.8318  16.4102   1.9251   H         1 RES1   0.0000
    53 C21      4.6621  15.5282   0.3038   C.ar      1 RES1   0.0000
    54 H12      4.2188  16.0749  -0.3337   H         1 RES1   0.0000
    55 C22      5.5341  14.5588  -0.1320   C.ar      1 RES1   0.0000
    56 H13      5.7011  14.4494  -1.0609   H         1 RES1   0.0000
    57 C23      6.1636  13.7497   0.7895   C.ar      1 RES1   0.0000
    58 H14      6.7707  13.0791   0.4981   H         1 RES1   0.0000
    59 C24      5.9099  13.9100   2.1193   C.ar      1 RES1   0.0000
    60 H15      6.3323  13.3366   2.7444   H         1 RES1   0.0000
    61 C25      4.2092  12.5761   4.4596   C.ar      1 RES1   0.0000
    62 C26      4.7825  11.4026   4.9509   C.ar      1 RES1   0.0000
    63 H16      5.4747  11.4487   5.5984   H         1 RES1   0.0000
    64 C27      4.3377  10.1732   4.4927   C.ar      1 RES1   0.0000
    65 H17      4.7359   9.3738   4.8139   H         1 RES1   0.0000
    66 C28      3.3115  10.1173   3.5638   C.ar      1 RES1   0.0000
    67 H18      2.9983   9.2742   3.2624   H         1 RES1   0.0000
    68 C29      2.7430  11.2714   3.0732   C.ar      1 RES1   0.0000
    69 H19      2.0412  11.2204   2.4356   H         1 RES1   0.0000
    70 C30      3.1991  12.5105   3.5140   C.ar      1 RES1   0.0000
    71 H20      2.8184  13.3099   3.1678   H         1 RES1   0.0000
    72 C31      9.3980  18.4633   8.3827   C.ar      1 RES1   0.0000
    73 C32     10.5125  18.6552   9.1946   C.ar      1 RES1   0.0000
    74 H21     11.2513  18.0648   9.1074   H         1 RES1   0.0000
    75 C33     10.5736  19.6781  10.1210   C.ar      1 RES1   0.0000
    76 H22     11.3316  19.7826  10.6838   H         1 RES1   0.0000
    77 C34      9.5201  20.5237  10.2032   C.ar      1 RES1   0.0000
    78 C35      8.3927  20.3949   9.3938   C.ar      1 RES1   0.0000
    79 H23      7.6732  21.0120   9.4660   H         1 RES1   0.0000
    80 C36      8.3365  19.3331   8.4699   C.ar      1 RES1   0.0000
    81 H24      7.5753  19.2214   7.9145   H         1 RES1   0.0000
    82 C37      9.5683  21.6754  11.1819   C.2       1 RES1   0.0000
    83 C38     10.8819  22.5452  12.9551   C.3       1 RES1   0.0000
    84 H25     11.0698  23.4150  12.5466   H         1 RES1   0.0000
    85 H26     11.6496  22.2658  13.4980   H         1 RES1   0.0000
    86 H27     10.0886  22.6181  13.5279   H         1 RES1   0.0000
    87 C39      7.5335  15.6934  11.0711   C.ar      1 RES1   0.0000
    88 C40      6.5780  16.6847  10.9802   C.ar      1 RES1   0.0000
    89 H28      6.3644  17.0589  10.1334   H         1 RES1   0.0000
    90 C41      5.9260  17.1342  12.1233   C.ar      1 RES1   0.0000
    91 H29      5.2595  17.8048  12.0411   H         1 RES1   0.0000
    92 C42      6.2198  16.6313  13.3685   C.ar      1 RES1   0.0000
    93 H30      5.7830  16.9569  14.1480   H         1 RES1   0.0000
    94 C43      7.1834  15.6278  13.4457   C.ar      1 RES1   0.0000
    95 H31      7.4066  15.2609  14.2949   H         1 RES1   0.0000
    96 C44      7.8242  15.1492  12.3125   C.ar      1 RES1   0.0000
    97 C45      8.8713  14.0728  12.4171   C.2       1 RES1   0.0000
    98 C46      9.7369  12.3307  13.7072   C.3       1 RES1   0.0000
    99 H32      9.7867  11.7986  12.8853   H         1 RES1   0.0000
   100 H33      9.4928  11.7500  14.4568   H         1 RES1   0.0000
   101 H34     10.6089  12.7413  13.8815   H         1 RES1   0.0000
   102 B1       6.0898  18.2592   4.8065   B         1 RES1   0.0000
   103 B2       4.3842  13.8784   8.4499   B         1 RES1   0.0000
   104 Cl1      8.2804  13.5490   5.7640   Cl        2 RES2   0.0000
   105 Cl2      9.1616  10.8399   6.1060   Cl        2 RES2   0.0000
   106 Cl3      8.7751  11.8691   3.5003   Cl        2 RES2   0.0000
   107 C47      9.2487  12.2457   5.1377   C.3       2 RES2   0.0000
   108 H35     10.2010  12.5518   5.1203   H         2 RES2   0.0000
@<TRIPOS>BOND
     1     1    16    1
     2     2    22    1
     3     3    23    1
     4     4   102    1
     5     5   103    1
     6     6    16    1
     7     7    17    1
     8     8    18    1
     9     9    19    1
    10    10    20    1
    11    11    21    1
    12    12    82    2
    13    13    82    1
    14    14    97    2
    15    15    97    1
    16    16    22    2
    17    17     1    1
    18    18     1    1
    19    19     1    1
    20    20     1    1
    21    21     1    1
    22    22    23    1
    23    23    17    2
    24    24    18    2
    25    25    19    2
    26    26    20    2
    27    27    21    2
    28    28    24    1
    29    29    28   ar
    30    30    29    1
    31    31    29   ar
    32    32    31    1
    33    33    31   ar
    34    34    33    1
    35    35    33   ar
    36    36    35    1
    37    37    28   ar
    38    38    37    1
    39    39    25    1
    40    40    39   ar
    41    41    40    1
    42    42    40   ar
    43    43    42    1
    44    44    42   ar
    45    45    44    1
    46    46    44   ar
    47    47    46    1
    48    48    39   ar
    49    49    48    1
    50    50    26    1
    51    51    50   ar
    52    52    51    1
    53    53    51   ar
    54    54    53    1
    55    55    53   ar
    56    56    55    1
    57    57    55   ar
    58    58    57    1
    59    59    50   ar
    60    60    59    1
    61    61    27    1
    62    62    61   ar
    63    63    62    1
    64    64    62   ar
    65    65    64    1
    66    66    64   ar
    67    67    66    1
    68    68    66   ar
    69    69    68    1
    70    70    61   ar
    71    71    70    1
    72    72     2    1
    73    73    72   ar
    74    74    73    1
    75    75    73   ar
    76    76    75    1
    77    77    75   ar
    78    78    77   ar
    79    79    78    1
    80    80    72   ar
    81    81    80    1
    82    82    77    1
    83    83    13    1
    84    84    83    1
    85    85    83    1
    86    86    83    1
    87    87     3    1
    88    88    87   ar
    89    89    88    1
    90    90    88   ar
    91    91    90    1
    92    92    90   ar
    93    93    92    1
    94    94    92   ar
    95    95    94    1
    96    96    87   ar
    97    97    96    1
    98    98    15    1
    99    99    98    1
   100   100    98    1
   101   101    98    1
   102   102     6    1
   103   103     7    1
   104     8   102    1
   105     9   103    1
   106    10   102    1
   107    11   103    1
   108    24    25    1
   109    26    27    1
   110    35    37   ar
   111    46    48   ar
   112    57    59   ar
   113    68    70   ar
   114    78    80   ar
   115    94    96   ar
   116   104   107    1
   117   105   107    1
   118   106   107    1
   119   107   108    1
@<TRIPOS>SUBSTRUCTURE
     1 RES1        1 GROUP             0 ****  ****    0  
     2 RES2      104 GROUP             0 ****  ****    0  
@<TRIPOS>CRYSIN
   16.0595   24.2970   24.9040   90.0000   90.0000   90.0000    61     1
