@<TRIPOS>MOLECULE
WEYPOG
   193   204     1     0     0
SMALL
NO_CHARGES
****
Generated from the CSD

@<TRIPOS>ATOM
     1 C1       6.5047   1.3284   0.3539   C.3       1 RES1   0.0000
     2 H1       6.0891   0.4514   0.3359   H         1 RES1   0.0000
     3 H2       5.8365   1.9608   0.6643   H         1 RES1   0.0000
     4 C2       6.8985   1.6983  -1.0415   C.ar      1 RES1   0.0000
     5 C3       7.1132   3.0326  -1.3975   C.ar      1 RES1   0.0000
     6 H3       7.0257   3.6948  -0.7512   H         1 RES1   0.0000
     7 C4       7.4473   3.3786  -2.6625   C.ar      1 RES1   0.0000
     8 H4       7.5925   4.2715  -2.8755   H         1 RES1   0.0000
     9 C5       7.5686   2.4181  -3.6320   C.ar      1 RES1   0.0000
    10 H5       7.7893   2.6548  -4.5050   H         1 RES1   0.0000
    11 C6       7.3638   1.1096  -3.3014   C.ar      1 RES1   0.0000
    12 H6       7.4453   0.4534  -3.9551   H         1 RES1   0.0000
    13 C7       7.0436   0.7557  -2.0321   C.ar      1 RES1   0.0000
    14 H7       6.9203  -0.1432  -1.8276   H         1 RES1   0.0000
    15 C8       9.2868   3.0903   1.8298   C.3       1 RES1   0.0000
    16 H8       9.7143   3.2016   0.9663   H         1 RES1   0.0000
    17 H9       8.6802   3.8380   1.9495   H         1 RES1   0.0000
    18 C9      10.3348   3.1778   2.8734   C.ar      1 RES1   0.0000
    19 C10     11.6055   2.7622   2.6413   C.ar      1 RES1   0.0000
    20 H10     11.8242   2.4181   1.8064   H         1 RES1   0.0000
    21 C11     12.5779   2.8377   3.6118   C.ar      1 RES1   0.0000
    22 H11     13.4469   2.5514   3.4391   H         1 RES1   0.0000
    23 C12     12.2279   3.3627   4.8779   C.ar      1 RES1   0.0000
    24 H12     12.8603   3.4065   5.5581   H         1 RES1   0.0000
    25 C13     10.9691   3.7982   5.0962   C.ar      1 RES1   0.0000
    26 H13     10.7504   4.1761   5.9173   H         1 RES1   0.0000
    27 C14     10.0146   3.6928   4.1289   C.ar      1 RES1   0.0000
    28 H14      9.1456   3.9653   4.3079   H         1 RES1   0.0000
    29 C15      8.2467  -0.3341   3.1425   C.3       1 RES1   0.0000
    30 H15      9.1476  -0.3758   3.4995   H         1 RES1   0.0000
    31 H16      7.6402  -0.1730   3.8820   H         1 RES1   0.0000
    32 C16      7.9087  -1.6406   2.5131   C.ar      1 RES1   0.0000
    33 C17      8.8970  -2.5076   2.0628   C.ar      1 RES1   0.0000
    34 H17      9.7939  -2.2829   2.1593   H         1 RES1   0.0000
    35 C18      8.5490  -3.6988   1.4738   C.ar      1 RES1   0.0000
    36 H18      9.2191  -4.2576   1.1517   H         1 RES1   0.0000
    37 C19      7.2783  -4.0806   1.3519   C.ar      1 RES1   0.0000
    38 H19      7.0754  -4.9059   0.9737   H         1 RES1   0.0000
    39 C20      6.2760  -3.2633   1.7778   C.ar      1 RES1   0.0000
    40 H20      5.3871  -3.5139   1.6708   H         1 RES1   0.0000
    41 C21      6.5982  -2.0542   2.3743   C.ar      1 RES1   0.0000
    42 H21      5.9161  -1.5054   2.6890   H         1 RES1   0.0000
    43 C22      5.9738   3.3468   3.5938   C.1       1 RES1   0.0000
    44 C23      4.9715   4.9715   1.8944   C.1       1 RES1   0.0000
    45 N1       6.6022   2.4142   3.3565   N.1       1 RES1   0.0000
    46 N2       4.9715   4.9715   0.7311   N.1       1 RES1   0.0000
    47 N3       4.9715   4.9715   5.4797   N.2       1 RES1   0.0000
    48 N4       9.5731   0.2506   0.3306   N.1       1 RES1   0.0000
    49 C24     10.3129  -0.2506  -0.3306   C.1       1 RES1   0.0000
    50 O1       4.9715   4.9715   6.5922   O.2       1 RES1   0.0000
    51 Fe1      4.9715   4.9715   3.8192   Fe        1 RES1   0.0000
    52 Sn1      8.1171   1.2919   1.7641   Sn        1 RES1   0.0000
    53 C1A      8.6146   6.5047   0.3539   C.3       1 RES1   0.0000
    54 C1B      1.3284   3.4383   0.3539   C.3       1 RES1   0.0000
    55 C1C      3.4383   8.6146   0.3539   C.3       1 RES1   0.0000
    56 H1A      9.4916   6.0891   0.3359   H         1 RES1   0.0000
    57 H1B      0.4514   3.8539   0.3359   H         1 RES1   0.0000
    58 H1C      3.8539   9.4916   0.3359   H         1 RES1   0.0000
    59 H2A      7.9822   5.8365   0.6643   H         1 RES1   0.0000
    60 H2B      1.9608   4.1065   0.6643   H         1 RES1   0.0000
    61 H2C      4.1065   7.9822   0.6643   H         1 RES1   0.0000
    62 C2A      8.2447   6.8985  -1.0415   C.ar      1 RES1   0.0000
    63 C2B      1.6983   3.0445  -1.0415   C.ar      1 RES1   0.0000
    64 C2C      3.0445   8.2447  -1.0415   C.ar      1 RES1   0.0000
    65 C3A      6.9104   7.1132  -1.3975   C.ar      1 RES1   0.0000
    66 C3B      3.0326   2.8298  -1.3975   C.ar      1 RES1   0.0000
    67 C3C      2.8298   6.9104  -1.3975   C.ar      1 RES1   0.0000
    68 H3A      6.2482   7.0257  -0.7512   H         1 RES1   0.0000
    69 H3B      3.6948   2.9173  -0.7512   H         1 RES1   0.0000
    70 H3C      2.9173   6.2482  -0.7512   H         1 RES1   0.0000
    71 C4A      6.5644   7.4473  -2.6625   C.ar      1 RES1   0.0000
    72 C4B      3.3786   2.4957  -2.6625   C.ar      1 RES1   0.0000
    73 C4C      2.4957   6.5644  -2.6625   C.ar      1 RES1   0.0000
    74 H4A      5.6715   7.5925  -2.8755   H         1 RES1   0.0000
    75 H4B      4.2715   2.3505  -2.8755   H         1 RES1   0.0000
    76 H4C      2.3505   5.6715  -2.8755   H         1 RES1   0.0000
    77 C5A      7.5249   7.5686  -3.6320   C.ar      1 RES1   0.0000
    78 C5B      2.4181   2.3744  -3.6320   C.ar      1 RES1   0.0000
    79 C5C      2.3744   7.5249  -3.6320   C.ar      1 RES1   0.0000
    80 H5A      7.2882   7.7893  -4.5050   H         1 RES1   0.0000
    81 H5B      2.6548   2.1537  -4.5050   H         1 RES1   0.0000
    82 H5C      2.1537   7.2882  -4.5050   H         1 RES1   0.0000
    83 C6A      8.8334   7.3638  -3.3014   C.ar      1 RES1   0.0000
    84 C6B      1.1096   2.5792  -3.3014   C.ar      1 RES1   0.0000
    85 C6C      2.5792   8.8334  -3.3014   C.ar      1 RES1   0.0000
    86 H6A      9.4896   7.4453  -3.9551   H         1 RES1   0.0000
    87 H6B      0.4534   2.4977  -3.9551   H         1 RES1   0.0000
    88 H6C      2.4977   9.4896  -3.9551   H         1 RES1   0.0000
    89 C7A      9.1873   7.0436  -2.0321   C.ar      1 RES1   0.0000
    90 C7B      0.7557   2.8994  -2.0321   C.ar      1 RES1   0.0000
    91 C7C      2.8994   9.1873  -2.0321   C.ar      1 RES1   0.0000
    92 H7A     10.0862   6.9203  -1.8276   H         1 RES1   0.0000
    93 H7B     -0.1432   3.0227  -1.8276   H         1 RES1   0.0000
    94 H7C      3.0227  10.0862  -1.8276   H         1 RES1   0.0000
    95 C8A      6.8527   9.2868   1.8298   C.3       1 RES1   0.0000
    96 C8B      3.0903   0.6562   1.8298   C.3       1 RES1   0.0000
    97 C8C      0.6562   6.8527   1.8298   C.3       1 RES1   0.0000
    98 H8A      6.7414   9.7143   0.9663   H         1 RES1   0.0000
    99 H8B      3.2016   0.2287   0.9663   H         1 RES1   0.0000
   100 H8C      0.2287   6.7414   0.9663   H         1 RES1   0.0000
   101 H9A      6.1050   8.6802   1.9495   H         1 RES1   0.0000
   102 H9B      3.8380   1.2628   1.9495   H         1 RES1   0.0000
   103 H9C      1.2628   6.1050   1.9495   H         1 RES1   0.0000
   104 C9A      6.7652  10.3348   2.8734   C.ar      1 RES1   0.0000
   105 C9B      3.1778  -0.3918   2.8734   C.ar      1 RES1   0.0000
   106 C9C     -0.3918   6.7652   2.8734   C.ar      1 RES1   0.0000
   107 C10A     7.1808  11.6055   2.6413   C.ar      1 RES1   0.0000
   108 C10B     2.7622  -1.6625   2.6413   C.ar      1 RES1   0.0000
   109 C10C    -1.6625   7.1808   2.6413   C.ar      1 RES1   0.0000
   110 H10A     7.5249  11.8242   1.8064   H         1 RES1   0.0000
   111 H10B     2.4181  -1.8812   1.8064   H         1 RES1   0.0000
   112 H10C    -1.8812   7.5249   1.8064   H         1 RES1   0.0000
   113 C11A     7.1053  12.5779   3.6118   C.ar      1 RES1   0.0000
   114 C11B     2.8377  -2.6349   3.6118   C.ar      1 RES1   0.0000
   115 C11C    -2.6349   7.1053   3.6118   C.ar      1 RES1   0.0000
   116 H11A     7.3916  13.4469   3.4391   H         1 RES1   0.0000
   117 H11B     2.5514  -3.5039   3.4391   H         1 RES1   0.0000
   118 H11C    -3.5039   7.3916   3.4391   H         1 RES1   0.0000
   119 C12A     6.5803  12.2279   4.8779   C.ar      1 RES1   0.0000
   120 C12B     3.3627  -2.2849   4.8779   C.ar      1 RES1   0.0000
   121 C12C    -2.2849   6.5803   4.8779   C.ar      1 RES1   0.0000
   122 H12A     6.5365  12.8603   5.5581   H         1 RES1   0.0000
   123 H12B     3.4065  -2.9173   5.5581   H         1 RES1   0.0000
   124 H12C    -2.9173   6.5365   5.5581   H         1 RES1   0.0000
   125 C13A     6.1448  10.9691   5.0962   C.ar      1 RES1   0.0000
   126 C13B     3.7982  -1.0261   5.0962   C.ar      1 RES1   0.0000
   127 C13C    -1.0261   6.1448   5.0962   C.ar      1 RES1   0.0000
   128 H13A     5.7669  10.7504   5.9173   H         1 RES1   0.0000
   129 H13B     4.1761  -0.8074   5.9173   H         1 RES1   0.0000
   130 H13C    -0.8074   5.7669   5.9173   H         1 RES1   0.0000
   131 C14A     6.2502  10.0146   4.1289   C.ar      1 RES1   0.0000
   132 C14B     3.6928  -0.0716   4.1289   C.ar      1 RES1   0.0000
   133 C14C    -0.0716   6.2502   4.1289   C.ar      1 RES1   0.0000
   134 H14A     5.9777   9.1456   4.3079   H         1 RES1   0.0000
   135 H14B     3.9653   0.7974   4.3079   H         1 RES1   0.0000
   136 H14C     0.7974   5.9777   4.3079   H         1 RES1   0.0000
   137 C15A    10.2771   8.2467   3.1425   C.3       1 RES1   0.0000
   138 C15B    -0.3341   1.6963   3.1425   C.3       1 RES1   0.0000
   139 C15C     1.6963  10.2771   3.1425   C.3       1 RES1   0.0000
   140 H15A    10.3188   9.1476   3.4995   H         1 RES1   0.0000
   141 H15B    -0.3758   0.7954   3.4995   H         1 RES1   0.0000
   142 H15C     0.7954  10.3188   3.4995   H         1 RES1   0.0000
   143 H16A    10.1160   7.6402   3.8820   H         1 RES1   0.0000
   144 H16B    -0.1730   2.3028   3.8820   H         1 RES1   0.0000
   145 H16C     2.3028  10.1160   3.8820   H         1 RES1   0.0000
   146 C16A    11.5836   7.9087   2.5131   C.ar      1 RES1   0.0000
   147 C16B    -1.6406   2.0343   2.5131   C.ar      1 RES1   0.0000
   148 C16C     2.0343  11.5836   2.5131   C.ar      1 RES1   0.0000
   149 C17A    12.4506   8.8970   2.0628   C.ar      1 RES1   0.0000
   150 C17B    -2.5076   1.0460   2.0628   C.ar      1 RES1   0.0000
   151 C17C     1.0460  12.4506   2.0628   C.ar      1 RES1   0.0000
   152 H17A    12.2259   9.7939   2.1593   H         1 RES1   0.0000
   153 H17B    -2.2829   0.1491   2.1593   H         1 RES1   0.0000
   154 H17C     0.1491  12.2259   2.1593   H         1 RES1   0.0000
   155 C18A    13.6418   8.5490   1.4738   C.ar      1 RES1   0.0000
   156 C18B    -3.6988   1.3940   1.4738   C.ar      1 RES1   0.0000
   157 C18C     1.3940  13.6418   1.4738   C.ar      1 RES1   0.0000
   158 H18A    14.2006   9.2191   1.1517   H         1 RES1   0.0000
   159 H18B    -4.2576   0.7239   1.1517   H         1 RES1   0.0000
   160 H18C     0.7239  14.2006   1.1517   H         1 RES1   0.0000
   161 C19A    14.0236   7.2783   1.3519   C.ar      1 RES1   0.0000
   162 C19B    -4.0806   2.6647   1.3519   C.ar      1 RES1   0.0000
   163 C19C     2.6647  14.0236   1.3519   C.ar      1 RES1   0.0000
   164 H19A    14.8489   7.0754   0.9737   H         1 RES1   0.0000
   165 H19B    -4.9059   2.8676   0.9737   H         1 RES1   0.0000
   166 H19C     2.8676  14.8489   0.9737   H         1 RES1   0.0000
   167 C20A    13.2063   6.2760   1.7778   C.ar      1 RES1   0.0000
   168 C20B    -3.2633   3.6670   1.7778   C.ar      1 RES1   0.0000
   169 C20C     3.6670  13.2063   1.7778   C.ar      1 RES1   0.0000
   170 H20A    13.4569   5.3871   1.6708   H         1 RES1   0.0000
   171 H20B    -3.5139   4.5559   1.6708   H         1 RES1   0.0000
   172 H20C     4.5559  13.4569   1.6708   H         1 RES1   0.0000
   173 C21A    11.9972   6.5982   2.3743   C.ar      1 RES1   0.0000
   174 C21B    -2.0542   3.3448   2.3743   C.ar      1 RES1   0.0000
   175 C21C     3.3448  11.9972   2.3743   C.ar      1 RES1   0.0000
   176 H21A    11.4484   5.9161   2.6890   H         1 RES1   0.0000
   177 H21B    -1.5054   4.0269   2.6890   H         1 RES1   0.0000
   178 H21C     4.0269  11.4484   2.6890   H         1 RES1   0.0000
   179 C22A     6.5962   5.9738   3.5938   C.1       1 RES1   0.0000
   180 C22B     3.3468   3.9692   3.5938   C.1       1 RES1   0.0000
   181 C22C     3.9692   6.5962   3.5938   C.1       1 RES1   0.0000
   182 N1A      7.5288   6.6022   3.3565   N.1       1 RES1   0.0000
   183 N1B      2.4142   3.3408   3.3565   N.1       1 RES1   0.0000
   184 N1C      3.3408   7.5288   3.3565   N.1       1 RES1   0.0000
   185 N4A      9.6924   9.5731   0.3306   N.3       1 RES1   0.0000
   186 N4B      0.2506   0.3699   0.3306   N.1       1 RES1   0.0000
   187 N4C      0.3699   9.6924   0.3306   N.3       1 RES1   0.0000
   188 C24B    -0.2506  -0.3699  -0.3306   C.1       1 RES1   0.0000
   189 Sn1A     8.6511   8.1171   1.7641   Sn        1 RES1   0.0000
   190 Sn1B     1.2919   1.8259   1.7641   Sn        1 RES1   0.0000
   191 Sn1C     1.8259   8.6511   1.7641   Sn        1 RES1   0.0000
   192 Sn1D    11.7689  -1.2919  -1.7641   Sn        1 RES1   0.0000
   193 Sn1F    -1.2919  -1.8259  -1.7641   Sn        1 RES1   0.0000
@<TRIPOS>BOND
     1     1     2    1
     2     3     1    1
     3     4     1    1
     4     5     4   ar
     5     6     5    1
     6     7     5   ar
     7     8     7    1
     8     9     7   ar
     9    10     9    1
    10    11     9   ar
    11    12    11    1
    12    13     4   ar
    13    14    13    1
    14    15    16    1
    15    17    15    1
    16    18    15    1
    17    19    18   ar
    18    20    19    1
    19    21    19   ar
    20    22    21    1
    21    23    21   ar
    22    24    23    1
    23    25    23   ar
    24    26    25    1
    25    27    18   ar
    26    28    27    1
    27    29    30    1
    28    31    29    1
    29    32    29    1
    30    33    32   ar
    31    34    33    1
    32    35    33   ar
    33    36    35    1
    34    37    35   ar
    35    38    37    1
    36    39    37   ar
    37    40    39    1
    38    41    32   ar
    39    42    41    1
    40    43    45    3
    41    44    46    3
    42    45    52    1
    43    47    50    2
    44    48    49    3
    45    49   192   un
    46    51    43    1
    47    52     1    1
    48    53    56    1
    49    54    57    1
    50    55    58    1
    51    59    53    1
    52    60    54    1
    53    61    55    1
    54    62    53    1
    55    63    54    1
    56    64    55    1
    57    65    62   ar
    58    66    63   ar
    59    67    64   ar
    60    68    65    1
    61    69    66    1
    62    70    67    1
    63    71    65   ar
    64    72    66   ar
    65    73    67   ar
    66    74    71    1
    67    75    72    1
    68    76    73    1
    69    77    71   ar
    70    78    72   ar
    71    79    73   ar
    72    80    77    1
    73    81    78    1
    74    82    79    1
    75    83    77   ar
    76    84    78   ar
    77    85    79   ar
    78    86    83    1
    79    87    84    1
    80    88    85    1
    81    89    62   ar
    82    90    63   ar
    83    91    64   ar
    84    92    89    1
    85    93    90    1
    86    94    91    1
    87    95    98    1
    88    96    99    1
    89    97   100    1
    90   101    95    1
    91   102    96    1
    92   103    97    1
    93   104    95    1
    94   105    96    1
    95   106    97    1
    96   107   104   ar
    97   108   105   ar
    98   109   106   ar
    99   110   107    1
   100   111   108    1
   101   112   109    1
   102   113   107   ar
   103   114   108   ar
   104   115   109   ar
   105   116   113    1
   106   117   114    1
   107   118   115    1
   108   119   113   ar
   109   120   114   ar
   110   121   115   ar
   111   122   119    1
   112   123   120    1
   113   124   121    1
   114   125   119   ar
   115   126   120   ar
   116   127   121   ar
   117   128   125    1
   118   129   126    1
   119   130   127    1
   120   131   104   ar
   121   132   105   ar
   122   133   106   ar
   123   134   131    1
   124   135   132    1
   125   136   133    1
   126   137   140    1
   127   138   141    1
   128   139   142    1
   129   143   137    1
   130   144   138    1
   131   145   139    1
   132   146   137    1
   133   147   138    1
   134   148   139    1
   135   149   146   ar
   136   150   147   ar
   137   151   148   ar
   138   152   149    1
   139   153   150    1
   140   154   151    1
   141   155   149   ar
   142   156   150   ar
   143   157   151   ar
   144   158   155    1
   145   159   156    1
   146   160   157    1
   147   161   155   ar
   148   162   156   ar
   149   163   157   ar
   150   164   161    1
   151   165   162    1
   152   166   163    1
   153   167   161   ar
   154   168   162   ar
   155   169   163   ar
   156   170   167    1
   157   171   168    1
   158   172   169    1
   159   173   146   ar
   160   174   147   ar
   161   175   148   ar
   162   176   173    1
   163   177   174    1
   164   178   175    1
   165   179    51    1
   166   180    51    1
   167   181    51    1
   168   182   179    3
   169   183   180    3
   170   184   181    3
   171   185   189   un
   172   186   188    3
   173   187   191   un
   174   188   193   un
   175   189    53    1
   176   190    54    1
   177   191    55    1
   178    11    13   ar
   179    15    52    1
   180    25    27   ar
   181    29    52    1
   182    39    41   ar
   183    44    51    1
   184    47    51    1
   185    48    52    1
   186    83    89   ar
   187    84    90   ar
   188    85    91   ar
   189    95   189    1
   190    96   190    1
   191    97   191    1
   192   125   131   ar
   193   126   132   ar
   194   127   133   ar
   195   137   189    1
   196   138   190    1
   197   139   191    1
   198   167   173   ar
   199   168   174   ar
   200   169   175   ar
   201   182   189    1
   202   183   190    1
   203   184   191    1
   204   186   190    1
@<TRIPOS>SUBSTRUCTURE
     1 RES1        1 GROUP             0 ****  ****    0  
