@<TRIPOS>MOLECULE
WEYPUM
   160   168     4     0     0
SMALL
NO_CHARGES
****
Generated from the CSD

@<TRIPOS>ATOM
     1 C1      14.5087  12.4491  14.3640   C.1       1 RES1   0.0000
     2 C2      13.9990  12.5428  18.1335   C.1       1 RES1   0.0000
     3 C3      13.5860  14.2543  16.0647   C.1       1 RES1   0.0000
     4 C4      14.8910  10.6277  16.3478   C.1       1 RES1   0.0000
     5 C5      15.8993  13.0407  16.4524   C.1       1 RES1   0.0000
     6 C6      14.8116  10.4074  10.8666   C.3       1 RES1   0.0000
     7 H1      14.9041  10.1421   9.9368   H         1 RES1   0.0000
     8 H2      15.6058  10.1128  11.3392   H         1 RES1   0.0000
     9 C7      13.5981   9.7256  11.4589   C.ar      1 RES1   0.0000
    10 C8      12.4794   9.4907  10.6772   C.ar      1 RES1   0.0000
    11 H3      12.4968   9.7194   9.7756   H         1 RES1   0.0000
    12 C9      11.3260   8.9169  11.2150   C.ar      1 RES1   0.0000
    13 H4      10.5826   8.7696  10.6750   H         1 RES1   0.0000
    14 C10     11.2939   8.5717  12.5478   C.ar      1 RES1   0.0000
    15 H5      10.5301   8.1791  12.9027   H         1 RES1   0.0000
    16 C11     12.3915   8.8056  13.3666   C.ar      1 RES1   0.0000
    17 H6      12.3658   8.5851  14.2703   H         1 RES1   0.0000
    18 C12     13.5381   9.3829  12.8026   C.ar      1 RES1   0.0000
    19 H7      14.2781   9.5394  13.3426   H         1 RES1   0.0000
    20 C13     12.9644  13.7674  10.9472   C.3       1 RES1   0.0000
    21 H8      13.2561  14.6795  11.0975   H         1 RES1   0.0000
    22 H9      12.5806  13.7292  10.0587   H         1 RES1   0.0000
    23 C14     11.8831  13.4603  11.9315   C.ar      1 RES1   0.0000
    24 C15     11.0113  12.4088  11.6920   C.ar      1 RES1   0.0000
    25 H10     11.1079  11.9074  10.9145   H         1 RES1   0.0000
    26 C16     10.0027  12.0894  12.5826   C.ar      1 RES1   0.0000
    27 H11      9.4231  11.3863  12.3975   H         1 RES1   0.0000
    28 C17      9.8631  12.7784  13.6932   C.ar      1 RES1   0.0000
    29 H12      9.1940  12.5393  14.2921   H         1 RES1   0.0000
    30 C18     10.6724  13.8336  13.9872   C.ar      1 RES1   0.0000
    31 H13     10.5383  14.3256  14.7625   H         1 RES1   0.0000
    32 C19     11.7093  14.1672  13.1053   C.ar      1 RES1   0.0000
    33 H14     12.2825  14.8689  13.3122   H         1 RES1   0.0000
    34 C20     15.8101  15.8650   8.4690   C.3       1 RES1   0.0000
    35 H15     15.8212  15.7772   7.5043   H         1 RES1   0.0000
    36 H16     14.8943  15.7208   8.7543   H         1 RES1   0.0000
    37 C21     16.1473  17.2872   8.7848   C.ar      1 RES1   0.0000
    38 C22     15.6425  17.9206   9.9150   C.ar      1 RES1   0.0000
    39 H17     15.1213  17.4426  10.5182   H         1 RES1   0.0000
    40 C23     15.9072  19.2347  10.1502   C.ar      1 RES1   0.0000
    41 H18     15.5538  19.6478  10.9036   H         1 RES1   0.0000
    42 C24     16.6964  19.9623   9.2747   C.ar      1 RES1   0.0000
    43 H19     16.8764  20.8583   9.4446   H         1 RES1   0.0000
    44 C25     17.2109  19.3530   8.1598   C.ar      1 RES1   0.0000
    45 H20     17.7489  19.8357   7.5740   H         1 RES1   0.0000
    46 C26     16.9361  18.0422   7.9072   C.ar      1 RES1   0.0000
    47 H21     17.2793  17.6421   7.1406   H         1 RES1   0.0000
    48 C27     18.4805  13.0630   8.3340   C.3       1 RES1   0.0000
    49 H22     19.0116  13.6259   7.7482   H         1 RES1   0.0000
    50 H23     19.0671  12.7231   9.0265   H         1 RES1   0.0000
    51 C28     17.9501  11.9016   7.5369   C.ar      1 RES1   0.0000
    52 C29     17.8186  11.9501   6.1519   C.ar      1 RES1   0.0000
    53 H24     18.0461  12.7285   5.6990   H         1 RES1   0.0000
    54 C30     17.3600  10.8677   5.4464   C.ar      1 RES1   0.0000
    55 H25     17.2574  10.9241   4.5230   H         1 RES1   0.0000
    56 C31     17.0537   9.7037   6.0997   C.ar      1 RES1   0.0000
    57 H26     16.7578   8.9723   5.6053   H         1 RES1   0.0000
    58 C32     17.1671   9.5904   7.4368   C.ar      1 RES1   0.0000
    59 H27     16.9589   8.7926   7.8701   H         1 RES1   0.0000
    60 C33     17.6121  10.7148   8.1641   C.ar      1 RES1   0.0000
    61 H28     17.6796  10.6573   9.0896   H         1 RES1   0.0000
    62 C34     14.5685  12.6060   7.7896   C.3       1 RES1   0.0000
    63 H29     15.0674  12.8991   7.0230   H         1 RES1   0.0000
    64 H30     13.7162  13.0485   7.8048   H         1 RES1   0.0000
    65 H31     14.4352  11.6570   7.7395   H         1 RES1   0.0000
    66 C35     12.7734  11.0223  21.7441   C.3       1 RES1   0.0000
    67 H32     13.1680  10.3523  22.3256   H         1 RES1   0.0000
    68 H33     11.9943  11.3781  22.1993   H         1 RES1   0.0000
    69 C36     12.3141  10.3425  20.4876   C.ar      1 RES1   0.0000
    70 C37     13.1551   9.4343  19.8539   C.ar      1 RES1   0.0000
    71 H34     14.0008   9.2646  20.2023   H         1 RES1   0.0000
    72 C38     12.7332   8.7674  18.6845   C.ar      1 RES1   0.0000
    73 H35     13.2913   8.1528  18.2664   H         1 RES1   0.0000
    74 C39     11.5070   9.0374  18.1814   C.ar      1 RES1   0.0000
    75 H36     11.2346   8.6068  17.4018   H         1 RES1   0.0000
    76 C40     10.6371   9.9404  18.7934   C.ar      1 RES1   0.0000
    77 H37      9.7890  10.1001  18.4493   H         1 RES1   0.0000
    78 C41     11.0804  10.5924  19.9367   C.ar      1 RES1   0.0000
    79 H38     10.5244  11.2173  20.3417   H         1 RES1   0.0000
    80 C42     16.2621  12.2242  21.3696   C.3       1 RES1   0.0000
    81 H39     16.6555  12.7919  20.6901   H         1 RES1   0.0000
    82 H40     16.6836  12.4328  22.2189   H         1 RES1   0.0000
    83 C43     16.5089  10.7940  21.0298   C.ar      1 RES1   0.0000
    84 C44     16.4933   9.7938  22.0272   C.ar      1 RES1   0.0000
    85 H41     16.3485  10.0204  22.9179   H         1 RES1   0.0000
    86 C45     16.6955   8.4808  21.6657   C.ar      1 RES1   0.0000
    87 H42     16.6978   7.8239  22.3256   H         1 RES1   0.0000
    88 C46     16.8921   8.1237  20.3787   C.ar      1 RES1   0.0000
    89 H43     17.0088   7.2273  20.1610   H         1 RES1   0.0000
    90 C47     16.9176   9.0529  19.4162   C.ar      1 RES1   0.0000
    91 H44     17.0868   8.8064  18.5342   H         1 RES1   0.0000
    92 C48     16.6940  10.3759  19.7276   C.ar      1 RES1   0.0000
    93 H45     16.6680  11.0036  19.0438   H         1 RES1   0.0000
    94 C49     15.4502  16.2385  23.8499   C.3       1 RES1   0.0000
    95 H46     15.9067  16.4695  23.0246   H         1 RES1   0.0000
    96 H47     15.2780  17.0642  24.3290   H         1 RES1   0.0000
    97 C50     16.3378  15.4006  24.6600   C.ar      1 RES1   0.0000
    98 C51     16.1251  15.2694  26.0342   C.ar      1 RES1   0.0000
    99 H48     15.4330  15.7506  26.4261   H         1 RES1   0.0000
   100 C52     16.8919  14.4655  26.8203   C.ar      1 RES1   0.0000
   101 H49     16.7039  14.3889  27.7284   H         1 RES1   0.0000
   102 C53     17.9449  13.7680  26.2781   C.ar      1 RES1   0.0000
   103 H50     18.4797  13.2342  26.8203   H         1 RES1   0.0000
   104 C54     18.2054  13.8600  24.9279   C.ar      1 RES1   0.0000
   105 H51     18.8963  13.3657  24.5490   H         1 RES1   0.0000
   106 C55     17.4323  14.6899  24.1505   C.ar      1 RES1   0.0000
   107 H52     17.6453  14.7833  23.2511   H         1 RES1   0.0000
   108 C56     11.8859  15.1641  24.6513   C.3       1 RES1   0.0000
   109 H53     12.0855  14.5416  25.3678   H         1 RES1   0.0000
   110 H54     11.7025  16.0293  25.0520   H         1 RES1   0.0000
   111 C57     10.6792  14.6994  23.9283   C.ar      1 RES1   0.0000
   112 C58      9.6745  15.5647  23.6452   C.ar      1 RES1   0.0000
   113 H55      9.7567  16.4589  23.8891   H         1 RES1   0.0000
   114 C59      8.5061  15.1319  22.9810   C.ar      1 RES1   0.0000
   115 H56      7.8167  15.7274  22.7981   H         1 RES1   0.0000
   116 C60      8.4079  13.7875  22.6108   C.ar      1 RES1   0.0000
   117 H57      7.6542  13.4999  22.1535   H         1 RES1   0.0000
   118 C61      9.3860  12.9150  22.9005   C.ar      1 RES1   0.0000
   119 H58      9.3030  12.0212  22.6588   H         1 RES1   0.0000
   120 C62     10.5127  13.3569  23.5625   C.ar      1 RES1   0.0000
   121 H59     11.1814  12.7460  23.7715   H         1 RES1   0.0000
   122 C63     14.4477  12.4854  24.6818   C.3       1 RES1   0.0000
   123 H60     14.3558  13.0336  25.4658   H         1 RES1   0.0000
   124 H61     15.3472  12.1541  24.6274   H         1 RES1   0.0000
   125 H62     13.8375  11.7470  24.7341   H         1 RES1   0.0000
   126 N1      14.7388  12.5160  13.2490   N.1       1 RES1   0.0000
   127 N2      13.9471  12.7140  19.2594   N.1       1 RES1   0.0000
   128 N3      13.2956  15.3614  16.0038   N.1       1 RES1   0.0000
   129 N4      15.3775   9.5633  16.3348   N.1       1 RES1   0.0000
   130 N5      16.9567  13.4454  16.5721   N.1       1 RES1   0.0000
   131 N6      12.5714  11.7727  16.0147   N.2       1 RES1   0.0000
   132 O1      16.3647  13.5913  11.1062   O.2       1 RES1   0.0000
   133 O2      15.2847  12.9230   8.9699   O.3       1 RES1   0.0000
   134 O3      13.5580  14.5267  21.4741   O.2       1 RES1   0.0000
   135 O4      14.1567  13.2594  23.5276   O.3       1 RES1   0.0000
   136 O5      11.5536  11.2746  15.8731   O.2       1 RES1   0.0000
   137 Fe1     14.0888  12.3836  16.2187   Fe        1 RES1   0.0000
   138 Sn1     14.6776  12.5155  10.9781   Sn        1 RES1   0.0000
   139 Sn2     16.9569  14.2664   9.2480   Sn        1 RES1   0.0000
   140 Sn3     14.1843  12.6064  21.4978   Sn        1 RES1   0.0000
   141 Sn4     13.5955  15.3337  23.3693   Sn        1 RES1   0.0000
   142 O1A     18.2042  15.2662  10.6706   O.2       1 RES1   0.0000
   143 O3A     12.8795  16.8786  22.0795   O.2       1 RES1   0.0000
   144 Sn2A    17.6120  14.5911  12.5288   Sn        1 RES1   0.0000
   145 Sn4A    12.8420  16.0716  20.1843   Sn        1 RES1   0.0000
   146 C64      8.4724  10.4916   7.2691   C.3       2 RES2   0.0000
   147 H63      7.6079  10.0538   7.2822   H         2 RES2   0.0000
   148 H64      8.3952  11.2972   6.7334   H         2 RES2   0.0000
   149 Cl1      8.9354  10.9227   8.9067   Cl        2 RES2   0.0000
   150 Cl2      9.6577   9.4249   6.5505   Cl        2 RES2   0.0000
   151 C65      7.0086   9.4259  16.4197   C.3       3 RES3   0.0000
   152 H65      6.9919  10.1384  17.0795   H         3 RES3   0.0000
   153 H66      6.1740   9.4522  15.9254   H         3 RES3   0.0000
   154 Cl3      8.3903   9.6791  15.2895   Cl        3 RES3   0.0000
   155 Cl4      7.1568   7.9683  17.1841   Cl        3 RES3   0.0000
   156 C66      7.2888  13.7471  17.9811   C.3       4 RES4   0.0000
   157 H67      7.6576  14.6043  18.2468   H         4 RES4   0.0000
   158 H68      6.4820  13.9203  17.4715   H         4 RES4   0.0000
   159 Cl5      8.4019  12.9597  16.9859   Cl        4 RES4   0.0000
   160 Cl6      6.8818  12.8796  19.3596   Cl        4 RES4   0.0000
@<TRIPOS>BOND
     1     1   126    3
     2     2   127    3
     3     3   128    3
     4     4   129    3
     5     5   130    3
     6     6     7    1
     7     8     6    1
     8     9     6    1
     9    10     9   ar
    10    11    10    1
    11    12    10   ar
    12    13    12    1
    13    14    12   ar
    14    15    14    1
    15    16    14   ar
    16    17    16    1
    17    18     9   ar
    18    19    18    1
    19    20    21    1
    20    22    20    1
    21    23    20    1
    22    24    23   ar
    23    25    24    1
    24    26    24   ar
    25    27    26    1
    26    28    26   ar
    27    29    28    1
    28    30    28   ar
    29    31    30    1
    30    32    23   ar
    31    33    32    1
    32    34    35    1
    33    36    34    1
    34    37    34    1
    35    38    37   ar
    36    39    38    1
    37    40    38   ar
    38    41    40    1
    39    42    40   ar
    40    43    42    1
    41    44    42   ar
    42    45    44    1
    43    46    37   ar
    44    47    46    1
    45    48    49    1
    46    50    48    1
    47    51    48    1
    48    52    51   ar
    49    53    52    1
    50    54    52   ar
    51    55    54    1
    52    56    54   ar
    53    57    56    1
    54    58    56   ar
    55    59    58    1
    56    60    51   ar
    57    61    60    1
    58    62    63    1
    59    64    62    1
    60    65    62    1
    61    66    67    1
    62    68    66    1
    63    69    66    1
    64    70    69   ar
    65    71    70    1
    66    72    70   ar
    67    73    72    1
    68    74    72   ar
    69    75    74    1
    70    76    74   ar
    71    77    76    1
    72    78    69   ar
    73    79    78    1
    74    80    81    1
    75    82    80    1
    76    83    80    1
    77    84    83   ar
    78    85    84    1
    79    86    84   ar
    80    87    86    1
    81    88    86   ar
    82    89    88    1
    83    90    88   ar
    84    91    90    1
    85    92    83   ar
    86    93    92    1
    87    94    95    1
    88    96    94    1
    89    97    94    1
    90    98    97   ar
    91    99    98    1
    92   100    98   ar
    93   101   100    1
    94   102   100   ar
    95   103   102    1
    96   104   102   ar
    97   105   104    1
    98   106    97   ar
    99   107   106    1
   100   108   109    1
   101   110   108    1
   102   111   108    1
   103   112   111   ar
   104   113   112    1
   105   114   112   ar
   106   115   114    1
   107   116   114   ar
   108   117   116    1
   109   118   116   ar
   110   119   118    1
   111   120   111   ar
   112   121   120    1
   113   122   123    1
   114   124   122    1
   115   125   122    1
   116   126   138    1
   117   127   140    1
   118   131   136    2
   119   132   138    1
   120   133    62    1
   121   134   140    1
   122   135   122    1
   123   137     1    1
   124   138     6    1
   125   139    34    1
   126   140    66    1
   127   141    94    1
   128   142   139   un
   129   143   141   un
   130   144   132   un
   131   145   134   un
   132     2   137    1
   133     3   137    1
   134     4   137    1
   135     5   137    1
   136    16    18   ar
   137    20   138    1
   138    30    32   ar
   139    44    46   ar
   140    48   139    1
   141    58    60   ar
   142    76    78   ar
   143    80   140    1
   144    90    92   ar
   145   104   106   ar
   146   108   141    1
   147   118   120   ar
   148   131   137    1
   149   132   139    1
   150   133   138    1
   151   133   139    1
   152   134   141    1
   153   135   140    1
   154   135   141    1
   155   142   144   un
   156   143   145   un
   157   146   147    1
   158   148   146    1
   159   149   146    1
   160   150   146    1
   161   151   152    1
   162   153   151    1
   163   154   151    1
   164   155   151    1
   165   156   157    1
   166   158   156    1
   167   159   156    1
   168   160   156    1
@<TRIPOS>SUBSTRUCTURE
     1 RES1        1 GROUP             0 ****  ****    0  
     2 RES2      146 GROUP             0 ****  ****    0  
     3 RES3      151 GROUP             0 ****  ****    0  
     4 RES4      156 GROUP             0 ****  ****    0  
@<TRIPOS>CRYSIN
   12.6316   13.3725   22.3824   81.4830   78.4010   79.6490     2     1
