@<TRIPOS>MOLECULE
WEYPEW
   103   108     1     0     0
SMALL
NO_CHARGES
****
Generated from the CSD

@<TRIPOS>ATOM
     1 C1       5.3848   7.3673   4.5950   C.1       1 RES1   0.0000
     2 C2       4.9031   6.8890   2.0130   C.1       1 RES1   0.0000
     3 C3       2.7856   7.3453   5.1642   C.1       1 RES1   0.0000
     4 C4       2.2795   6.5840   2.5351   C.1       1 RES1   0.0000
     5 C5       4.0171   5.3422   3.9435   C.1       1 RES1   0.0000
     6 C6       7.5382   5.3708   7.3396   C.3       1 RES1   0.0000
     7 H1       7.4307   4.8925   6.5006   H         1 RES1   0.0000
     8 H2       8.3095   5.0000   7.7977   H         1 RES1   0.0000
     9 C7       6.3267   5.1689   8.1774   C.ar      1 RES1   0.0000
    10 C8       5.1497   4.7696   7.6460   C.ar      1 RES1   0.0000
    11 H3       5.0881   4.6182   6.7297   H         1 RES1   0.0000
    12 C9       4.0372   4.5809   8.4463   C.ar      1 RES1   0.0000
    13 H4       3.2329   4.3045   8.0685   H         1 RES1   0.0000
    14 C10      4.1160   4.8003   9.7851   C.ar      1 RES1   0.0000
    15 H5       3.3677   4.6884  10.3266   H         1 RES1   0.0000
    16 C11      5.2515   5.1689  10.2998   C.ar      1 RES1   0.0000
    17 H6       5.3117   5.3071  11.2161   H         1 RES1   0.0000
    18 C12      6.3411   5.3554   9.5322   C.ar      1 RES1   0.0000
    19 H7       7.1353   5.6187   9.9398   H         1 RES1   0.0000
    20 C13      9.3618   8.0430   5.5069   C.3       1 RES1   0.0000
    21 H8      10.2406   7.9179   5.8966   H         1 RES1   0.0000
    22 H9       9.2973   7.4660   4.7304   H         1 RES1   0.0000
    23 C14      9.2270   9.4471   5.0725   C.ar      1 RES1   0.0000
    24 C15      9.9467  10.4124   5.7211   C.ar      1 RES1   0.0000
    25 H10     10.5188  10.1579   6.4084   H         1 RES1   0.0000
    26 C16      9.8535  11.7639   5.3849   C.ar      1 RES1   0.0000
    27 H11     10.3869  12.4089   5.7895   H         1 RES1   0.0000
    28 C17      8.9389  12.0798   4.4388   C.ar      1 RES1   0.0000
    29 H12      8.7984  12.9815   4.2603   H         1 RES1   0.0000
    30 C18      8.2063  11.1715   3.7308   C.ar      1 RES1   0.0000
    31 H13      7.6271  11.4260   3.0495   H         1 RES1   0.0000
    32 C19      8.3840   9.8267   4.0908   C.ar      1 RES1   0.0000
    33 H14      7.9009   9.1729   3.6385   H         1 RES1   0.0000
    34 C20      6.6006   8.7494   8.0387   C.3       1 RES1   0.0000
    35 H15      5.7389   8.3106   8.1280   H         1 RES1   0.0000
    36 H16      6.9690   8.8416   8.9313   H         1 RES1   0.0000
    37 C21      6.3640  10.1141   7.4973   C.ar      1 RES1   0.0000
    38 C22      7.1941  11.1474   7.9167   C.ar      1 RES1   0.0000
    39 H17      7.9066  10.9697   8.4880   H         1 RES1   0.0000
    40 C23      6.9576  12.4462   7.4824   C.ar      1 RES1   0.0000
    41 H18      7.5124  13.1373   7.7650   H         1 RES1   0.0000
    42 C24      5.8923  12.7117   6.6315   C.ar      1 RES1   0.0000
    43 H19      5.7346  13.5805   6.3399   H         1 RES1   0.0000
    44 C25      5.0623  11.6783   6.2120   C.ar      1 RES1   0.0000
    45 H20      4.3497  11.8561   5.6438   H         1 RES1   0.0000
    46 C26      5.2988  10.3795   6.6464   C.ar      1 RES1   0.0000
    47 H21      4.7440   9.6862   6.3667   H         1 RES1   0.0000
    48 C27      5.7475   4.1663  -0.4611   C.3       1 RES1   0.0000
    49 H22      5.5655   3.9118   0.4552   H         1 RES1   0.0000
    50 H23      4.9132   4.4778  -0.8479   H         1 RES1   0.0000
    51 C28      6.1848   2.9465  -1.2079   C.ar      1 RES1   0.0000
    52 C29      7.1382   2.1237  -0.7170   C.ar      1 RES1   0.0000
    53 H24      7.5210   2.2992   0.1131   H         1 RES1   0.0000
    54 C30      7.5382   1.0312  -1.4429   C.ar      1 RES1   0.0000
    55 H25      8.2192   0.5002  -1.0948   H         1 RES1   0.0000
    56 C31      7.0350   0.7021  -2.5616   C.ar      1 RES1   0.0000
    57 H26      7.3289  -0.0658  -2.9930   H         1 RES1   0.0000
    58 C32      6.0716   1.4634  -3.1239   C.ar      1 RES1   0.0000
    59 H27      5.7117   1.2462  -3.9539   H         1 RES1   0.0000
    60 C33      5.6242   2.6086  -2.4128   C.ar      1 RES1   0.0000
    61 H28      4.9447   3.1351  -2.7698   H         1 RES1   0.0000
    62 C34      8.6679   5.9017   1.0383   C.3       1 RES1   0.0000
    63 H29      9.5109   6.1057   0.6039   H         1 RES1   0.0000
    64 H30      8.4672   6.6301   1.6452   H         1 RES1   0.0000
    65 C35      8.8270   4.6533   1.8267   C.ar      1 RES1   0.0000
    66 C36      7.9912   4.3637   2.8531   C.ar      1 RES1   0.0000
    67 H31      7.3274   4.9759   3.0792   H         1 RES1   0.0000
    68 C37      8.0887   3.2032   3.5701   C.ar      1 RES1   0.0000
    69 H32      7.4880   3.0276   4.2574   H         1 RES1   0.0000
    70 C38      9.0536   2.3124   3.2756   C.ar      1 RES1   0.0000
    71 H33      9.1209   1.5204   3.7605   H         1 RES1   0.0000
    72 C39      9.9424   2.5779   2.2522   C.ar      1 RES1   0.0000
    73 H34     10.6220   1.9745   2.0528   H         1 RES1   0.0000
    74 C40      9.8163   3.7494   1.5262   C.ar      1 RES1   0.0000
    75 H35     10.4069   3.9250   0.8301   H         1 RES1   0.0000
    76 C41      7.0436   7.5976  -1.6274   C.3       1 RES1   0.0000
    77 H36      7.0909   7.3804  -2.5705   H         1 RES1   0.0000
    78 H37      6.2106   8.0649  -1.4608   H         1 RES1   0.0000
    79 C42      8.2091   8.4620  -1.2376   C.ar      1 RES1   0.0000
    80 C43      9.4005   8.3765  -1.8922   C.ar      1 RES1   0.0000
    81 H38      9.4708   7.8192  -2.6330   H         1 RES1   0.0000
    82 C44     10.5245   9.1114  -1.4786   C.ar      1 RES1   0.0000
    83 H39     11.3316   9.0697  -1.9398   H         1 RES1   0.0000
    84 C45     10.3711   9.8837  -0.3719   C.ar      1 RES1   0.0000
    85 H40     11.1137  10.3444  -0.0565   H         1 RES1   0.0000
    86 C46      9.2285  10.0219   0.2856   C.ar      1 RES1   0.0000
    87 H41      9.1611  10.5901   1.0205   H         1 RES1   0.0000
    88 C47      8.1475   9.2935  -0.1577   C.ar      1 RES1   0.0000
    89 H42      7.3403   9.3725   0.2975   H         1 RES1   0.0000
    90 N1       6.3167   7.4002   5.2421   N.1       1 RES1   0.0000
    91 N2       5.5827   6.7178   1.1100   N.1       1 RES1   0.0000
    92 N3       2.2293   7.4616   6.1466   N.1       1 RES1   0.0000
    93 N4       1.4136   6.1562   1.9270   N.1       1 RES1   0.0000
    94 N5       4.1605   4.2562   4.2068   N.1       1 RES1   0.0000
    95 N6       3.6343   8.8174   3.2095   N.2       1 RES1   0.0000
    96 O1       3.5354   9.9144   3.0197   O.2       1 RES1   0.0000
    97 Fe1      3.8011   7.2172   3.5347   Fe        1 RES1   0.0000
    98 Sn1      7.8823   7.4497   6.9325   Sn        1 RES1   0.0000
    99 Sn2      7.1326   5.8008  -0.4463   Sn        1 RES1   0.0000
   100 N3E      9.3976   7.4616   8.7289   N.3       1 RES1   0.0000
   101 N4B      8.5819   4.8135  -1.9270   N.3       1 RES1   0.0000
   102 Sn1E     0.7140   7.4497   7.9430   Sn        1 RES1   0.0000
   103 Sn2B    -0.0357   5.1689   0.4463   Sn        1 RES1   0.0000
@<TRIPOS>BOND
     1     1    90    3
     2     2    91    3
     3     3    92    3
     4     4    93    3
     5     5    94    3
     6     6     7    1
     7     8     6    1
     8     9     6    1
     9    10     9   ar
    10    11    10    1
    11    12    10   ar
    12    13    12    1
    13    14    12   ar
    14    15    14    1
    15    16    14   ar
    16    17    16    1
    17    18     9   ar
    18    19    18    1
    19    20    21    1
    20    22    20    1
    21    23    20    1
    22    24    23   ar
    23    25    24    1
    24    26    24   ar
    25    27    26    1
    26    28    26   ar
    27    29    28    1
    28    30    28   ar
    29    31    30    1
    30    32    23   ar
    31    33    32    1
    32    34    35    1
    33    36    34    1
    34    37    34    1
    35    38    37   ar
    36    39    38    1
    37    40    38   ar
    38    41    40    1
    39    42    40   ar
    40    43    42    1
    41    44    42   ar
    42    45    44    1
    43    46    37   ar
    44    47    46    1
    45    48    49    1
    46    50    48    1
    47    51    48    1
    48    52    51   ar
    49    53    52    1
    50    54    52   ar
    51    55    54    1
    52    56    54   ar
    53    57    56    1
    54    58    56   ar
    55    59    58    1
    56    60    51   ar
    57    61    60    1
    58    62    63    1
    59    64    62    1
    60    65    62    1
    61    66    65   ar
    62    67    66    1
    63    68    66   ar
    64    69    68    1
    65    70    68   ar
    66    71    70    1
    67    72    70   ar
    68    73    72    1
    69    74    65   ar
    70    75    74    1
    71    76    77    1
    72    78    76    1
    73    79    76    1
    74    80    79   ar
    75    81    80    1
    76    82    80   ar
    77    83    82    1
    78    84    82   ar
    79    85    84    1
    80    86    84   ar
    81    87    86    1
    82    88    79   ar
    83    89    88    1
    84    90    98    1
    85    91    99    1
    86    92   102   un
    87    93   103   un
    88    95    96    2
    89    97     1    1
    90    98     6    1
    91    99    48    1
    92   100    98   un
    93   101    99   un
    94     2    97    1
    95     3    97    1
    96     4    97    1
    97     5    97    1
    98    16    18   ar
    99    20    98    1
   100    30    32   ar
   101    34    98    1
   102    44    46   ar
   103    58    60   ar
   104    62    99    1
   105    72    74   ar
   106    76    99    1
   107    86    88   ar
   108    95    97    1
@<TRIPOS>SUBSTRUCTURE
     1 RES1        1 GROUP             0 ****  ****    0  
@<TRIPOS>CRYSIN
   14.3366   21.9394   29.7510   90.0000   90.0000   90.0000    61     1
