@<TRIPOS>MOLECULE
WEZVIH
   112   122     2     0     0
SMALL
USER_CHARGES
****
Generated from the CSD

@<TRIPOS>ATOM
     1 Fe1     13.1213   1.4168  11.1598   Fe        1 RES1   1.0000
     2 O1      11.5578   0.3974  10.5638   O.3       1 RES1   0.0000
     3 N1      10.4786  -0.2410  12.5383   N.2       1 RES1   0.0000
     4 N2      12.6672   0.6268  13.0835   N.ar      1 RES1   0.0000
     5 N3      14.8287   2.2368  12.3454   N.3       1 RES1   0.0000
     6 N4      12.3951   3.4936  11.5723   N.3       1 RES1   0.0000
     7 N5      13.2137   2.4686   9.2002   N.ar      1 RES1   0.0000
     8 N6      14.8286   0.2560  10.5331   N.ar      1 RES1   0.0000
     9 C1      10.5967  -0.1247  11.2464   C.2       1 RES1   0.0000
    10 C2       9.4457  -0.6522  10.3899   C.3       1 RES1   0.0000
    11 C3       8.8709   0.5379   9.6095   C.3       1 RES1   0.0000
    12 C4      10.0014  -1.6600   9.3873   C.3       1 RES1   0.0000
    13 C5       8.3596  -1.3092  11.2186   C.3       1 RES1   0.0000
    14 C6      11.4402   0.1814  13.4328   C.ar      1 RES1   0.0000
    15 C7      11.0771   0.1158  14.7978   C.ar      1 RES1   0.0000
    16 C8      11.9565   0.5298  15.7507   C.ar      1 RES1   0.0000
    17 C9      13.2269   0.9688  15.3766   C.ar      1 RES1   0.0000
    18 C10     13.5512   0.9843  14.0452   C.ar      1 RES1   0.0000
    19 C11     14.9125   1.3568  13.5380   C.3       1 RES1   0.0000
    20 C12     14.5531   3.6381  12.7415   C.3       1 RES1   0.0000
    21 C13     13.6244   4.2968  11.7491   C.3       1 RES1   0.0000
    22 C14     11.6760   3.9257  10.3665   C.3       1 RES1   0.0000
    23 C15     12.4060   3.5359   9.1125   C.ar      1 RES1   0.0000
    24 C16     12.2264   4.2358   7.9463   C.ar      1 RES1   0.0000
    25 C17     12.8665   3.8186   6.7990   C.ar      1 RES1   0.0000
    26 C18     13.6911   2.7300   6.8720   C.ar      1 RES1   0.0000
    27 C19     13.8426   2.0844   8.0822   C.ar      1 RES1   0.0000
    28 C20     16.0352   2.1214  11.5124   C.3       1 RES1   0.0000
    29 C21     16.0238   0.8371  10.7188   C.ar      1 RES1   0.0000
    30 C22     17.1753   0.3107  10.1707   C.ar      1 RES1   0.0000
    31 C23     17.0943  -0.8469   9.4399   C.ar      1 RES1   0.0000
    32 C24     15.8737  -1.4713   9.2689   C.ar      1 RES1   0.0000
    33 C25     14.7704  -0.8840   9.8185   C.ar      1 RES1   0.0000
    34 C26     11.4879   3.6348  12.7327   C.3       1 RES1   0.0000
    35 H1       8.5092   1.1703  10.2189   H         1 RES1   0.0000
    36 H2       9.5622   0.9469   9.1023   H         1 RES1   0.0000
    37 H3       8.1870   0.2334   9.0263   H         1 RES1   0.0000
    38 H4      10.7268  -1.2707   8.9152   H         1 RES1   0.0000
    39 H5      10.3026  -2.4341   9.8506   H         1 RES1   0.0000
    40 H6       9.3194  -1.9048   8.7735   H         1 RES1   0.0000
    41 H7       8.7368  -2.0123  11.7345   H         1 RES1   0.0000
    42 H8       7.9686  -0.6659  11.7974   H         1 RES1   0.0000
    43 H9       7.6925  -1.6627  10.6428   H         1 RES1   0.0000
    44 H10     10.2231  -0.2172  15.0492   H         1 RES1   0.0000
    45 H11     11.7054   0.5199  16.6671   H         1 RES1   0.0000
    46 H12     13.8533   1.2496  16.0328   H         1 RES1   0.0000
    47 H13     15.3836   1.8118  14.2249   H         1 RES1   0.0000
    48 H14     15.3813   0.5643  13.3042   H         1 RES1   0.0000
    49 H15     15.3717   4.1206  12.7736   H         1 RES1   0.0000
    50 H16     14.1475   3.6451  13.6009   H         1 RES1   0.0000
    51 H17     14.0681   4.3779  10.9117   H         1 RES1   0.0000
    52 H18     13.3904   5.1615  12.0663   H         1 RES1   0.0000
    53 H19     11.5831   4.8705  10.3870   H         1 RES1   0.0000
    54 H20     10.8162   3.5226  10.3607   H         1 RES1   0.0000
    55 H21     11.6651   5.0029   7.9287   H         1 RES1   0.0000
    56 H22     12.7367   4.2756   5.9761   H         1 RES1   0.0000
    57 H23     14.1542   2.4220   6.1018   H         1 RES1   0.0000
    58 H24     14.4197   1.3309   8.1246   H         1 RES1   0.0000
    59 H25     16.0700   2.8571  10.9117   H         1 RES1   0.0000
    60 H26     16.8022   2.1344  12.0721   H         1 RES1   0.0000
    61 H27     18.0114   0.7430  10.2993   H         1 RES1   0.0000
    62 H28     17.8766  -1.2189   9.0512   H         1 RES1   0.0000
    63 H29     15.8043  -2.2854   8.7837   H         1 RES1   0.0000
    64 H30     13.9247  -1.2968   9.6898   H         1 RES1   0.0000
    65 H31     11.1242   4.5117  12.7444   H         1 RES1   0.0000
    66 H32     11.9721   3.4797  13.5336   H         1 RES1   0.0000
    67 H33     10.7836   3.0016  12.6611   H         1 RES1   0.0000
    68 C27     19.7603   4.5887  12.5559   C.ar      2 RES2   0.0000
    69 C28     20.3312   4.9820  13.7821   C.ar      2 RES2   0.0000
    70 C29     20.7451   4.0743  14.7525   C.ar      2 RES2   0.0000
    71 C30     20.5627   2.7174  14.5552   C.ar      2 RES2   0.0000
    72 C31     19.9725   2.2850  13.3933   C.ar      2 RES2   0.0000
    73 C32     19.5904   3.2076  12.4156   C.ar      2 RES2   0.0000
    74 C33     18.4794   4.9704  10.2028   C.ar      2 RES2   0.0000
    75 C34     17.1442   5.2730   9.8886   C.ar      2 RES2   0.0000
    76 C35     16.4652   4.6836   8.8144   C.ar      2 RES2   0.0000
    77 C36     17.0940   3.7422   8.0383   C.ar      2 RES2   0.0000
    78 C37     18.3956   3.3896   8.3233   C.ar      2 RES2   0.0000
    79 C38     19.0644   3.9935   9.3727   C.ar      2 RES2   0.0000
    80 C39     20.6929   6.4326  10.7845   C.ar      2 RES2   0.0000
    81 C40     21.0044   6.4736   9.4239   C.ar      2 RES2   0.0000
    82 C41     22.1236   7.1433   8.9196   C.ar      2 RES2   0.0000
    83 C42     23.0080   7.7770   9.7717   C.ar      2 RES2   0.0000
    84 C43     22.7292   7.7570  11.1236   C.ar      2 RES2   0.0000
    85 C44     21.5973   7.1123  11.6132   C.ar      2 RES2   0.0000
    86 C45     18.3522   6.8393  12.0707   C.ar      2 RES2   0.0000
    87 C46     18.2566   8.1430  11.5577   C.ar      2 RES2   0.0000
    88 C47     17.2790   9.0353  11.9742   C.ar      2 RES2   0.0000
    89 C48     16.3450   8.6650  12.9169   C.ar      2 RES2   0.0000
    90 C49     16.4209   7.3937  13.4722   C.ar      2 RES2   0.0000
    91 C50     17.4009   6.5121  13.0601   C.ar      2 RES2   0.0000
    92 B1      19.3243   5.7022  11.4057   B         2 RES2  -1.0000
    93 H34     20.4383   5.9097  13.9545   H         2 RES2   0.0000
    94 H35     21.1554   4.3872  15.5505   H         2 RES2   0.0000
    95 H36     20.8399   2.0926  15.2158   H         2 RES2   0.0000
    96 H37     19.8246   1.3572  13.2530   H         2 RES2   0.0000
    97 H38     19.1961   2.8801  11.6161   H         2 RES2   0.0000
    98 H39     16.6825   5.9046  10.4279   H         2 RES2   0.0000
    99 H40     15.5691   4.9349   8.6244   H         2 RES2   0.0000
   100 H41     16.6357   3.3388   7.3105   H         2 RES2   0.0000
   101 H42     18.8337   2.7294   7.7986   H         2 RES2   0.0000
   102 H43     19.9627   3.7357   9.5422   H         2 RES2   0.0000
   103 H44     20.4299   6.0277   8.8144   H         2 RES2   0.0000
   104 H45     22.2782   7.1625   7.9828   H         2 RES2   0.0000
   105 H46     23.7827   8.2132   9.4370   H         2 RES2   0.0000
   106 H47     23.3196   8.1897  11.7287   H         2 RES2   0.0000
   107 H48     21.4297   7.1333  12.5486   H         2 RES2   0.0000
   108 H49     18.8836   8.4251  10.9014   H         2 RES2   0.0000
   109 H50     17.2537   9.9115  11.6074   H         2 RES2   0.0000
   110 H51     15.6596   9.2674  13.1799   H         2 RES2   0.0000
   111 H52     15.7964   7.1294  14.1387   H         2 RES2   0.0000
   112 H53     17.4362   5.6505  13.4576   H         2 RES2   0.0000
@<TRIPOS>BOND
     1     1     2    1
     2     2     9    1
     3     3     9    2
     4     4     1    1
     5     5     1    1
     6     6     1    1
     7     7     1    1
     8     8     1    1
     9     9    10    1
    10    10    11    1
    11    11    35    1
    12    12    10    1
    13    13    10    1
    14    14     3    1
    15    15    14   ar
    16    16    15   ar
    17    17    16   ar
    18    18     4   ar
    19    19     5    1
    20    20     5    1
    21    21     6    1
    22    22     6    1
    23    23     7   ar
    24    24    23   ar
    25    25    24   ar
    26    26    25   ar
    27    27     7   ar
    28    28     5    1
    29    29     8   ar
    30    30    29   ar
    31    31    30   ar
    32    32    31   ar
    33    33     8   ar
    34    34     6    1
    35    36    11    1
    36    37    11    1
    37    38    12    1
    38    39    12    1
    39    40    12    1
    40    41    13    1
    41    42    13    1
    42    43    13    1
    43    44    15    1
    44    45    16    1
    45    46    17    1
    46    47    19    1
    47    48    19    1
    48    49    20    1
    49    50    20    1
    50    51    21    1
    51    52    21    1
    52    53    22    1
    53    54    22    1
    54    55    24    1
    55    56    25    1
    56    57    26    1
    57    58    27    1
    58    59    28    1
    59    60    28    1
    60    61    30    1
    61    62    31    1
    62    63    32    1
    63    64    33    1
    64    65    34    1
    65    66    34    1
    66    67    34    1
    67     4    14   ar
    68    17    18   ar
    69    18    19    1
    70    20    21    1
    71    22    23    1
    72    26    27   ar
    73    28    29    1
    74    32    33   ar
    75    68    69   ar
    76    69    70   ar
    77    70    71   ar
    78    71    72   ar
    79    72    73   ar
    80    73    68   ar
    81    74    75   ar
    82    75    76   ar
    83    76    77   ar
    84    77    78   ar
    85    78    79   ar
    86    79    74   ar
    87    80    81   ar
    88    81    82   ar
    89    82    83   ar
    90    83    84   ar
    91    84    85   ar
    92    85    80   ar
    93    86    87   ar
    94    87    88   ar
    95    88    89   ar
    96    89    90   ar
    97    90    91   ar
    98    91    86   ar
    99    92    68    1
   100    93    69    1
   101    94    70    1
   102    95    71    1
   103    96    72    1
   104    97    73    1
   105    98    75    1
   106    99    76    1
   107   100    77    1
   108   101    78    1
   109   102    79    1
   110   103    81    1
   111   104    82    1
   112   105    83    1
   113   106    84    1
   114   107    85    1
   115   108    87    1
   116   109    88    1
   117   110    89    1
   118   111    90    1
   119   112    91    1
   120    74    92    1
   121    80    92    1
   122    86    92    1
@<TRIPOS>SUBSTRUCTURE
     1 RES1        1 GROUP             0 ****  ****    0  
     2 RES2       68 GROUP             0 ****  ****    0  
@<TRIPOS>CRYSIN
   12.0140   13.0010   14.8430   88.7200   80.2100   69.6000     2     1
