@<TRIPOS>MOLECULE
WIFZUG
   107   114     1     0     0
SMALL
NO_CHARGES
****
Generated from the CSD

@<TRIPOS>ATOM
     1 Fe1      3.6805   2.0274   2.4605   Fe        1 RES1   0.0000
     2 N1       5.5943   2.2675   3.3148   N.2       1 RES1   0.0000
     3 C1       6.5992   2.5462   3.8029   C.1       1 RES1   0.0000
     4 S1       8.0266   2.9202   4.4633   S.2       1 RES1   0.0000
     5 N2       1.7986   1.8150   1.5491   N.2       1 RES1   0.0000
     6 C2       0.8673   1.5533   0.9862   C.1       1 RES1   0.0000
     7 S2      -0.5057   1.2685   0.2529   S.2       1 RES1   0.0000
     8 N3       3.6709   4.1364   1.7637   N.ar      1 RES1   0.0000
     9 C3       2.6083   4.9276   1.8582   C.ar      1 RES1   0.0000
    10 C4       2.5667   6.2392   1.3848   C.ar      1 RES1   0.0000
    11 C5       3.6933   6.7780   0.7696   C.ar      1 RES1   0.0000
    12 C6       4.7974   5.9529   0.6732   C.ar      1 RES1   0.0000
    13 C7       4.7334   4.6690   1.1594   C.ar      1 RES1   0.0000
    14 C8       3.7701   8.1511   0.2461   C.2       1 RES1   0.0000
    15 C9       2.8132   9.0286   0.2746   C.2       1 RES1   0.0000
    16 C10      2.8836  10.4079  -0.3100   C.ar      1 RES1   0.0000
    17 C11      1.7314  11.1468  -0.4783   C.ar      1 RES1   0.0000
    18 C12      1.7762  12.3906  -1.0629   C.ar      1 RES1   0.0000
    19 C13      2.9860  12.9340  -1.4350   C.ar      1 RES1   0.0000
    20 C14      4.1221  12.2475  -1.2312   C.ar      1 RES1   0.0000
    21 C15      4.0933  10.9805  -0.6761   C.ar      1 RES1   0.0000
    22 N4       3.5460  -0.1093   3.0284   N.ar      1 RES1   0.0000
    23 C16      3.9429  -0.5188   4.2449   C.ar      1 RES1   0.0000
    24 C17      4.1221  -1.8534   4.5755   C.ar      1 RES1   0.0000
    25 C18      3.8757  -2.8248   3.6100   C.ar      1 RES1   0.0000
    26 C19      3.3636  -2.3968   2.3985   C.ar      1 RES1   0.0000
    27 C20      3.2324  -1.0730   2.1564   C.ar      1 RES1   0.0000
    28 C21      4.1413  -4.2718   3.8374   C.2       1 RES1   0.0000
    29 C22      4.7174  -4.8122   4.7468   C.2       1 RES1   0.0000
    30 C23      5.1174  -6.2376   4.9633   C.ar      1 RES1   0.0000
    31 C24      5.5399  -6.5902   6.1778   C.ar      1 RES1   0.0000
    32 C25      5.8823  -7.8309   6.4888   C.ar      1 RES1   0.0000
    33 C26      5.8663  -8.8300   5.5440   C.ar      1 RES1   0.0000
    34 C27      5.5047  -8.5098   4.2429   C.ar      1 RES1   0.0000
    35 C28      5.1174  -7.1844   3.9585   C.ar      1 RES1   0.0000
    36 N5       2.8228   2.6431   4.3885   N.ar      1 RES1   0.0000
    37 C29      1.7634   2.0289   4.9180   C.ar      1 RES1   0.0000
    38 C30      1.1169   2.4138   6.0548   C.ar      1 RES1   0.0000
    39 C31      1.5458   3.5483   6.7044   C.ar      1 RES1   0.0000
    40 C32      2.6787   4.1764   6.2251   C.ar      1 RES1   0.0000
    41 C33      3.2964   3.6992   5.0854   C.ar      1 RES1   0.0000
    42 C34      0.7489   4.0948   7.8037   C.2       1 RES1   0.0000
    43 C35      0.6561   5.3617   8.1620   C.2       1 RES1   0.0000
    44 C36     -0.2240   5.9529   9.1393   C.ar      1 RES1   0.0000
    45 C37     -0.8801   5.2232  10.1215   C.ar      1 RES1   0.0000
    46 C38     -1.7474   5.8636  10.9945   C.ar      1 RES1   0.0000
    47 C39     -1.9522   7.2413  10.8685   C.ar      1 RES1   0.0000
    48 C40     -1.2994   7.9371   9.9060   C.ar      1 RES1   0.0000
    49 C41     -0.4417   7.3075   9.0665   C.ar      1 RES1   0.0000
    50 N6       4.7366   1.4024   0.5945   N.ar      1 RES1   0.0000
    51 C42      4.3365   1.7518  -0.6141   C.ar      1 RES1   0.0000
    52 C43      4.9158   1.3285  -1.7824   C.ar      1 RES1   0.0000
    53 C44      5.9591   0.4079  -1.7401   C.ar      1 RES1   0.0000
    54 C45      6.4040   0.0400  -0.4921   C.ar      1 RES1   0.0000
    55 C46      5.7799   0.5449   0.6328   C.ar      1 RES1   0.0000
    56 C47      6.5160  -0.1416  -2.9654   C.2       1 RES1   0.0000
    57 C48      7.1177  -1.3578  -3.0461   C.2       1 RES1   0.0000
    58 C49      7.4953  -2.0489  -4.2872   C.ar      1 RES1   0.0000
    59 C50      7.4537  -1.4532  -5.5607   C.ar      1 RES1   0.0000
    60 C51      7.7002  -2.1875  -6.7142   C.ar      1 RES1   0.0000
    61 C52      8.0330  -3.5591  -6.5439   C.ar      1 RES1   0.0000
    62 C53      8.0970  -4.1194  -5.3373   C.ar      1 RES1   0.0000
    63 C54      7.8250  -3.3651  -4.1947   C.ar      1 RES1   0.0000
    64 H1       1.7282   4.5258   2.3326   H         1 RES1   0.0000
    65 H2       1.6642   6.8349   1.4960   H         1 RES1   0.0000
    66 H3       5.6967   6.3115   0.2165   H         1 RES1   0.0000
    67 H4       5.6007   4.0486   1.0433   H         1 RES1   0.0000
    68 H5       4.7046   8.4513   0.1968   H         1 RES1   0.0000
    69 H6       1.8882   8.7438   0.7578   H         1 RES1   0.0000
    70 H7       0.8001  10.7450  -0.1476   H         1 RES1   0.0000
    71 H8       0.8641  12.9464  -1.2303   H         1 RES1   0.0000
    72 H9       3.0084  13.9162  -1.8897   H         1 RES1   0.0000
    73 H10      5.0566  12.6847  -1.5058   H         1 RES1   0.0000
    74 H11      5.0246  10.4371  -0.5315   H         1 RES1   0.0000
    75 H12      4.1285   0.2309   4.9997   H         1 RES1   0.0000
    76 H13      4.4486  -2.1398   5.5706   H         1 RES1   0.0000
    77 H14      3.0724  -3.1250   1.6535   H         1 RES1   0.0000
    78 H15      2.8484  -0.7697   1.1909   H         1 RES1   0.0000
    79 H16      3.7445  -4.9415   3.0805   H         1 RES1   0.0000
    80 H17      4.9926  -4.1410   5.5509   H         1 RES1   0.0000
    81 H18      5.6007  -5.8343   6.9386   H         1 RES1   0.0000
    82 H19      6.1768  -8.0665   7.4996   H         1 RES1   0.0000
    83 H20      6.1448  -9.8368   5.8068   H         1 RES1   0.0000
    84 H21      5.5367  -9.2672   3.4644   H         1 RES1   0.0000
    85 H22      4.8326  -6.9119   2.9526   H         1 RES1   0.0000
    86 H23      1.3762   1.1546   4.3994   H         1 RES1   0.0000
    87 H24      0.2880   1.8319   6.4367   H         1 RES1   0.0000
    88 H25      3.0724   5.0338   6.7418   H         1 RES1   0.0000
    89 H26      4.1925   4.1872   4.7438   H         1 RES1   0.0000
    90 H27      0.1600   3.3867   8.3854   H         1 RES1   0.0000
    91 H28      1.3122   6.0498   7.6571   H         1 RES1   0.0000
    92 H29     -0.7041   4.1564  10.2062   H         1 RES1   0.0000
    93 H30     -2.2723   5.2955  11.7612   H         1 RES1   0.0000
    94 H31     -2.6243   7.7432  11.5348   H         1 RES1   0.0000
    95 H32     -1.4722   9.0055   9.8125   H         1 RES1   0.0000
    96 H33      0.0960   7.8817   8.3165   H         1 RES1   0.0000
    97 H34      3.4884   2.4169  -0.6889   H         1 RES1   0.0000
    98 H35      4.5766   1.7087  -2.7361   H         1 RES1   0.0000
    99 H36      7.2329  -0.6465  -0.3937   H         1 RES1   0.0000
   100 H37      6.1448   0.2309   1.6042   H         1 RES1   0.0000
   101 H38      6.4328   0.4464  -3.8679   H         1 RES1   0.0000
   102 H39      7.3289  -1.8627  -2.1160   H         1 RES1   0.0000
   103 H40      7.2329  -0.4002  -5.6395   H         1 RES1   0.0000
   104 H41      7.6490  -1.7395  -7.6964   H         1 RES1   0.0000
   105 H42      8.2250  -4.1564  -7.4209   H         1 RES1   0.0000
   106 H43      8.3530  -5.1570  -5.2458   H         1 RES1   0.0000
   107 H44      7.8730  -3.8331  -3.2282   H         1 RES1   0.0000
@<TRIPOS>BOND
     1     1     2    1
     2     2     3    2
     3     3     4    2
     4     5     1    1
     5     6     5    2
     6     7     6    2
     7     8     1    1
     8     9     8   ar
     9    10     9   ar
    10    11    10   ar
    11    12    11   ar
    12    13     8   ar
    13    14    11    1
    14    15    14    2
    15    16    15    1
    16    17    16   ar
    17    18    17   ar
    18    19    18   ar
    19    20    19   ar
    20    21    16   ar
    21    22     1    1
    22    23    22   ar
    23    24    23   ar
    24    25    24   ar
    25    26    25   ar
    26    27    22   ar
    27    28    25    1
    28    29    28    2
    29    30    29    1
    30    31    30   ar
    31    32    31   ar
    32    33    32   ar
    33    34    33   ar
    34    35    30   ar
    35    36     1    1
    36    37    36   ar
    37    38    37   ar
    38    39    38   ar
    39    40    39   ar
    40    41    36   ar
    41    42    39    1
    42    43    42    2
    43    44    43    1
    44    45    44   ar
    45    46    45   ar
    46    47    46   ar
    47    48    47   ar
    48    49    44   ar
    49    50     1    1
    50    51    50   ar
    51    52    51   ar
    52    53    52   ar
    53    54    53   ar
    54    55    50   ar
    55    56    53    1
    56    57    56    2
    57    58    57    1
    58    59    58   ar
    59    60    59   ar
    60    61    60   ar
    61    62    61   ar
    62    63    58   ar
    63    64     9    1
    64    65    10    1
    65    66    12    1
    66    67    13    1
    67    68    14    1
    68    69    15    1
    69    70    17    1
    70    71    18    1
    71    72    19    1
    72    73    20    1
    73    74    21    1
    74    75    23    1
    75    76    24    1
    76    77    26    1
    77    78    27    1
    78    79    28    1
    79    80    29    1
    80    81    31    1
    81    82    32    1
    82    83    33    1
    83    84    34    1
    84    85    35    1
    85    86    37    1
    86    87    38    1
    87    88    40    1
    88    89    41    1
    89    90    42    1
    90    91    43    1
    91    92    45    1
    92    93    46    1
    93    94    47    1
    94    95    48    1
    95    96    49    1
    96    97    51    1
    97    98    52    1
    98    99    54    1
    99   100    55    1
   100   101    56    1
   101   102    57    1
   102   103    59    1
   103   104    60    1
   104   105    61    1
   105   106    62    1
   106   107    63    1
   107    12    13   ar
   108    20    21   ar
   109    26    27   ar
   110    34    35   ar
   111    40    41   ar
   112    48    49   ar
   113    54    55   ar
   114    62    63   ar
@<TRIPOS>SUBSTRUCTURE
     1 RES1        1 GROUP             0 ****  ****    0  
@<TRIPOS>CRYSIN
   32.0040   15.3940    9.8420   90.0000   90.0000   90.0000    33     1
