@<TRIPOS>MOLECULE
WIHQIQ01
   110   111     2     0     0
SMALL
USER_CHARGES
****
Generated from the CSD

@<TRIPOS>ATOM
     1 Fe1     15.5940   0.0000   2.7503   Fe        1 RES1  -1.0000
     2 S1      15.2434   1.8889   3.9857   S.2       1 RES1   0.0000
     3 C1      14.2163   2.3863   2.7503   C.3       1 RES1   0.0000
     4 C2      13.4756   3.6693   2.7503   C.2       1 RES1   0.0000
     5 N1      12.1448   3.6271   2.6843   N.pl3     1 RES1   1.0000
     6 C3      11.3142   4.7037   2.1001   C.3       1 RES1   0.0000
     7 H1      11.3633   5.5046   2.6799   H         1 RES1   0.0000
     8 H2      10.3708   4.4066   2.0682   H         1 RES1   0.0000
     9 C4      10.6491   1.7286   2.0583   C.3       1 RES1   0.0000
    10 H3      10.1377   2.3714   1.5248   H         1 RES1   0.0000
    11 H4      10.0371   1.0736   2.4543   H         1 RES1   0.0000
    12 H5      11.2955   1.2681   1.4840   H         1 RES1   0.0000
    13 C5      11.3789   2.4552   3.1529   C.3       1 RES1   0.0000
    14 H6      10.7224   2.7550   3.8306   H         1 RES1   0.0000
    15 H7      12.0004   1.8245   3.5952   H         1 RES1   0.0000
    16 C6      11.7672   5.0670   0.7140   C.3       1 RES1   0.0000
    17 H8      12.6771   5.4276   0.7514   H         1 RES1   0.0000
    18 H9      11.1630   5.7409   0.3388   H         1 RES1   0.0000
    19 H10     11.7563   4.2675   0.1463   H         1 RES1   0.0000
    20 S1E     14.1335   1.2481   1.5149   S.2       1 RES1   0.0000
    21 N1E     14.1774   4.8007   2.8163   N.pl3     1 RES1   0.0000
    22 C3E     13.6603   6.0583   3.4004   C.3       1 RES1   0.0000
    23 H1E     12.9422   6.4161   2.8207   H         1 RES1   0.0000
    24 H2E     14.3894   6.7267   3.4323   H         1 RES1   0.0000
    25 C4E     16.5694   5.1467   3.4422   C.3       1 RES1   0.0000
    26 H3E     16.2684   5.9111   3.9758   H         1 RES1   0.0000
    27 H4E     17.4427   5.3493   3.0462   H         1 RES1   0.0000
    28 H5E     16.6450   4.3566   4.0165   H         1 RES1   0.0000
    29 C5E     15.5753   4.8779   2.3476   C.3       1 RES1   0.0000
    30 H6E     15.6439   5.5964   1.6700   H         1 RES1   0.0000
    31 H7E     15.8108   4.0244   1.9054   H         1 RES1   0.0000
    32 C6E     13.1192   5.8476   4.7866   C.3       1 RES1   0.0000
    33 H8E     12.3520   5.2399   4.7492   H         1 RES1   0.0000
    34 H9E     12.8378   6.7078   5.1617   H         1 RES1   0.0000
    35 H10E    13.8171   5.4573   5.3542   H         1 RES1   0.0000
    36 S1A     14.1335  -1.2481   3.9857   S.2       1 RES1   0.0000
    37 C1A     14.2163  -2.3863   2.7503   C.3       1 RES1   0.0000
    38 C2A     13.4756  -3.6693   2.7503   C.2       1 RES1   0.0000
    39 N1A     14.1774  -4.8007   2.6843   N.pl3     1 RES1   0.0000
    40 C3A     13.6603  -6.0583   2.1001   C.3       1 RES1   0.0000
    41 H1A     12.9422  -6.4161   2.6799   H         1 RES1   0.0000
    42 H2A     14.3894  -6.7267   2.0682   H         1 RES1   0.0000
    43 C4A     16.5694  -5.1467   2.0583   C.3       1 RES1   0.0000
    44 H3A     16.2684  -5.9111   1.5248   H         1 RES1   0.0000
    45 H4A     17.4427  -5.3493   2.4543   H         1 RES1   0.0000
    46 H5A     16.6450  -4.3566   1.4840   H         1 RES1   0.0000
    47 C5A     15.5753  -4.8779   3.1529   C.3       1 RES1   0.0000
    48 H6A     15.6439  -5.5964   3.8306   H         1 RES1   0.0000
    49 H7A     15.8108  -4.0244   3.5952   H         1 RES1   0.0000
    50 C6A     13.1192  -5.8476   0.7140   C.3       1 RES1   0.0000
    51 H8A     12.3520  -5.2399   0.7514   H         1 RES1   0.0000
    52 H9A     12.8378  -6.7078   0.3388   H         1 RES1   0.0000
    53 H10A    13.8171  -5.4573   0.1463   H         1 RES1   0.0000
    54 S1D     15.2434  -1.8889   1.5149   S.2       1 RES1   0.0000
    55 N1D     12.1448  -3.6271   2.8163   N.pl3     1 RES1   1.0000
    56 C3D     11.3142  -4.7037   3.4004   C.3       1 RES1   0.0000
    57 H1D     11.3633  -5.5046   2.8207   H         1 RES1   0.0000
    58 H2D     10.3708  -4.4066   3.4323   H         1 RES1   0.0000
    59 C4D     10.6491  -1.7286   3.4422   C.3       1 RES1   0.0000
    60 H3D     10.1377  -2.3714   3.9758   H         1 RES1   0.0000
    61 H4D     10.0371  -1.0736   3.0462   H         1 RES1   0.0000
    62 H5D     11.2955  -1.2681   4.0165   H         1 RES1   0.0000
    63 C5D     11.3789  -2.4552   2.3476   C.3       1 RES1   0.0000
    64 H6D     10.7224  -2.7550   1.6700   H         1 RES1   0.0000
    65 H7D     12.0004  -1.8245   1.9054   H         1 RES1   0.0000
    66 C6D     11.7672  -5.0670   4.7866   C.3       1 RES1   0.0000
    67 H8D     12.6771  -5.4276   4.7492   H         1 RES1   0.0000
    68 H9D     11.1630  -5.7409   5.1617   H         1 RES1   0.0000
    69 H10D    11.7563  -4.2675   5.3542   H         1 RES1   0.0000
    70 S1B     17.4052  -0.6408   3.9857   S.2       1 RES1   0.0000
    71 C1B     18.3495   0.0000   2.7503   C.3       1 RES1   0.0000
    72 C2B     19.8309   0.0000   2.7503   C.2       1 RES1   0.0000
    73 N1B     20.4598   1.1736   2.6843   N.pl3     1 RES1   0.0000
    74 C3B     21.8074   1.3545   2.1001   C.3       1 RES1   0.0000
    75 H1B     22.4764   0.9116   2.6799   H         1 RES1   0.0000
    76 H2B     22.0218   2.3201   2.0682   H         1 RES1   0.0000
    77 C4B     19.5635   3.4181   2.0583   C.3       1 RES1   0.0000
    78 H3B     20.3759   3.5396   1.5248   H         1 RES1   0.0000
    79 H4B     19.3023   4.2756   2.4543   H         1 RES1   0.0000
    80 H5B     18.8415   3.0885   1.4840   H         1 RES1   0.0000
    81 C5B     19.8278   2.4228   3.1529   C.3       1 RES1   0.0000
    82 H6B     20.4157   2.8414   3.8306   H         1 RES1   0.0000
    83 H7B     18.9709   2.1999   3.5952   H         1 RES1   0.0000
    84 C6B     21.8955   0.7806   0.7140   C.3       1 RES1   0.0000
    85 H8B     21.7529  -0.1877   0.7514   H         1 RES1   0.0000
    86 H9B     22.7813   0.9669   0.3388   H         1 RES1   0.0000
    87 H10B    21.2086   1.1898   0.1463   H         1 RES1   0.0000
    88 S1C     17.4052   0.6408   1.5149   S.2       1 RES1   0.0000
    89 N1C     20.4598  -1.1736   2.8163   N.pl3     1 RES1   1.0000
    90 C3C     21.8074  -1.3545   3.4004   C.3       1 RES1   0.0000
    91 H1C     22.4764  -0.9116   2.8207   H         1 RES1   0.0000
    92 H2C     22.0218  -2.3201   3.4323   H         1 RES1   0.0000
    93 C4C     19.5635  -3.4181   3.4422   C.3       1 RES1   0.0000
    94 H3C     20.3759  -3.5396   3.9758   H         1 RES1   0.0000
    95 H4C     19.3023  -4.2756   3.0462   H         1 RES1   0.0000
    96 H5C     18.8415  -3.0885   4.0165   H         1 RES1   0.0000
    97 C5C     19.8278  -2.4228   2.3476   C.3       1 RES1   0.0000
    98 H6C     20.4157  -2.8414   1.6700   H         1 RES1   0.0000
    99 H7C     18.9709  -2.1999   1.9054   H         1 RES1   0.0000
   100 C6C     21.8955  -0.7806   4.7866   C.3       1 RES1   0.0000
   101 H8C     21.7529   0.1877   4.7492   H         1 RES1   0.0000
   102 H9C     22.7813  -0.9669   5.1617   H         1 RES1   0.0000
   103 H10C    21.2086  -1.1898   5.3542   H         1 RES1   0.0000
   104 P1       7.7978   4.5011   4.6493   P.3       2 RES2  -1.0000
   105 F1       6.5175   4.7064   3.7371   F         2 RES2   0.0000
   106 F2       7.3393   5.7409   5.5160   F         2 RES2   0.0000
   107 F1A      8.2594   3.2911   3.7371   F         2 RES2   0.0000
   108 F2A      6.9526   3.4856   5.5160   F         2 RES2   0.0000
   109 F1B      8.6141   5.5073   3.7371   F         2 RES2   0.0000
   110 F2B      9.0991   4.2783   5.5160   F         2 RES2   0.0000
@<TRIPOS>BOND
     1     1     2    1
     2     2     3   un
     3     3     4    1
     4     4     5    2
     5     5     6    1
     6     6     7    1
     7     8     6    1
     8     9    10    1
     9    11     9    1
    10    12     9    1
    11    13     5    1
    12    14    13    1
    13    15    13    1
    14    16     6    1
    15    17    16    1
    16    18    16    1
    17    19    16    1
    18    20     1    1
    19    21     4    1
    20    22    21    1
    21    23    22    1
    22    24    22    1
    23    25    26    1
    24    27    25    1
    25    28    25    1
    26    29    21    1
    27    30    29    1
    28    31    29    1
    29    32    22    1
    30    33    32    1
    31    34    32    1
    32    35    32    1
    33    36     1    1
    34    37    36   un
    35    38    37    1
    36    39    38    1
    37    40    39    1
    38    41    40    1
    39    42    40    1
    40    43    44    1
    41    45    43    1
    42    46    43    1
    43    47    39    1
    44    48    47    1
    45    49    47    1
    46    50    40    1
    47    51    50    1
    48    52    50    1
    49    53    50    1
    50    54     1    1
    51    55    38    2
    52    56    55    1
    53    57    56    1
    54    58    56    1
    55    59    60    1
    56    61    59    1
    57    62    59    1
    58    63    55    1
    59    64    63    1
    60    65    63    1
    61    66    56    1
    62    67    66    1
    63    68    66    1
    64    69    66    1
    65    70     1    1
    66    71    70   un
    67    72    71    1
    68    73    72    1
    69    74    73    1
    70    75    74    1
    71    76    74    1
    72    77    78    1
    73    79    77    1
    74    80    77    1
    75    81    73    1
    76    82    81    1
    77    83    81    1
    78    84    74    1
    79    85    84    1
    80    86    84    1
    81    87    84    1
    82    88     1    1
    83    89    72    2
    84    90    89    1
    85    91    90    1
    86    92    90    1
    87    93    94    1
    88    95    93    1
    89    96    93    1
    90    97    89    1
    91    98    97    1
    92    99    97    1
    93   100    90    1
    94   101   100    1
    95   102   100    1
    96   103   100    1
    97     3    20   un
    98     9    13    1
    99    25    29    1
   100    37    54   un
   101    43    47    1
   102    59    63    1
   103    71    88   un
   104    77    81    1
   105    93    97    1
   106   104   105    1
   107   106   104    1
   108   107   104    1
   109   108   104    1
   110   109   104    1
   111   110   104    1
@<TRIPOS>SUBSTRUCTURE
     1 RES1        1 GROUP             0 ****  ****    0  
     2 RES2      104 GROUP             0 ****  ****    0  
@<TRIPOS>CRYSIN
   15.5940   15.5940   11.0011   90.0000   90.0000  120.0000   165     1
