@<TRIPOS>MOLECULE
WIYBIS01
   268   296    12     0     0
SMALL
USER_CHARGES
****
Generated from the CSD

@<TRIPOS>ATOM
     1 Fe1     10.4516   2.0895  29.6569   Fe        1 RES1   0.0000
     2 Fe2     11.3190   3.2518  32.5097   Fe        1 RES1   0.0000
     3 Fe3      8.6053   4.2026  31.1504   Fe        1 RES1   0.0000
     4 Fe4     11.0860   6.1784  31.3682   Fe        1 RES1   0.0000
     5 Fe5     10.2238   5.0456  28.5388   Fe        1 RES1   0.0000
     6 Fe6     12.9704   4.0506  29.9003   Fe        1 RES1   0.0000
     7 Cl1     10.1198  -0.0125  28.7959   Cl        1 RES1  -1.0000
     8 Cl2     11.8911   2.3119  34.5203   Cl        1 RES1  -1.0000
     9 Cl3      6.4058   4.2399  31.7714   Cl        1 RES1   0.0000
    10 Cl4     11.4341   8.3022  32.2381   Cl        1 RES1   0.0000
    11 Cl5      9.7606   6.0010  26.5237   Cl        1 RES1   0.0000
    12 Cl6     15.1585   3.9486  29.3097   Cl        1 RES1   0.0000
    13 O1      10.7626   4.1440  30.5372   O.3       1 RES1   0.0000
    14 O2       8.6082   2.3700  30.3443   O.3       1 RES1   0.0000
    15 O3      10.9932   1.5437  31.5047   O.3       1 RES1   0.0000
    16 O4       9.3603   3.3624  32.8154   O.3       1 RES1   0.0000
    17 O5      13.1605   3.2960  31.7306   O.3       1 RES1   0.0000
    18 O6      11.5672   5.1640  33.0279   O.3       1 RES1   0.0000
    19 O7      12.9597   5.8745  30.7331   O.3       1 RES1   0.0000
    20 O8      10.5586   6.7523  29.5449   O.3       1 RES1   0.0000
    21 O9       8.3946   5.0196  29.3405   O.3       1 RES1   0.0000
    22 O10      9.1349   6.0132  31.8174   O.3       1 RES1   0.0000
    23 O11     12.3903   2.2691  29.2199   O.3       1 RES1   0.0000
    24 O12     10.0385   3.1286  28.0194   O.3       1 RES1   0.0000
    25 O13     12.2147   4.8454  28.2224   O.3       1 RES1   0.0000
    26 C1       8.0293   1.2916  31.1011   C.3       1 RES1   0.0000
    27 H1       8.0229   0.4765  30.5390   H         1 RES1   0.0000
    28 H2       7.0886   1.5190  31.3096   H         1 RES1   0.0000
    29 C2      10.1884   0.5455  32.1502   C.3       1 RES1   0.0000
    30 H3      10.6005   0.3164  33.0208   H         1 RES1   0.0000
    31 H4      10.1861  -0.2728  31.5934   H         1 RES1   0.0000
    32 C3       8.6912   2.1969  33.3280   C.3       1 RES1   0.0000
    33 H5       7.7429   2.4235  33.5021   H         1 RES1   0.0000
    34 H6       9.1030   1.9486  34.1949   H         1 RES1   0.0000
    35 C4       8.7482   0.9844  32.3858   C.3       1 RES1   0.0000
    36 C5       8.0340  -0.1834  33.0609   C.3       1 RES1   0.0000
    37 H7       7.1182   0.0804  33.2889   H         1 RES1   0.0000
    38 H8       8.5148  -0.4330  33.8781   H         1 RES1   0.0000
    39 H9       8.0108  -0.9490  32.4495   H         1 RES1   0.0000
    40 C6      14.2007   3.8311  32.5416   C.3       1 RES1   0.0000
    41 H10     15.0648   3.7039  32.0770   H         1 RES1   0.0000
    42 H11     14.2381   3.3192  33.3894   H         1 RES1   0.0000
    43 C7      12.7676   5.5318  33.7138   C.3       1 RES1   0.0000
    44 H12     12.8378   4.9984  34.5459   H         1 RES1   0.0000
    45 H13     12.7095   6.4861  33.9729   H         1 RES1   0.0000
    46 C8      14.0417   6.1862  31.6179   C.3       1 RES1   0.0000
    47 H14     13.9789   7.1389  31.8804   H         1 RES1   0.0000
    48 H15     14.8980   6.0592  31.1383   H         1 RES1   0.0000
    49 C9      14.0346   5.3175  32.8740   C.3       1 RES1   0.0000
    50 C10     15.2518   5.7393  33.7176   C.3       1 RES1   0.0000
    51 H16     15.1470   6.6714  33.9995   H         1 RES1   0.0000
    52 H17     16.0676   5.6504  33.1802   H         1 RES1   0.0000
    53 H18     15.3176   5.1634  34.5074   H         1 RES1   0.0000
    54 C11      9.5596   7.7998  29.4365   C.3       1 RES1   0.0000
    55 H19      9.4587   8.0467  28.4829   H         1 RES1   0.0000
    56 H20      9.8814   8.5996  29.9224   H         1 RES1   0.0000
    57 C12      7.6093   6.2046  29.2288   C.3       1 RES1   0.0000
    58 H21      6.6992   6.0200  29.5744   H         1 RES1   0.0000
    59 H22      7.5236   6.4431  28.2710   H         1 RES1   0.0000
    60 C13      8.2950   7.1271  31.4658   C.3       1 RES1   0.0000
    61 H23      8.6403   7.9379  31.9150   H         1 RES1   0.0000
    62 H24      7.3831   6.9577  31.8148   H         1 RES1   0.0000
    63 C14      8.1977   7.3999  29.9893   C.3       1 RES1   0.0000
    64 C15      7.2557   8.5986  29.7667   C.3       1 RES1   0.0000
    65 H25      6.3489   8.3592  30.0512   H         1 RES1   0.0000
    66 H26      7.2464   8.8344  28.8144   H         1 RES1   0.0000
    67 H27      7.5708   9.3649  30.2890   H         1 RES1   0.0000
    68 C16     12.7913   1.9139  27.9022   C.3       1 RES1   0.0000
    69 H28     12.5350   0.9723  27.7343   H         1 RES1   0.0000
    70 H29     13.7767   1.9733  27.8416   H         1 RES1   0.0000
    71 C17     10.6440   2.6920  26.8001   C.3       1 RES1   0.0000
    72 H30     10.2936   3.2406  26.0537   H         1 RES1   0.0000
    73 H31     10.3848   1.7520  26.6309   H         1 RES1   0.0000
    74 C18     12.6347   4.2483  26.9889   C.3       1 RES1   0.0000
    75 H32     13.6240   4.2791  26.9405   H         1 RES1   0.0000
    76 H33     12.2812   4.7865  26.2373   H         1 RES1   0.0000
    77 C19     12.1767   2.7917  26.8145   C.3       1 RES1   0.0000
    78 C20     12.7106   2.2932  25.4486   C.3       1 RES1   0.0000
    79 H34     12.4259   1.3670  25.3052   H         1 RES1   0.0000
    80 H35     13.6894   2.3391  25.4445   H         1 RES1   0.0000
    81 H36     12.3541   2.8597  24.7325   H         1 RES1   0.0000
    82 Fe7     18.3726   2.2024  19.3773   Fe        2 RES2   0.0000
    83 Fe8     19.1902   3.4261  22.2067   Fe        2 RES2   0.0000
    84 Fe9     21.0386   1.2327  20.8022   Fe        2 RES2   0.0000
    85 Fe10    19.3651   0.5025  23.4138   Fe        2 RES2   0.0000
    86 Fe11    18.5188  -0.6948  20.6082   Fe        2 RES2   0.0000
    87 Fe12    16.6574   1.4954  21.9912   Fe        2 RES2   0.0000
    88 Cl7     17.8629   3.0490  17.2980   Cl        2 RES2  -1.0000
    89 Cl8     19.5314   5.5378  23.0317   Cl        2 RES2  -1.0000
    90 Cl9     23.2238   1.1169  20.1953   Cl        2 RES2   0.0000
    91 Cl10    19.7763  -0.4031  25.4672   Cl        2 RES2   0.0000
    92 Cl11    18.1612  -2.8298  19.7976   Cl        2 RES2   0.0000
    93 Cl12    14.4562   1.6714  22.5446   Cl        2 RES2   0.0000
    94 O14     18.8512   1.3569  21.3894   O.3       2 RES2   0.0000
    95 O15     18.7183   3.9263  20.3296   O.3       2 RES2   0.0000
    96 O16     20.3341   2.0502  19.1150   O.3       2 RES2   0.0000
    97 O17     21.0412   3.0828  21.5738   O.3       2 RES2   0.0000
    98 O18     16.5117   2.2153  20.1307   O.3       2 RES2   0.0000
    99 O19     18.0848   0.2739  18.9173   O.3       2 RES2   0.0000
   100 O20     16.6446  -0.3392  21.2184   O.3       2 RES2   0.0000
   101 O21     17.2449   3.3005  22.6311   O.3       2 RES2   0.0000
   102 O22     19.5540   2.4192  23.8913   O.3       2 RES2   0.0000
   103 O23     17.3744   0.7357  23.6991   O.3       2 RES2   0.0000
   104 O24     21.2073   0.4779  22.6452   O.3       2 RES2   0.0000
   105 O25     19.0149  -1.2171  22.4649   O.3       2 RES2   0.0000
   106 O26     20.4741  -0.5799  20.1957   O.3       2 RES2   0.0000
   107 C21     19.5511   4.9004  19.6837   C.3       2 RES2   0.0000
   108 H37     19.5665   5.7255  20.2289   H         2 RES2   0.0000
   109 H38     19.1569   5.1273  18.8027   H         2 RES2   0.0000
   110 C22     21.0412   3.1768  18.5864   C.3       2 RES2   0.0000
   111 H39     20.6593   3.4073  17.7028   H         2 RES2   0.0000
   112 H40     21.9884   2.9226  18.4466   H         2 RES2   0.0000
   113 C23     21.6771   4.1257  20.8263   C.3       2 RES2   0.0000
   114 H41     22.6209   3.8719  20.6607   H         2 RES2   0.0000
   115 H42     21.6781   4.9549  21.3649   H         2 RES2   0.0000
   116 C24     20.9937   4.4076  19.4745   C.3       2 RES2   0.0000
   117 C25     21.7744   5.5616  18.8194   C.3       2 RES2   0.0000
   118 H43     22.6922   5.2722  18.6338   H         2 RES2   0.0000
   119 H44     21.7895   6.3319  19.4233   H         2 RES2   0.0000
   120 H45     21.3373   5.8151  17.9778   H         2 RES2   0.0000
   121 C26     16.8676  -0.0791  18.2332   C.3       2 RES2   0.0000
   122 H46     16.9043  -1.0403  17.9993   H         2 RES2   0.0000
   123 H47     16.8210   0.4329  17.3867   H         2 RES2   0.0000
   124 C27     15.5721  -0.6441  20.3092   C.3       2 RES2   0.0000
   125 H48     14.7087  -0.4852  20.7690   H         2 RES2   0.0000
   126 H49     15.6143  -1.6043  20.0738   H         2 RES2   0.0000
   127 C28     15.4582   1.6778  19.3124   C.3       2 RES2   0.0000
   128 H50     15.4410   2.1674  18.4518   H         2 RES2   0.0000
   129 H51     14.5915   1.8346  19.7646   H         2 RES2   0.0000
   130 C29     15.6029   0.1799  19.0264   C.3       2 RES2   0.0000
   131 C30     14.3929  -0.2384  18.1813   C.3       2 RES2   0.0000
   132 H52     14.4871  -1.1777  17.9199   H         2 RES2   0.0000
   133 H53     14.3470   0.3219  17.3790   H         2 RES2   0.0000
   134 H54     13.5742  -0.1252  18.7072   H         2 RES2   0.0000
   135 C31     16.8225   3.6936  23.9473   C.3       2 RES2   0.0000
   136 H55     15.8340   3.6447  23.9957   H         2 RES2   0.0000
   137 H56     17.0848   4.6358  24.1014   H         2 RES2   0.0000
   138 C32     18.9342   2.9040  25.0865   C.3       2 RES2   0.0000
   139 H57     19.2043   3.8458  25.2287   H         2 RES2   0.0000
   140 H58     19.2650   2.3759  25.8558   H         2 RES2   0.0000
   141 C33     16.9554   1.3764  24.9255   C.3       2 RES2   0.0000
   142 H59     17.3119   0.8613  25.6909   H         2 RES2   0.0000
   143 H60     15.9681   1.3498  24.9767   H         2 RES2   0.0000
   144 C34     17.4157   2.8261  25.0520   C.3       2 RES2   0.0000
   145 C35     16.8889   3.3441  26.4020   C.3       2 RES2   0.0000
   146 H61     17.1932   4.2660  26.5382   H         2 RES2   0.0000
   147 H62     17.2317   2.7773  27.1242   H         2 RES2   0.0000
   148 H63     15.9103   3.3191  26.4020   H         2 RES2   0.0000
   149 C36     21.9665  -0.7323  22.7999   C.3       2 RES2   0.0000
   150 H64     22.0213  -0.9522  23.7646   H         2 RES2   0.0000
   151 H65     22.8875  -0.5743  22.4755   H         2 RES2   0.0000
   152 C37     19.9735  -2.2611  22.6329   C.3       2 RES2   0.0000
   153 H66     19.6361  -3.0798  22.1913   H         2 RES2   0.0000
   154 H67     20.0638  -2.4582  23.6004   H         2 RES2   0.0000
   155 C38     21.3235  -1.6824  20.5481   C.3       2 RES2   0.0000
   156 H68     22.2389  -1.5057  20.2120   H         2 RES2   0.0000
   157 H69     20.9912  -2.5012  20.1001   H         2 RES2   0.0000
   158 C39     21.3829  -1.9253  22.0579   C.3       2 RES2   0.0000
   159 C40     22.2679  -3.1619  22.3139   C.3       2 RES2   0.0000
   160 H70     23.1952  -2.9537  22.0719   H         2 RES2   0.0000
   161 H71     21.9489  -3.9100  21.7663   H         2 RES2   0.0000
   162 H72     22.2237  -3.4064  23.2603   H         2 RES2   0.0000
   163 N1      14.8176  11.2321  33.9550   N.3       3 RES3   1.0000
   164 C41     15.8639  12.2830  33.9364   C.3       3 RES3   0.0000
   165 H73     16.5991  12.0134  34.5398   H         3 RES3   0.0000
   166 H74     15.4772  13.1239  34.2872   H         3 RES3   0.0000
   167 C42     16.4286  12.5443  32.5675   C.3       3 RES3   0.0000
   168 H75     16.9180  11.7522  32.2603   H         3 RES3   0.0000
   169 H76     17.0397  13.3095  32.6082   H         3 RES3   0.0000
   170 H77     15.6994  12.7403  31.9442   H         3 RES3   0.0000
   171 C43     14.2102  11.1840  35.3350   C.3       3 RES3   0.0000
   172 H78     13.9081  12.0932  35.5823   H         3 RES3   0.0000
   173 H79     14.9100  10.9134  35.9820   H         3 RES3   0.0000
   174 C44     13.0404  10.2305  35.4537   C.3       3 RES3   0.0000
   175 H80     12.4333  10.3618  34.6965   H         3 RES3   0.0000
   176 H81     12.5611  10.4044  36.2912   H         3 RES3   0.0000
   177 H82     13.3696   9.3070  35.4526   H         3 RES3   0.0000
   178 C45     15.3135   9.8753  33.5358   C.3       3 RES3   0.0000
   179 H83     15.6885   9.9364  32.6225   H         3 RES3   0.0000
   180 H84     14.5490   9.2462  33.5085   H         3 RES3   0.0000
   181 C46     16.3907   9.3137  34.4855   C.3       3 RES3   0.0000
   182 H85     17.0853   9.9905  34.6292   H         3 RES3   0.0000
   183 H86     16.7933   8.5133  34.0873   H         3 RES3   0.0000
   184 H87     15.9811   9.0795  35.3446   H         3 RES3   0.0000
   185 N2      17.2425   9.1854  27.3109   N.3       4 RES4   1.0000
   186 C47     17.3611  10.3623  28.2606   C.3       4 RES4   0.0000
   187 H88     18.1313  10.9210  27.9892   H         4 RES4   0.0000
   188 H89     17.5361  10.0249  29.1742   H         4 RES4   0.0000
   189 C48     16.1012  11.2218  28.2754   C.3       4 RES4   0.0000
   190 H90     15.8242  11.4145  27.3570   H         4 RES4   0.0000
   191 H91     16.2850  12.0621  28.7460   H         4 RES4   0.0000
   192 H92     15.3830  10.7402  28.7397   H         4 RES4   0.0000
   193 C49     15.9802   8.3900  27.5631   C.3       4 RES4   0.0000
   194 H93     15.2001   8.9869  27.4375   H         4 RES4   0.0000
   195 H94     15.9185   7.6717  26.8857   H         4 RES4   0.0000
   196 C50     15.8853   7.7654  28.9320   C.3       4 RES4   0.0000
   197 H95     16.6939   7.2401  29.1058   H         4 RES4   0.0000
   198 H96     15.1007   7.1794  28.9683   H         4 RES4   0.0000
   199 H97     15.8002   8.4696  29.6064   H         4 RES4   0.0000
   200 C51     18.5166   8.3854  27.3777   C.3       4 RES4   0.0000
   201 H98     19.2947   8.9921  27.2858   H         4 RES4   0.0000
   202 H99     18.5812   7.9363  28.2584   H         4 RES4   0.0000
   203 C52     18.5475   7.3712  26.2981   C.3       4 RES4   0.0000
   204 H100    17.8692   6.6859  26.4752   H         4 RES4   0.0000
   205 H101    19.4335   6.9526  26.2680   H         4 RES4   0.0000
   206 H102    18.3602   7.8025  25.4393   H         4 RES4   0.0000
   207 N3      12.2811   7.9339  24.6473   N.3       5 RES5   1.0000
   208 C53     10.9809   8.6742  24.5472   C.3       5 RES5   0.0000
   209 H103    10.9390   9.1416  23.6763   H         5 RES5   0.0000
   210 H104    10.2345   8.0232  24.5783   H         5 RES5   0.0000
   211 C54     10.8053   9.6690  25.6452   C.3       5 RES5   0.0000
   212 H105    11.0236   9.2502  26.5038   H         5 RES5   0.0000
   213 H106     9.8758   9.9790  25.6598   H         5 RES5   0.0000
   214 H107    11.4016  10.4315  25.4925   H         5 RES5   0.0000
   215 C55     13.4746   8.8095  24.4284   C.3       5 RES5   0.0000
   216 H108    14.2911   8.2785  24.6036   H         5 RES5   0.0000
   217 H109    13.4493   9.5469  25.0875   H         5 RES5   0.0000
   218 C56     13.5766   9.4111  23.0262   C.3       5 RES5   0.0000
   219 H110    13.7989   8.7064  22.3825   H         5 RES5   0.0000
   220 H111    14.2754  10.0973  23.0145   H         5 RES5   0.0000
   221 H112    12.7173   9.8165  22.7809   H         5 RES5   0.0000
   222 C57     12.2408   6.7420  23.7088   C.3       5 RES5   0.0000
   223 H113    11.4870   6.1573  23.9701   H         5 RES5   0.0000
   224 H114    12.0692   7.0655  22.7905   H         5 RES5   0.0000
   225 C58     13.4960   5.9364  23.7088   C.3       5 RES5   0.0000
   226 H115    14.2113   6.4451  23.2716   H         5 RES5   0.0000
   227 H116    13.3469   5.0992  23.2227   H         5 RES5   0.0000
   228 H117    13.7571   5.7360  24.6324   H         5 RES5   0.0000
   229 N4      14.7606   5.6396  17.6100   N.3       6 RES6   1.0000
   230 C59     13.8543   6.8097  17.6360   C.3       6 RES6   0.0000
   231 H118    12.9650   6.5491  17.2871   H         6 RES6   0.0000
   232 H119    14.2161   7.5238  17.0560   H         6 RES6   0.0000
   233 C60     13.7071   7.3299  19.0382   C.3       6 RES6   0.0000
   234 H120    13.2451   6.6623  19.5889   H         6 RES6   0.0000
   235 H121    13.1873   8.1599  19.0276   H         6 RES6   0.0000
   236 H122    14.5946   7.5051  19.4169   H         6 RES6   0.0000
   237 C61     15.9375   5.9203  16.5119   C.3       6 RES6   0.0000
   238 H123    16.3460   5.0610  16.2374   H         6 RES6   0.0000
   239 H124    15.5437   6.3420  15.7056   H         6 RES6   0.0000
   240 C62     16.8984   6.7363  17.0276   C.3       6 RES6   0.0000
   241 H125    16.5628   7.6568  17.0578   H         6 RES6   0.0000
   242 H126    17.6971   6.6991  16.4602   H         6 RES6   0.0000
   243 H127    17.1258   6.4406  17.9325   H         6 RES6   0.0000
   244 C63     14.1176   4.4087  16.9014   C.3       6 RES6   0.0000
   245 H128    13.7665   4.6824  16.0160   H         6 RES6   0.0000
   246 H129    14.8068   3.7132  16.7556   H         6 RES6   0.0000
   247 C64     13.0523   3.8701  17.6916   C.3       6 RES6   0.0000
   248 H130    13.3552   3.7674  18.6185   H         6 RES6   0.0000
   249 H131    12.7901   2.9968  17.3348   H         6 RES6   0.0000
   250 H132    12.2856   4.4793  17.6645   H         6 RES6   0.0000
   251 O27     15.6907   4.9760  20.1066   O.3       7 RES7   0.0000
   252 H133    14.8887   4.6964  20.2976   H         7 RES7   0.0000
   253 H134    16.0247   5.3937  20.7914   H         7 RES7   0.0000
   254 O28     16.8273   7.3941  22.5513   O.3       8 RES8   0.0000
   255 H135    17.5327   7.1124  22.9766   H         8 RES8   0.0000
   256 H136    16.6438   6.8471  21.8995   H         8 RES8   0.0000
   257 O29     16.5781   9.5991  24.5620   O.3       9 RES9   0.0000
   258 H137    17.3134   9.6882  25.0200   H         9 RES9   0.0000
   259 H138    16.7386   9.1334  23.8443   H         9 RES9   0.0000
   260 O30     12.9550   7.4583  27.3331   O.3      10 RES10   0.0000
   261 H139    13.0404   6.6022  27.4582   H        10 RES10   0.0000
   262 H140    12.8356   7.8537  28.0988   H        10 RES10   0.0000
   263 O31     12.6821   9.5234  29.4291   O.3      11 RES11   0.0000
   264 H141    11.9508   9.8320  29.0692   H        11 RES11   0.0000
   265 H142    12.7570   9.8276  30.2389   H        11 RES11   0.0000
   266 O32     13.4438   0.0745  31.6030   O.3      12 RES12   0.0000
   267 H143    13.6215   0.3539  30.8003   H        12 RES12   0.0000
   268 H144    12.5806   0.0081  31.7033   H        12 RES12   0.0000
@<TRIPOS>BOND
     1     1     7    1
     2     2     8    1
     3     3     9    1
     4     4    10    1
     5     5    11    1
     6     6    12    1
     7    13     1    1
     8    14     1    1
     9    15     1    1
    10    16     2    1
    11    17     2    1
    12    18     2    1
    13    19     4    1
    14    20     4    1
    15    21     3    1
    16    22     3    1
    17    23     1    1
    18    24     1    1
    19    25     5    1
    20    26    14    1
    21    27    26    1
    22    28    26    1
    23    29    15    1
    24    30    29    1
    25    31    29    1
    26    32    16    1
    27    33    32    1
    28    34    32    1
    29    35    26    1
    30    36    35    1
    31    37    36    1
    32    38    36    1
    33    39    36    1
    34    40    17    1
    35    41    40    1
    36    42    40    1
    37    43    18    1
    38    44    43    1
    39    45    43    1
    40    46    19    1
    41    47    46    1
    42    48    46    1
    43    49    40    1
    44    50    49    1
    45    51    50    1
    46    52    50    1
    47    53    50    1
    48    54    20    1
    49    55    54    1
    50    56    54    1
    51    57    21    1
    52    58    57    1
    53    59    57    1
    54    60    22    1
    55    61    60    1
    56    62    60    1
    57    63    54    1
    58    64    63    1
    59    65    64    1
    60    66    64    1
    61    67    64    1
    62    68    23    1
    63    69    68    1
    64    70    68    1
    65    71    24    1
    66    72    71    1
    67    73    71    1
    68    74    25    1
    69    75    74    1
    70    76    74    1
    71    77    68    1
    72    78    77    1
    73    79    78    1
    74    80    78    1
    75    81    78    1
    76     2    13    1
    77     2    15    1
    78     3    13    1
    79     3    14    1
    80     3    16    1
    81     4    13    1
    82     4    18    1
    83     4    22    1
    84     5    13    1
    85     5    20    1
    86     5    21    1
    87     5    24    1
    88     6    13    1
    89     6    17    1
    90     6    19    1
    91     6    23    1
    92     6    25    1
    93    29    35    1
    94    32    35    1
    95    43    49    1
    96    46    49    1
    97    57    63    1
    98    60    63    1
    99    71    77    1
   100    74    77    1
   101    82    88    1
   102    83    89    1
   103    84    90    1
   104    85    91    1
   105    86    92    1
   106    87    93    1
   107    94    82    1
   108    95    82    1
   109    96    82    1
   110    97    83    1
   111    98    82    1
   112    99    82    1
   113   100    86    1
   114   101    83    1
   115   102    83    1
   116   103    85    1
   117   104    84    1
   118   105    85    1
   119   106    84    1
   120   107    95    1
   121   108   107    1
   122   109   107    1
   123   110    96    1
   124   111   110    1
   125   112   110    1
   126   113    97    1
   127   114   113    1
   128   115   113    1
   129   116   107    1
   130   117   116    1
   131   118   117    1
   132   119   117    1
   133   120   117    1
   134   121    99    1
   135   122   121    1
   136   123   121    1
   137   124   100    1
   138   125   124    1
   139   126   124    1
   140   127    98    1
   141   128   127    1
   142   129   127    1
   143   130   121    1
   144   131   130    1
   145   132   131    1
   146   133   131    1
   147   134   131    1
   148   135   101    1
   149   136   135    1
   150   137   135    1
   151   138   102    1
   152   139   138    1
   153   140   138    1
   154   141   103    1
   155   142   141    1
   156   143   141    1
   157   144   135    1
   158   145   144    1
   159   146   145    1
   160   147   145    1
   161   148   145    1
   162   149   104    1
   163   150   149    1
   164   151   149    1
   165   152   105    1
   166   153   152    1
   167   154   152    1
   168   155   106    1
   169   156   155    1
   170   157   155    1
   171   158   149    1
   172   159   158    1
   173   160   159    1
   174   161   159    1
   175   162   159    1
   176    83    94    1
   177    83    95    1
   178    84    94    1
   179    84    96    1
   180    84    97    1
   181    85    94    1
   182    85   102    1
   183    85   104    1
   184    86    94    1
   185    86    99    1
   186    86   105    1
   187    86   106    1
   188    87    94    1
   189    87    98    1
   190    87   100    1
   191    87   101    1
   192    87   103    1
   193   110   116    1
   194   113   116    1
   195   124   130    1
   196   127   130    1
   197   138   144    1
   198   141   144    1
   199   152   158    1
   200   155   158    1
   201   163   164    1
   202   164   165    1
   203   166   164    1
   204   167   164    1
   205   168   167    1
   206   169   167    1
   207   170   167    1
   208   171   163    1
   209   172   171    1
   210   173   171    1
   211   174   171    1
   212   175   174    1
   213   176   174    1
   214   177   174    1
   215   178   163    1
   216   179   178    1
   217   180   178    1
   218   181   178    1
   219   182   181    1
   220   183   181    1
   221   184   181    1
   222   185   186    1
   223   186   187    1
   224   188   186    1
   225   189   186    1
   226   190   189    1
   227   191   189    1
   228   192   189    1
   229   193   185    1
   230   194   193    1
   231   195   193    1
   232   196   193    1
   233   197   196    1
   234   198   196    1
   235   199   196    1
   236   200   185    1
   237   201   200    1
   238   202   200    1
   239   203   200    1
   240   204   203    1
   241   205   203    1
   242   206   203    1
   243   207   208    1
   244   208   209    1
   245   210   208    1
   246   211   208    1
   247   212   211    1
   248   213   211    1
   249   214   211    1
   250   215   207    1
   251   216   215    1
   252   217   215    1
   253   218   215    1
   254   219   218    1
   255   220   218    1
   256   221   218    1
   257   222   207    1
   258   223   222    1
   259   224   222    1
   260   225   222    1
   261   226   225    1
   262   227   225    1
   263   228   225    1
   264   229   230    1
   265   230   231    1
   266   232   230    1
   267   233   230    1
   268   234   233    1
   269   235   233    1
   270   236   233    1
   271   237   229    1
   272   238   237    1
   273   239   237    1
   274   240   237    1
   275   241   240    1
   276   242   240    1
   277   243   240    1
   278   244   229    1
   279   245   244    1
   280   246   244    1
   281   247   244    1
   282   248   247    1
   283   249   247    1
   284   250   247    1
   285   251   252    1
   286   253   251    1
   287   254   255    1
   288   256   254    1
   289   257   258    1
   290   259   257    1
   291   260   261    1
   292   262   260    1
   293   263   264    1
   294   265   263    1
   295   266   267    1
   296   268   266    1
@<TRIPOS>SUBSTRUCTURE
     1 RES1        1 GROUP             0 ****  ****    0  
     2 RES2       82 GROUP             0 ****  ****    0  
     3 RES3      163 GROUP             0 ****  ****    0  
     4 RES4      185 GROUP             0 ****  ****    0  
     5 RES5      207 GROUP             0 ****  ****    0  
     6 RES6      229 GROUP             0 ****  ****    0  
     7 RES7      251 GROUP             0 ****  ****    0  
     8 RES8      254 GROUP             0 ****  ****    0  
     9 RES9      257 GROUP             0 ****  ****    0  
    10 RES10     260 GROUP             0 ****  ****    0  
    11 RES11     263 GROUP             0 ****  ****    0  
    12 RES12     266 GROUP             0 ****  ****    0  
@<TRIPOS>CRYSIN
   23.7271   11.4602   37.0971   90.0000   90.0000   90.0000    29     1
