@<TRIPOS>MOLECULE
WIYBIS
   271   299    12     0     0
SMALL
USER_CHARGES
****
Generated from the CSD

@<TRIPOS>ATOM
     1 C1      16.8574   2.3849  22.7779   C.3       1 RES1   0.0000
     2 H1      15.8985   2.4316  22.7794   H         1 RES1   0.0000
     3 H2      17.1335   1.4747  22.6498   H         1 RES1   0.0000
     4 H3      17.2029   2.9276  22.0650   H         1 RES1   0.0000
     5 C2      17.3928   2.8962  24.1106   C.3       1 RES1   0.0000
     6 C3      18.9184   2.8219  24.0810   C.3       1 RES1   0.0000
     7 H4      19.1862   1.9005  23.9392   H         1 RES1   0.0000
     8 H5      19.2440   3.3426  23.3294   H         1 RES1   0.0000
     9 C4      16.9284   4.3660  24.2439   C.3       1 RES1   0.0000
    10 H6      17.2772   4.8748  23.4938   H         1 RES1   0.0000
    11 H7      15.9595   4.3952  24.1930   H         1 RES1   0.0000
    12 C5      16.8029   2.0315  25.2138   C.3       1 RES1   0.0000
    13 H8      15.8354   2.0808  25.1692   H         1 RES1   0.0000
    14 H9      17.0596   1.1087  25.0623   H         1 RES1   0.0000
    15 C6      14.3747   5.9708  30.9703   C.3       1 RES1   0.0000
    16 H10     13.5768   5.8668  30.4457   H         1 RES1   0.0000
    17 H11     14.4688   6.8912  31.2282   H         1 RES1   0.0000
    18 H12     14.3139   5.4233  31.7562   H         1 RES1   0.0000
    19 C7      15.5900   5.5453  30.1410   C.3       1 RES1   0.0000
    20 C8      16.8787   5.7993  30.9629   C.3       1 RES1   0.0000
    21 H13     16.9204   6.7387  31.2003   H         1 RES1   0.0000
    22 H14     16.8364   5.2862  31.7834   H         1 RES1   0.0000
    23 C9      15.5568   6.3643  28.8639   C.3       1 RES1   0.0000
    24 H15     14.7130   6.2081  28.4122   H         1 RES1   0.0000
    25 H16     15.5985   7.3062  29.0935   H         1 RES1   0.0000
    26 C10     15.4289   4.0480  29.8412   C.3       1 RES1   0.0000
    27 H17     15.3928   3.5635  30.6816   H         1 RES1   0.0000
    28 H18     14.5863   3.9095  29.3844   H         1 RES1   0.0000
    29 C11     21.7587   0.1773  30.3409   C.3       1 RES1   0.0000
    30 H19     21.7516  -0.5961  29.7716   H         1 RES1   0.0000
    31 H20     21.3460  -0.0397  31.1799   H         1 RES1   0.0000
    32 H21     22.6642   0.4560  30.4912   H         1 RES1   0.0000
    33 C12     20.9864   1.3040  29.6709   C.3       1 RES1   0.0000
    34 C13     21.6616   1.6060  28.3234   C.2       1 RES1   0.0000
    35 H22     22.4150   1.1524  28.0172   H         1 RES1   0.0000
    36 C14     21.0291   2.5393  30.5890   C.3       1 RES1   0.0000
    37 H23     20.6450   2.3084  31.4470   H         1 RES1   0.0000
    38 H24     21.9561   2.7878  30.7353   H         1 RES1   0.0000
    39 C15     19.5319   0.8178  29.4784   C.3       1 RES1   0.0000
    40 H25     19.5373   0.0079  28.9467   H         1 RES1   0.0000
    41 H26     19.1538   0.6001  30.3461   H         1 RES1   0.0000
    42 C16     22.2515   8.8865  26.8537   C.3       1 RES1   0.0000
    43 H27     23.1452   8.6913  27.1452   H         1 RES1   0.0000
    44 H28     21.9080   9.6318  27.3508   H         1 RES1   0.0000
    45 H29     22.2605   9.1024  25.9180   H         1 RES1   0.0000
    46 C17     21.3489   7.6489  27.0869   C.3       1 RES1   0.0000
    47 C18     21.9506   6.4513  26.3577   C.3       1 RES1   0.0000
    48 H30     22.0143   6.6599  25.4114   H         1 RES1   0.0000
    49 H31     22.8506   6.3000  26.6867   H         1 RES1   0.0000
    50 C19     21.2849   7.4087  28.6158   C.3       1 RES1   0.0000
    51 H32     22.1822   7.2537  28.9473   H         1 RES1   0.0000
    52 H33     20.9446   8.2095  29.0443   H         1 RES1   0.0000
    53 C20     19.9607   7.9943  26.5354   C.3       1 RES1   0.0000
    54 H34     19.6357   8.7941  26.9777   H         1 RES1   0.0000
    55 H35     20.0399   8.1930  25.5885   H         1 RES1   0.0000
    56 Cl1     19.7546   6.1309  23.7064   Cl        1 RES1  -1.0000
    57 Cl2     18.1515   8.5489  29.3703   Cl        1 RES1  -1.0000
    58 Cl3     14.4392   4.0538  26.6246   Cl        1 RES1   0.0000
    59 Cl4     19.5158   0.1848  26.1285   Cl        1 RES1   0.0000
    60 Cl5     23.2080   4.6044  28.9694   Cl        1 RES1   0.0000
    61 Cl6     17.8471   2.6678  31.8624   Cl        1 RES1   0.0000
    62 Fe1     19.3462   5.2225  25.7539   Fe        1 RES1   0.0000
    63 Fe2     16.6409   4.2266  27.1765   Fe        1 RES1   0.0000
    64 Fe3     18.5052   6.4175  28.5614   Fe        1 RES1   0.0000
    65 Fe4     21.0215   4.4885  28.3626   Fe        1 RES1   0.0000
    66 Fe5     19.1716   2.2983  26.9563   Fe        1 RES1   0.0000
    67 Fe6     18.3564   3.5158  29.7860   Fe        1 RES1   0.0000
    68 O1      19.5319   3.3011  25.2723   O.3       1 RES1   0.0000
    69 O2      18.8378   4.3718  27.7681   O.3       1 RES1   0.0000
    70 O3      17.2269   2.4215  26.5328   O.3       1 RES1   0.0000
    71 O4      17.3525   4.9906  25.4696   O.3       1 RES1   0.0000
    72 O5      18.9942   6.9397  26.7097   O.3       1 RES1   0.0000
    73 O6      21.1878   5.2479  26.5176   O.3       1 RES1   0.0000
    74 O7      20.4582   6.3026  28.9823   O.3       1 RES1   0.0000
    75 O8      16.6347   6.0589  27.9562   O.3       1 RES1   0.0000
    76 O9      18.0703   5.4447  30.2499   O.3       1 RES1   0.0000
    77 O10     16.4926   3.4990  29.0360   O.3       1 RES1   0.0000
    78 O11     18.6886   1.8004  28.8328   O.3       1 RES1   0.0000
    79 O12     20.3208   3.6786  30.0459   O.3       1 RES1   0.0000
    80 O13     21.0291   2.6400  27.5889   O.3       1 RES1   0.0000
    81 C21     27.0651  11.4659  15.4518   C.3       2 RES2   0.0000
    82 H36     26.9127  12.3457  15.0980   H         2 RES2   0.0000
    83 H37     27.1803  10.8465  14.7260   H         2 RES2   0.0000
    84 H38     27.8551  11.4716  15.9954   H         2 RES2   0.0000
    85 C22     25.8546  11.0369  16.3070   C.3       2 RES2   0.0000
    86 C23     26.0370   9.5511  16.6364   C.3       2 RES2   0.0000
    87 H39     26.0780   9.0460  15.8092   H         2 RES2   0.0000
    88 H40     26.8823   9.4324  17.0976   H         2 RES2   0.0000
    89 C24     24.6014  11.2439  15.4888   C.3       2 RES2   0.0000
    90 H41     24.5513  12.1784  15.2313   H         2 RES2   0.0000
    91 H42     24.6728  10.7202  14.6754   H         2 RES2   0.0000
    92 C25     25.8570  11.8948  17.5619   C.3       2 RES2   0.0000
    93 H43     26.7007  11.7712  18.0236   H         2 RES2   0.0000
    94 H44     25.7960  12.8283  17.3043   H         2 RES2   0.0000
    95 C26     19.8541   5.5350  16.1293   C.3       2 RES2   0.0000
    96 H45     18.9985   5.8252  15.8019   H         2 RES2   0.0000
    97 H46     19.7280   4.8343  16.7733   H         2 RES2   0.0000
    98 H47     20.3812   5.2068  15.3978   H         2 RES2   0.0000
    99 C27     20.5766   6.7189  16.7919   C.3       2 RES2   0.0000
   100 C28     22.0075   6.2648  17.0621   C.3       2 RES2   0.0000
   101 H48     21.9853   5.4794  17.6313   H         2 RES2   0.0000
   102 H49     22.4178   6.0076  16.2213   H         2 RES2   0.0000
   103 C29     19.8422   7.0220  18.0987   C.3       2 RES2   0.0000
   104 H50     18.9200   7.2468  17.8971   H         2 RES2   0.0000
   105 H51     19.8364   6.2233  18.6502   H         2 RES2   0.0000
   106 C30     20.5174   7.9245  15.8553   C.3       2 RES2   0.0000
   107 H52     20.9207   7.6821  15.0071   H         2 RES2   0.0000
   108 H53     19.5877   8.1453  15.6871   H         2 RES2   0.0000
   109 C31     24.5659   8.0320  23.7256   C.3       2 RES2   0.0000
   110 H54     24.2909   7.1234  23.8676   H         2 RES2   0.0000
   111 H55     24.2159   8.5857  24.4277   H         2 RES2   0.0000
   112 H56     25.5239   8.0811  23.7262   H         2 RES2   0.0000
   113 C32     24.0234   8.5285  22.3596   C.3       2 RES2   0.0000
   114 C33     24.6322   7.6454  21.2860   C.3       2 RES2   0.0000
   115 H57     25.5986   7.7024  21.3431   H         2 RES2   0.0000
   116 H58     24.3797   6.7241  21.4567   H         2 RES2   0.0000
   117 C34     24.4617   9.9617  22.1856   C.3       2 RES2   0.0000
   118 H59     24.1113  10.4817  22.9269   H         2 RES2   0.0000
   119 H60     25.4287   9.9967  22.2349   H         2 RES2   0.0000
   120 C35     22.4978   8.4152  22.3892   C.3       2 RES2   0.0000
   121 H61     22.2532   7.4916  22.5544   H         2 RES2   0.0000
   122 H62     22.1577   8.9480  23.1259   H         2 RES2   0.0000
   123 C36     19.0842  14.3152  19.4055   C.3       2 RES2   0.0000
   124 H63     19.0599  14.5504  20.3376   H         2 RES2   0.0000
   125 H64     18.2021  14.0691  19.1169   H         2 RES2   0.0000
   126 H65     19.3917  15.0656  18.8946   H         2 RES2   0.0000
   127 C37     20.0365  13.1324  19.2056   C.3       2 RES2   0.0000
   128 C38     21.3915  13.5099  19.7534   C.3       2 RES2   0.0000
   129 H66     21.7084  14.2967  19.2829   H         2 RES2   0.0000
   130 H67     21.2905  13.7497  20.6887   H         2 RES2   0.0000
   131 C39     19.4419  11.9314  19.9682   C.3       2 RES2   0.0000
   132 H68     19.3593  12.1634  20.9062   H         2 RES2   0.0000
   133 H69     18.5500  11.7520  19.6288   H         2 RES2   0.0000
   134 C40     20.1099  12.8510  17.7137   C.3       2 RES2   0.0000
   135 H70     19.2151  12.6671  17.3867   H         2 RES2   0.0000
   136 H71     20.4312  13.6466  17.2618   H         2 RES2   0.0000
   137 Cl7     18.2387   9.9623  17.4216   Cl        2 RES2  -1.0000
   138 Cl8     23.7110   8.0244  14.6703   Cl        2 RES2  -1.0000
   139 Cl9     23.2606  14.0188  16.9418   Cl        2 RES2   0.0000
   140 Cl10    21.6043  11.7313  22.6624   Cl        2 RES2   0.0000
   141 Cl11    21.9551   5.7185  20.3976   Cl        2 RES2   0.0000
   142 Cl12    26.9905   9.6755  19.8701   Cl        2 RES2   0.0000
   143 Fe7     22.9162  11.9001  17.8181   Fe        2 RES2   0.0000
   144 Fe8     20.4347   9.9272  18.0420   Fe        2 RES2   0.0000
   145 Fe9     22.0608  10.7720  20.6456   Fe        2 RES2   0.0000
   146 Fe10    24.8035   9.7777  19.2792   Fe        2 RES2   0.0000
   147 Fe11    23.1438   8.9719  16.6783   Fe        2 RES2   0.0000
   148 Fe12    22.2815   7.8173  19.5324   Fe        2 RES2   0.0000
   149 O14     22.5926   9.8702  18.6466   O.3       2 RES2   0.0000
   150 O15     23.3838  10.8871  16.1600   O.3       2 RES2   0.0000
   151 O16     24.7957  11.5985  18.4593   O.3       2 RES2   0.0000
   152 O17     24.9876   9.0249  17.4497   O.3       2 RES2   0.0000
   153 O18     22.8200   7.2691  17.6878   O.3       2 RES2   0.0000
   154 O19     21.1878   9.0924  16.3736   O.3       2 RES2   0.0000
   155 O20     20.4297   8.1007  18.8502   O.3       2 RES2   0.0000
   156 O21     24.0400  10.5748  20.9573   O.3       2 RES2   0.0000
   157 O22     24.2224   8.0023  19.9593   O.3       2 RES2   0.0000
   158 O23     21.8772   8.8556  21.1650   O.3       2 RES2   0.0000
   159 O24     20.2331  10.7407  19.8497   O.3       2 RES2   0.0000
   160 O25     22.3889  12.4770  19.6487   O.3       2 RES2   0.0000
   161 O26     20.9746  11.7347  17.3739   O.3       2 RES2   0.0000
   162 C41     22.6613   3.9565  23.5220   C.3       3 RES3   0.0000
   163 H72     23.2619   4.6940  23.6577   H         3 RES3   0.0000
   164 H73     21.7572   4.2778  23.5158   H         3 RES3   0.0000
   165 H74     22.8581   3.5337  22.6840   H         3 RES3   0.0000
   166 C42     22.8342   2.9465  24.6548   C.3       3 RES3   0.0000
   167 H75     22.7964   3.4113  25.5060   H         3 RES3   0.0000
   168 H76     22.1022   2.3109  24.6301   H         3 RES3   0.0000
   169 C43     24.0779   0.9963  25.4618   C.3       3 RES3   0.0000
   170 H77     23.3545   0.4174  25.1772   H         3 RES3   0.0000
   171 H78     23.8855   1.2850  26.3685   H         3 RES3   0.0000
   172 C44     25.3690   0.1979  25.4692   C.3       3 RES3   0.0000
   173 H79     26.0445   0.6855  25.9465   H         3 RES3   0.0000
   174 H80     25.6592   0.0524  24.5651   H         3 RES3   0.0000
   175 H81     25.2209  -0.6475  25.8976   H         3 RES3   0.0000
   176 C45     25.3192   3.0678  24.7473   C.3       3 RES3   0.0000
   177 H82     25.2865   3.7954  24.1063   H         3 RES3   0.0000
   178 H83     26.1097   2.5404  24.5531   H         3 RES3   0.0000
   179 C46     25.4519   3.6591  26.1652   C.3       3 RES3   0.0000
   180 H84     25.6030   2.9508  26.7944   H         3 RES3   0.0000
   181 H85     24.6435   4.1243  26.3944   H         3 RES3   0.0000
   182 H86     26.1906   4.2716  26.1879   H         3 RES3   0.0000
   183 N1      24.1182   2.2133  24.5585   N.4       3 RES3   1.0000
   184 H87     24.1690   1.8707  23.6415   H         3 RES3   0.0000
   185 C47     22.4741   1.8862  12.9382   C.3       4 RES4   0.0000
   186 H88     22.6191   2.8030  13.1832   H         4 RES4   0.0000
   187 H89     22.2151   1.8395  12.0144   H         4 RES4   0.0000
   188 H90     23.2831   1.3874  13.0693   H         4 RES4   0.0000
   189 C48     21.4128   1.3223  13.7674   C.3       4 RES4   0.0000
   190 H91     20.7309   1.9933  13.9254   H         4 RES4   0.0000
   191 H92     21.7795   1.0584  14.6278   H         4 RES4   0.0000
   192 C49     21.8629  -1.5934  11.6314   C.3       4 RES4   0.0000
   193 H93     22.4455  -2.3560  11.6402   H         4 RES4   0.0000
   194 H94     22.2416  -0.9065  11.0788   H         4 RES4   0.0000
   195 H95     21.0055  -1.8485  11.2846   H         4 RES4   0.0000
   196 C50     21.7019  -1.0786  13.0197   C.3       4 RES4   0.0000
   197 H96     22.5737  -0.8424  13.3731   H         4 RES4   0.0000
   198 H97     21.3361  -1.7825  13.5781   H         4 RES4   0.0000
   199 C51     18.6744  -1.0386  13.5823   C.3       4 RES4   0.0000
   200 H98     17.8522  -0.9978  14.0797   H         4 RES4   0.0000
   201 H99     19.0123  -1.9363  13.5991   H         4 RES4   0.0000
   202 H100    18.5120  -0.7726  12.6755   H         4 RES4   0.0000
   203 C52     19.6125  -0.1750  14.1635   C.3       4 RES4   0.0000
   204 H101    19.9841  -0.5810  14.9618   H         4 RES4   0.0000
   205 H102    19.1813   0.6565  14.4181   H         4 RES4   0.0000
   206 N2      20.7993   0.1247  13.0937   N.4       4 RES4   1.0000
   207 H103    20.4382   0.3567  12.2115   H         4 RES4   0.0000
   208 C53      4.5602   6.8184  16.6957   C.3       5 RES5   0.0000
   209 H104     3.8324   6.9420  17.3066   H         5 RES5   0.0000
   210 H105     5.1094   7.6066  16.6861   H         5 RES5   0.0000
   211 H106     5.0876   6.0651  16.9707   H         5 RES5   0.0000
   212 C54      3.9940   6.5599  15.2482   C.3       5 RES5   0.0000
   213 H107     3.6181   7.3854  14.9050   H         5 RES5   0.0000
   214 H108     4.7235   6.3004  14.6652   H         5 RES5   0.0000
   215 C55      2.3358   5.4481  13.8489   C.3       5 RES5   0.0000
   216 H109     2.0261   6.3350  13.6103   H         5 RES5   0.0000
   217 H110     3.0199   5.1917  13.2109   H         5 RES5   0.0000
   218 C56      1.1987   4.4953  13.7452   C.3       5 RES5   0.0000
   219 H111     0.5960   4.6341  14.4802   H         5 RES5   0.0000
   220 H112     1.5312   3.5947  13.7713   H         5 RES5   0.0000
   221 H113     0.7336   4.6408  12.9186   H         5 RES5   0.0000
   222 C57      3.4539   4.1510  15.6739   C.3       5 RES5   0.0000
   223 H114     3.8053   4.2310  16.5762   H         5 RES5   0.0000
   224 H115     2.7136   3.5252  15.6992   H         5 RES5   0.0000
   225 C58      4.5365   3.6054  14.7670   C.3       5 RES5   0.0000
   226 H116     4.8458   2.7633  15.1081   H         5 RES5   0.0000
   227 H117     5.2685   4.2258  14.7340   H         5 RES5   0.0000
   228 H118     4.1808   3.4827  13.8842   H         5 RES5   0.0000
   229 N3       2.9493   5.5030  15.2186   N.4       5 RES5   1.0000
   230 H119     2.2428   5.7741  15.8399   H         5 RES5   0.0000
   231 C59     15.8577   9.3955  20.2532   C.3       6 RES6   0.0000
   232 H120    15.1764  10.0718  20.2544   H         6 RES6   0.0000
   233 H121    15.6362   8.7175  19.6123   H         6 RES6   0.0000
   234 H122    16.7014   9.7923  20.0221   H         6 RES6   0.0000
   235 C60     15.9548   8.7778  21.6266   C.3       6 RES6   0.0000
   236 H123    15.9130   9.4845  22.2899   H         6 RES6   0.0000
   237 H124    15.1849   8.2025  21.7631   H         6 RES6   0.0000
   238 C61     18.5512   9.7833  22.8853   C.3       6 RES6   0.0000
   239 H125    18.4574   9.3423  23.7321   H         6 RES6   0.0000
   240 H126    17.8361  10.4152  22.7726   H         6 RES6   0.0000
   241 H127    19.3922  10.2430  22.8532   H         6 RES6   0.0000
   242 C62     18.4943   8.7630  21.7784   C.3       6 RES6   0.0000
   243 H128    19.2473   8.1562  21.8577   H         6 RES6   0.0000
   244 H129    18.5546   9.2092  20.9202   H         6 RES6   0.0000
   245 C63     17.2909   6.7853  20.9307   C.3       6 RES6   0.0000
   246 H130    18.0401   6.2313  21.2009   H         6 RES6   0.0000
   247 H131    17.4634   7.0967  20.0276   H         6 RES6   0.0000
   248 C64     16.0235   5.9445  20.9344   C.3       6 RES6   0.0000
   249 H132    15.7605   5.7665  21.8386   H         6 RES6   0.0000
   250 H133    16.1893   5.1153  20.4785   H         6 RES6   0.0000
   251 H134    15.3228   6.4217  20.4833   H         6 RES6   0.0000
   252 N4      17.1985   7.9771  21.8561   N.4       6 RES6   1.0000
   253 H135    17.1389   7.6212  22.7661   H         6 RES6   0.0000
   254 O27     19.8778   0.7504  10.5468   O.3       7 RES7   0.0000
   255 H136    19.8533   0.3873   9.7776   H         7 RES7   0.0000
   256 H137    19.4209   1.4618  10.4601   H         7 RES7   0.0000
   257 O28     16.5755   7.5779  24.6030   O.3       8 RES8   0.0000
   258 H138    16.6611   8.1307  25.2448   H         8 RES8   0.0000
   259 H139    16.8269   6.8344  24.9313   H         8 RES8   0.0000
   260 O29     16.8076   9.7993  26.6427   O.3       9 RES9   0.0000
   261 H140    17.5424  10.0089  26.2709   H         9 RES9   0.0000
   262 H141    16.6850  10.2878  27.3265   H         9 RES9   0.0000
   263 O30      0.8149   3.8067  19.7720   O.3      10 RES10   0.0000
   264 H142     0.7133   3.2186  19.1657   H        10 RES10   0.0000
   265 H143     0.0904   4.2516  19.7585   H        10 RES10   0.0000
   266 O31      1.5777   5.8141  17.6174   O.3      11 RES11   0.0000
   267 H144     2.3680   6.0057  17.3731   H        11 RES11   0.0000
   268 H145     1.6589   5.5587  18.4237   H        11 RES11   0.0000
   269 O32      1.0921   1.7386  21.8376   O.3      12 RES12   0.0000
   270 H146     0.6947   1.0300  21.5880   H        12 RES12   0.0000
   271 H147     1.0805   2.2425  21.1549   H        12 RES12   0.0000
@<TRIPOS>BOND
     1     1     2    1
     2     3     1    1
     3     4     1    1
     4     5     1    1
     5     6     5    1
     6     7     6    1
     7     8     6    1
     8     9     5    1
     9    10     9    1
    10    11     9    1
    11    12     5    1
    12    13    12    1
    13    14    12    1
    14    15    16    1
    15    17    15    1
    16    18    15    1
    17    19    15    1
    18    20    19    1
    19    21    20    1
    20    22    20    1
    21    23    19    1
    22    24    23    1
    23    25    23    1
    24    26    19    1
    25    27    26    1
    26    28    26    1
    27    29    30    1
    28    31    29    1
    29    32    29    1
    30    33    29    1
    31    34    33    1
    32    35    34    1
    33    36    33    1
    34    37    36    1
    35    38    36    1
    36    39    33    1
    37    40    39    1
    38    41    39    1
    39    42    43    1
    40    44    42    1
    41    45    42    1
    42    46    42    1
    43    47    46    1
    44    48    47    1
    45    49    47    1
    46    50    46    1
    47    51    50    1
    48    52    50    1
    49    53    46    1
    50    54    53    1
    51    55    53    1
    52    56    62    1
    53    57    64    1
    54    58    63    1
    55    59    66    1
    56    60    65    1
    57    61    67    1
    58    62    68    1
    59    63    69    1
    60    64    69    1
    61    65    69    1
    62    66    68    1
    63    67    69    1
    64    68     6    1
    65    69    62    1
    66    70    12    1
    67    71     9    1
    68    72    53    1
    69    73    47    1
    70    74    50    1
    71    75    23    1
    72    76    20    1
    73    77    26    1
    74    78    39    1
    75    79    36    1
    76    80    34    1
    77    62    71    1
    78    62    72    1
    79    62    73    1
    80    63    70    1
    81    63    71    1
    82    63    75    1
    83    63    77    1
    84    64    72    1
    85    64    74    1
    86    64    75    1
    87    64    76    1
    88    65    73    1
    89    65    74    1
    90    65    79    1
    91    65    80    1
    92    66    69    1
    93    66    70    1
    94    66    78    1
    95    66    80    1
    96    67    76    1
    97    67    77    1
    98    67    78    1
    99    67    79    1
   100    81    82    1
   101    83    81    1
   102    84    81    1
   103    85    81    1
   104    86    85    1
   105    87    86    1
   106    88    86    1
   107    89    85    1
   108    90    89    1
   109    91    89    1
   110    92    85    1
   111    93    92    1
   112    94    92    1
   113    95    96    1
   114    97    95    1
   115    98    95    1
   116    99    95    1
   117   100    99    1
   118   101   100    1
   119   102   100    1
   120   103    99    1
   121   104   103    1
   122   105   103    1
   123   106    99    1
   124   107   106    1
   125   108   106    1
   126   109   110    1
   127   111   109    1
   128   112   109    1
   129   113   109    1
   130   114   113    1
   131   115   114    1
   132   116   114    1
   133   117   113    1
   134   118   117    1
   135   119   117    1
   136   120   113    1
   137   121   120    1
   138   122   120    1
   139   123   124    1
   140   125   123    1
   141   126   123    1
   142   127   123    1
   143   128   127    1
   144   129   128    1
   145   130   128    1
   146   131   127    1
   147   132   131    1
   148   133   131    1
   149   134   127    1
   150   135   134    1
   151   136   134    1
   152   137   144    1
   153   138   147    1
   154   139   143    1
   155   140   145    1
   156   141   148    1
   157   142   146    1
   158   143   149    1
   159   144   149    1
   160   145   149    1
   161   146   149    1
   162   147   149    1
   163   148   149    1
   164   150    89    1
   165   151    92    1
   166   152    86    1
   167   153   100    1
   168   154   106    1
   169   155   103    1
   170   156   117    1
   171   157   114    1
   172   158   120    1
   173   159   131    1
   174   160   128    1
   175   161   134    1
   176   143   150    1
   177   143   151    1
   178   143   160    1
   179   143   161    1
   180   144   154    1
   181   144   155    1
   182   144   159    1
   183   144   161    1
   184   145   156    1
   185   145   158    1
   186   145   159    1
   187   145   160    1
   188   146   151    1
   189   146   152    1
   190   146   156    1
   191   146   157    1
   192   147   150    1
   193   147   152    1
   194   147   153    1
   195   147   154    1
   196   148   153    1
   197   148   155    1
   198   148   157    1
   199   148   158    1
   200   162   163    1
   201   164   162    1
   202   165   162    1
   203   166   162    1
   204   167   166    1
   205   168   166    1
   206   169   170    1
   207   171   169    1
   208   172   169    1
   209   173   172    1
   210   174   172    1
   211   175   172    1
   212   176   177    1
   213   178   176    1
   214   179   176    1
   215   180   179    1
   216   181   179    1
   217   182   179    1
   218   183   166    1
   219   184   183    1
   220   169   183    1
   221   176   183    1
   222   185   186    1
   223   187   185    1
   224   188   185    1
   225   189   185    1
   226   190   189    1
   227   191   189    1
   228   192   193    1
   229   194   192    1
   230   195   192    1
   231   196   192    1
   232   197   196    1
   233   198   196    1
   234   199   200    1
   235   201   199    1
   236   202   199    1
   237   203   199    1
   238   204   203    1
   239   205   203    1
   240   206   189    1
   241   207   206    1
   242   196   206    1
   243   203   206    1
   244   208   209    1
   245   210   208    1
   246   211   208    1
   247   212   208    1
   248   213   212    1
   249   214   212    1
   250   215   216    1
   251   217   215    1
   252   218   215    1
   253   219   218    1
   254   220   218    1
   255   221   218    1
   256   222   223    1
   257   224   222    1
   258   225   222    1
   259   226   225    1
   260   227   225    1
   261   228   225    1
   262   229   212    1
   263   230   229    1
   264   215   229    1
   265   222   229    1
   266   231   232    1
   267   233   231    1
   268   234   231    1
   269   235   231    1
   270   236   235    1
   271   237   235    1
   272   238   239    1
   273   240   238    1
   274   241   238    1
   275   242   238    1
   276   243   242    1
   277   244   242    1
   278   245   246    1
   279   247   245    1
   280   248   245    1
   281   249   248    1
   282   250   248    1
   283   251   248    1
   284   252   235    1
   285   253   252    1
   286   242   252    1
   287   245   252    1
   288   254   255    1
   289   256   254    1
   290   257   258    1
   291   259   257    1
   292   260   261    1
   293   262   260    1
   294   263   264    1
   295   265   263    1
   296   266   267    1
   297   268   266    1
   298   269   270    1
   299   271   269    1
@<TRIPOS>SUBSTRUCTURE
     1 RES1        1 GROUP             0 ****  ****    0  
     2 RES2       81 GROUP             0 ****  ****    0  
     3 RES3      162 GROUP             0 ****  ****    0  
     4 RES4      185 GROUP             0 ****  ****    0  
     5 RES5      208 GROUP             0 ****  ****    0  
     6 RES6      231 GROUP             0 ****  ****    0  
     7 RES7      254 GROUP             0 ****  ****    0  
     8 RES8      257 GROUP             0 ****  ****    0  
     9 RES9      260 GROUP             0 ****  ****    0  
    10 RES10     263 GROUP             0 ****  ****    0  
    11 RES11     266 GROUP             0 ****  ****    0  
    12 RES12     269 GROUP             0 ****  ****    0  
@<TRIPOS>CRYSIN
   23.6894   11.4384   37.0192   90.0000   90.0000   90.0000    29     1
