@<TRIPOS>MOLECULE
WIYBEO
   293   316    17     0     0
SMALL
USER_CHARGES
****
Generated from the CSD

@<TRIPOS>ATOM
     1 Fe1     13.4100   8.0389  23.0658   Fe        1 RES1   0.0000
     2 Fe2     10.5365   7.1921  21.9581   Fe        1 RES1   0.0000
     3 Fe3     11.0045  10.0839  23.2004   Fe        1 RES1   0.0000
     4 Fe4      9.2527   7.9348  24.7666   Fe        1 RES1   0.0000
     5 Fe5     12.1090   8.7457  25.8732   Fe        1 RES1   0.0000
     6 Fe6     11.6749   5.8810  24.6363   Fe        1 RES1   0.0000
     7 Cl1     15.5120   8.0203  22.1872   Cl        1 RES1  -1.0000
     8 Cl2      9.6981   6.4151  19.9925   Cl        1 RES1  -1.0000
     9 Cl3     12.0152   3.7416  25.4489   Cl        1 RES1   0.0000
    10 Cl4      7.1371   7.9048  25.6445   Cl        1 RES1   0.0000
    11 Cl5     12.9198   9.5336  27.8676   Cl        1 RES1   0.0000
    12 Cl6     10.6443  12.2414  22.4801   Cl        1 RES1   0.0000
    13 O1      12.8701   9.8599  22.5304   O.3       1 RES1   0.0000
    14 O2      11.3493   7.9855  23.9391   O.3       1 RES1   0.0000
    15 O3      10.3674   9.1378  21.5734   O.3       1 RES1   0.0000
    16 O4      12.4567   7.3355  21.4615   O.3       1 RES1   0.0000
    17 O5      10.9457   5.4490  22.8433   O.3       1 RES1   0.0000
    18 O6       8.8171   7.2237  22.9744   O.3       1 RES1   0.0000
    19 O7       9.8088   6.0762  25.2840   O.3       1 RES1   0.0000
    20 O8      13.4607   6.1724  23.8061   O.3       1 RES1   0.0000
    21 O9      12.3558   6.8068  26.2633   O.3       1 RES1   0.0000
    22 O10     13.8520   8.7100  24.9000   O.3       1 RES1   0.0000
    23 O11     11.7332  10.5244  25.0211   O.3       1 RES1   0.0000
    24 O12     10.1878   8.6415  26.3859   O.3       1 RES1   0.0000
    25 O13      9.2281   9.8107  24.0629   O.3       1 RES1   0.0000
    26 C1      12.6043  11.3931  18.4032   C.3       1 RES1   0.0000
    27 H1      12.8742  11.5680  17.4994   H         1 RES1   0.0000
    28 H2      13.1494  11.9075  19.0049   H         1 RES1   0.0000
    29 H3      11.6839  11.6394  18.5170   H         1 RES1   0.0000
    30 C2      12.7741   9.9200  18.7068   C.3       1 RES1   0.0000
    31 H4      13.7059   9.6889  18.5653   H         1 RES1   0.0000
    32 H5      12.2528   9.4185  18.0593   H         1 RES1   0.0000
    33 C3      12.3656   9.4394  20.1366   C.3       1 RES1   0.0000
    34 C4      13.1285  10.2588  21.1590   C.3       1 RES1   0.0000
    35 H6      14.0796  10.1737  20.9831   H         1 RES1   0.0000
    36 H7      12.8919  11.1928  21.0540   H         1 RES1   0.0000
    37 C5      10.8547   9.6160  20.3019   C.3       1 RES1   0.0000
    38 H8      10.6363  10.5560  20.2106   H         1 RES1   0.0000
    39 H9      10.4029   9.1366  19.5887   H         1 RES1   0.0000
    40 C6      12.7717   7.9639  20.1981   C.3       1 RES1   0.0000
    41 H10     12.3196   7.4826  19.4880   H         1 RES1   0.0000
    42 H11     13.7259   7.8928  20.0435   H         1 RES1   0.0000
    43 C7      16.2070   4.7017  26.9782   C.3       1 RES1   0.0000
    44 H12     16.2548   4.1382  26.2031   H         1 RES1   0.0000
    45 H13     15.4313   4.4717  27.4946   H         1 RES1   0.0000
    46 H14     16.9954   4.5753  27.5138   H         1 RES1   0.0000
    47 C8      16.1184   6.1531  26.5477   C.3       1 RES1   0.0000
    48 H15     16.8537   6.3334  25.9416   H         1 RES1   0.0000
    49 H16     16.2454   6.7094  27.3306   H         1 RES1   0.0000
    50 C9      14.7969   6.6001  25.8482   C.3       1 RES1   0.0000
    51 C10     13.6231   6.3874  26.8091   C.3       1 RES1   0.0000
    52 H17     13.5722   5.4467  27.0399   H         1 RES1   0.0000
    53 H18     13.7941   6.8827  27.6265   H         1 RES1   0.0000
    54 C11     14.9618   8.0840  25.5561   C.3       1 RES1   0.0000
    55 H19     15.1228   8.5445  26.3945   H         1 RES1   0.0000
    56 H20     15.7508   8.2015  25.0035   H         1 RES1   0.0000
    57 C12     14.6271   5.7975  24.5683   C.3       1 RES1   0.0000
    58 H21     15.4152   5.9187  24.0150   H         1 RES1   0.0000
    59 H22     14.5660   4.8565  24.7929   H         1 RES1   0.0000
    60 C13      6.3612   3.6635  24.0379   C.3       1 RES1   0.0000
    61 H23      5.8802   4.4535  23.7800   H         1 RES1   0.0000
    62 H24      6.5238   3.6840  24.9847   H         1 RES1   0.0000
    63 H25      5.8405   2.8869  23.8206   H         1 RES1   0.0000
    64 C14      7.6802   3.6107  23.2999   C.3       1 RES1   0.0000
    65 H26      7.4928   3.5340  22.3521   H         1 RES1   0.0000
    66 H27      8.1459   2.8048  23.5708   H         1 RES1   0.0000
    67 C15      8.6326   4.8158  23.5113   C.3       1 RES1   0.0000
    68 C16      8.8713   5.0177  25.0026   C.3       1 RES1   0.0000
    69 H28      8.0269   5.2220  25.4316   H         1 RES1   0.0000
    70 H29      9.2059   4.1907  25.3816   H         1 RES1   0.0000
    71 C17      7.9903   6.0438  22.8848   C.3       1 RES1   0.0000
    72 H30      7.8038   5.8594  21.9521   H         1 RES1   0.0000
    73 H31      7.1457   6.2170  23.3286   H         1 RES1   0.0000
    74 C18      9.9196   4.4433  22.7772   C.3       1 RES1   0.0000
    75 H32     10.2664   3.6198  23.1548   H         1 RES1   0.0000
    76 H33      9.7093   4.2737  21.8456   H         1 RES1   0.0000
    77 C19      8.8590  13.5679  26.4786   C.3       1 RES1   0.0000
    78 H34      8.3660  13.5446  25.6534   H         1 RES1   0.0000
    79 H35      9.7399  13.9123  26.3129   H         1 RES1   0.0000
    80 H36      8.4055  14.1353  27.1049   H         1 RES1   0.0000
    81 C20      8.9623  12.1489  27.0513   C.3       1 RES1   0.0000
    82 H37      9.4777  12.1964  27.8726   H         1 RES1   0.0000
    83 H38      8.0688  11.8577  27.2911   H         1 RES1   0.0000
    84 C21      9.5898  11.0627  26.1672   C.3       1 RES1   0.0000
    85 C22     11.0245  11.5108  25.7906   C.3       1 RES1   0.0000
    86 H39     10.9744  12.3343  25.2784   H         1 RES1   0.0000
    87 H40     11.5206  11.6965  26.6019   H         1 RES1   0.0000
    88 C23      9.6267   9.7986  27.0167   C.3       1 RES1   0.0000
    89 H41     10.1364   9.9857  27.8212   H         1 RES1   0.0000
    90 H42      8.7202   9.5871  27.2909   H         1 RES1   0.0000
    91 C24      8.7359  10.8548  24.9065   C.3       1 RES1   0.0000
    92 H43      7.8284  10.6424  25.1756   H         1 RES1   0.0000
    93 H44      8.7107  11.6826  24.4041   H         1 RES1   0.0000
    94 Fe7     18.4719   9.3083  12.3207   Fe        2 RES2   0.0000
    95 Fe8     21.2937  10.1626  13.4395   Fe        2 RES2   0.0000
    96 Fe9     18.8405  12.1731  13.5948   Fe        2 RES2   0.0000
    97 Fe10    19.9887  10.8460  16.2530   Fe        2 RES2   0.0000
    98 Fe11    17.1293   9.9595  15.1276   Fe        2 RES2   0.0000
    99 Fe12    19.5699   7.9603  14.9847   Fe        2 RES2   0.0000
   100 Cl7     23.4058  10.2710  12.5847   Cl        2 RES2  -1.0000
   101 Cl8     17.7093   8.5389  10.2862   Cl        2 RES2  -1.0000
   102 Cl9     15.0238   9.9272  15.9867   Cl        2 RES2   0.0000
   103 Cl10    20.8126  11.6070  18.2329   Cl        2 RES2   0.0000
   104 Cl11    19.9368   5.7987  15.6777   Cl        2 RES2   0.0000
   105 Cl12    18.4704  14.3233  12.8395   Cl        2 RES2   0.0000
   106 O14     19.2165  10.0702  14.2644   O.3       2 RES2   0.0000
   107 O15     21.7118  10.8500  15.2533   O.3       2 RES2   0.0000
   108 O16     20.7127  12.0095  12.9479   O.3       2 RES2   0.0000
   109 O17     19.5709  12.6031  15.4036   O.3       2 RES2   0.0000
   110 O18     20.3953   9.4334  11.8298   O.3       2 RES2   0.0000
   111 O19     21.3599   8.2919  14.1548   O.3       2 RES2   0.0000
   112 O20     18.8843   7.5397  13.1628   O.3       2 RES2   0.0000
   113 O21     17.7031   8.1393  15.6619   O.3       2 RES2   0.0000
   114 O22     20.1713   8.8999  16.6232   O.3       2 RES2   0.0000
   115 O23     18.0698  10.6674  16.7385   O.3       2 RES2   0.0000
   116 O24     17.0609  11.8112  14.4004   O.3       2 RES2   0.0000
   117 O25     18.1830  11.2393  11.9490   O.3       2 RES2   0.0000
   118 O26     16.7040   9.2964  13.2704   O.3       2 RES2   0.0000
   119 C25     21.8644   4.5935  11.7614   C.3       2 RES2   0.0000
   120 H45     22.3305   4.0254  11.1457   H         2 RES2   0.0000
   121 H46     20.9971   4.2234  11.9459   H         2 RES2   0.0000
   122 H47     22.3637   4.6559  12.5805   H         2 RES2   0.0000
   123 C26     21.7094   5.9465  11.1733   C.3       2 RES2   0.0000
   124 H48     21.2001   5.8590  10.3516   H         2 RES2   0.0000
   125 H49     22.5921   6.2694  10.9289   H         2 RES2   0.0000
   126 C27     21.0228   7.0387  12.0497   C.3       2 RES2   0.0000
   127 C28     19.6201   6.5833  12.3649   C.3       2 RES2   0.0000
   128 H50     19.1421   6.4318  11.5346   H         2 RES2   0.0000
   129 H51     19.6592   5.7391  12.8422   H         2 RES2   0.0000
   130 C29     21.8767   7.2562  13.2835   C.3       2 RES2   0.0000
   131 H52     21.9324   6.4243  13.7812   H         2 RES2   0.0000
   132 H53     22.7763   7.4949  13.0078   H         2 RES2   0.0000
   133 C30     21.0056   8.3075  11.1695   C.3       2 RES2   0.0000
   134 H54     21.9171   8.5382  10.9275   H         2 RES2   0.0000
   135 H55     20.5207   8.1187  10.3513   H         2 RES2   0.0000
   136 C31     24.1283  14.4919  14.1752   C.3       2 RES2   0.0000
   137 H56     23.9458  14.5078  13.2321   H         2 RES2   0.0000
   138 H57     24.6232  13.6980  14.3909   H         2 RES2   0.0000
   139 H58     24.6428  15.2653  14.4144   H         2 RES2   0.0000
   140 C32     22.8143  14.4967  14.9478   C.3       2 RES2   0.0000
   141 H59     22.3281  15.3002  14.7043   H         2 RES2   0.0000
   142 H60     23.0222  14.5596  15.8912   H         2 RES2   0.0000
   143 C33     21.8644  13.2831  14.7440   C.3       2 RES2   0.0000
   144 C34     21.6085  13.0933  13.2297   C.3       2 RES2   0.0000
   145 H61     21.2369  13.9124  12.8679   H         2 RES2   0.0000
   146 H62     22.4539  12.9282  12.7856   H         2 RES2   0.0000
   147 C35     22.5239  12.0299  15.3475   C.3       2 RES2   0.0000
   148 H63     23.3632  11.8686  14.8892   H         2 RES2   0.0000
   149 H64     22.7231  12.1997  16.2800   H         2 RES2   0.0000
   150 C36     20.5798  13.6424  15.4628   C.3       2 RES2   0.0000
   151 H65     20.7812  13.8313  16.3912   H         2 RES2   0.0000
   152 H66     20.2170  14.4522  15.0683   H         2 RES2   0.0000
   153 C37     14.3195  13.3252  11.3463   C.3       2 RES2   0.0000
   154 H67     15.0324  13.5777  10.7544   H         2 RES2   0.0000
   155 H68     14.3816  13.8354  12.1571   H         2 RES2   0.0000
   156 H69     13.4758  13.4979  10.9229   H         2 RES2   0.0000
   157 C38     14.4302  11.8569  11.6653   C.3       2 RES2   0.0000
   158 H70     14.3261  11.3568  10.8424   H         2 RES2   0.0000
   159 H71     13.6911  11.6161  12.2475   H         2 RES2   0.0000
   160 C39     15.7419  11.4099  12.3418   C.3       2 RES2   0.0000
   161 C40     15.8920  12.2029  13.6717   C.3       2 RES2   0.0000
   162 H72     15.9430  13.1511  13.4734   H         2 RES2   0.0000
   163 H73     15.1079  12.0546  14.2221   H         2 RES2   0.0000
   164 C41     16.9132  11.6622  11.4116   C.3       2 RES2   0.0000
   165 H74     16.7539  11.1942  10.5772   H         2 RES2   0.0000
   166 H75     16.9559  12.6105  11.2146   H         2 RES2   0.0000
   167 C42     15.5598   9.9116  12.6262   C.3       2 RES2   0.0000
   168 H76     14.7798   9.7919  13.1890   H         2 RES2   0.0000
   169 H77     15.3895   9.4537  11.7864   H         2 RES2   0.0000
   170 C43     17.9640   6.5977  19.7830   C.3       2 RES2   0.0000
   171 H78     17.6714   6.4203  20.6806   H         2 RES2   0.0000
   172 H79     17.4541   6.0654  19.1691   H         2 RES2   0.0000
   173 H80     18.8954   6.3756  19.7021   H         2 RES2   0.0000
   174 C44     17.7647   8.0744  19.4678   C.3       2 RES2   0.0000
   175 H81     18.2613   8.5912  20.1192   H         2 RES2   0.0000
   176 H82     16.8252   8.2822  19.5882   H         2 RES2   0.0000
   177 C45     18.1781   8.5502  18.0726   C.3       2 RES2   0.0000
   178 C46     19.6964   8.4169  17.9035   C.3       2 RES2   0.0000
   179 H83     20.1362   8.9143  18.6125   H         2 RES2   0.0000
   180 H84     19.9428   7.4840  18.0020   H         2 RES2   0.0000
   181 C47     17.4521   7.7067  16.9849   C.3       2 RES2   0.0000
   182 H85     17.7319   6.7823  17.0670   H         2 RES2   0.0000
   183 H86     16.4967   7.7418  17.1458   H         2 RES2   0.0000
   184 C48     17.7647  10.0125  17.9996   C.3       2 RES2   0.0000
   185 H87     16.8093  10.0727  18.1574   H         2 RES2   0.0000
   186 H88     18.2095  10.4955  18.7142   H         2 RES2   0.0000
   187 O27     14.5828  -0.4362  25.2947   O.3       3 RES3   0.0000
   188 H89     14.5114   0.3027  24.8798   H         3 RES3   0.0000
   189 H90     13.8081  -0.7817  25.2488   H         3 RES3   0.0000
   190 O28     16.3940   1.1859  19.9713   O.3       4 RES4   0.0000
   191 O29     14.1792   4.8459  18.2033   O.3       5 RES5   0.0000
   192 O30     14.1694  14.1783  21.0614   O.3       6 RES6   0.0000
   193 O31     13.9209   4.8951  21.0552   O.3       7 RES7   0.0000
   194 O32     16.6917  13.2086  17.1040   O.3       8 RES8   0.0000
   195 O33     16.4309  15.9734  16.9926   O.3       9 RES9   0.0000
   196 O34     17.1125  16.7808  14.3981   O.3      10 RES10   0.0000
   197 O35     15.6902   6.6554  12.8053   O.3      11 RES11   0.0000
   198 H91     16.0573   7.4165  12.8987   H        11 RES11   0.0000
   199 H92     16.3339   6.1265  12.6419   H        11 RES11   0.0000
   200 O36     13.3426  13.4441  23.5851   O.3      12 RES12   0.0000
   201 O37     16.0790  -0.8867  23.0155   O.3      13 RES13   0.0000
   202 N1      18.6383   2.1135  21.2474   N.4      14 RES14   1.0000
   203 H93     17.8465   1.8033  20.7603   H        14 RES14   0.0000
   204 C49     19.6546   0.9925  21.3051   C.3      14 RES14   0.0000
   205 H94     20.0570   0.8913  20.4266   H        14 RES14   0.0000
   206 H95     20.3600   1.2422  21.9223   H        14 RES14   0.0000
   207 C50     19.1033  -0.2884  21.7163   C.3      14 RES14   0.0000
   208 H96     18.2675  -0.4362  21.2676   H        14 RES14   0.0000
   209 H97     18.9606  -0.2849  22.6656   H        14 RES14   0.0000
   210 H98     19.7173  -0.9903  21.4878   H        14 RES14   0.0000
   211 C51     18.2322   2.5209  22.6388   C.3      14 RES14   0.0000
   212 H99     19.0022   2.9092  23.0833   H        14 RES14   0.0000
   213 H100    17.9791   1.7255  23.1316   H        14 RES14   0.0000
   214 C52     17.0953   3.5061  22.6926   C.3      14 RES14   0.0000
   215 H101    17.3881   4.3528  22.3486   H        14 RES14   0.0000
   216 H102    16.8101   3.6136  23.6044   H        14 RES14   0.0000
   217 H103    16.3635   3.1806  22.1654   H        14 RES14   0.0000
   218 C53     19.2535   3.2742  20.5018   C.3      14 RES14   0.0000
   219 H104    18.7277   4.0699  20.6745   H        14 RES14   0.0000
   220 H105    20.1458   3.4294  20.8478   H        14 RES14   0.0000
   221 C54     19.3445   3.0736  19.0220   C.3      14 RES14   0.0000
   222 H106    19.7380   3.8502  18.6192   H        14 RES14   0.0000
   223 H107    18.4639   2.9380  18.6650   H        14 RES14   0.0000
   224 H108    19.8877   2.3051  18.8376   H        14 RES14   0.0000
   225 N2      15.7394  -0.0433  27.7700   N.4      15 RES15   1.0000
   226 H109    15.1296  -0.2660  27.0344   H        15 RES15   0.0000
   227 C55     17.5530   1.6245  28.3427   C.3      15 RES15   0.0000
   228 H110    18.1269   2.2841  27.9481   H        15 RES15   0.0000
   229 H111    18.0801   0.8790  28.6416   H        15 RES15   0.0000
   230 H112    17.0927   2.0095  29.0938   H        15 RES15   0.0000
   231 C56     16.5416   1.1511  27.3165   C.3      15 RES15   0.0000
   232 H113    15.9337   1.8804  27.1187   H        15 RES15   0.0000
   233 H114    17.0091   0.9245  26.4993   H        15 RES15   0.0000
   234 C57     16.5982  -1.2592  28.0045   C.3      15 RES15   0.0000
   235 H115    17.1483  -1.1060  28.7869   H        15 RES15   0.0000
   236 H116    16.0220  -2.0162  28.1919   H        15 RES15   0.0000
   237 C58     17.4940  -1.6137  26.8475   C.3      15 RES15   0.0000
   238 H117    16.9850  -1.6075  26.0352   H        15 RES15   0.0000
   239 H118    17.8648  -2.4880  26.9882   H        15 RES15   0.0000
   240 H119    18.2047  -0.9710  26.7867   H        15 RES15   0.0000
   241 C59     14.8855   0.1959  28.9807   C.3      15 RES15   0.0000
   242 H120    15.4482   0.4856  29.7158   H        15 RES15   0.0000
   243 H121    14.4586  -0.6350  29.2401   H        15 RES15   0.0000
   244 C60     13.8323   1.2352  28.7232   C.3      15 RES15   0.0000
   245 H122    13.3987   1.0516  27.8868   H        15 RES15   0.0000
   246 H123    14.2411   2.1035  28.6877   H        15 RES15   0.0000
   247 H124    13.1840   1.2159  29.4310   H        15 RES15   0.0000
   248 N3      11.9030   3.8402  16.9772   N.4      16 RES16   1.0000
   249 H125    12.7091   4.1468  17.4462   H        16 RES16   0.0000
   250 C61     13.4410   2.4415  15.5435   C.3      16 RES16   0.0000
   251 H126    13.7721   2.3645  14.6466   H        16 RES16   0.0000
   252 H127    13.1299   1.5847  15.8455   H        16 RES16   0.0000
   253 H128    14.1479   2.7448  16.1203   H        16 RES16   0.0000
   254 C62     12.2893   3.4448  15.5781   C.3      16 RES16   0.0000
   255 H129    12.5462   4.2388  15.0859   H        16 RES16   0.0000
   256 H130    11.5185   3.0562  15.1373   H        16 RES16   0.0000
   257 C63     11.4600   6.2685  16.4698   C.3      16 RES16   0.0000
   258 H131    11.7926   6.1702  15.5748   H        16 RES16   0.0000
   259 H132    12.1761   6.5320  17.0511   H        16 RES16   0.0000
   260 H133    10.7728   6.9394  16.4835   H        16 RES16   0.0000
   261 C64     10.9064   4.9984  16.9234   C.3      16 RES16   0.0000
   262 H134    10.1785   4.7503  16.3335   H        16 RES16   0.0000
   263 H135    10.5330   5.1251  17.8106   H        16 RES16   0.0000
   264 C65     11.3419   2.6831  17.7267   C.3      16 RES16   0.0000
   265 H136    11.9218   1.9169  17.5975   H        16 RES16   0.0000
   266 H137    10.4747   2.4612  17.3485   H        16 RES16   0.0000
   267 C66     11.1770   2.9282  19.2065   C.3      16 RES16   0.0000
   268 H138    10.4753   3.5666  19.3518   H        16 RES16   0.0000
   269 H139    11.9994   3.2701  19.5682   H        16 RES16   0.0000
   270 H140    10.9551   2.1035  19.6463   H        16 RES16   0.0000
   271 N4      14.8732   5.9657  10.1932   N.4      17 RES17   1.0000
   272 H141    15.1581   6.2450  11.0869   H        17 RES17   0.0000
   273 C67     16.9009   4.4890  10.3201   C.3      17 RES17   0.0000
   274 H142    17.7193   4.2695   9.8720   H        17 RES17   0.0000
   275 H143    16.3935   3.6869  10.4723   H        17 RES17   0.0000
   276 H144    17.0977   4.9052  11.1632   H        17 RES17   0.0000
   277 C68     16.0839   5.4502   9.4553   C.3      17 RES17   0.0000
   278 H145    16.6436   6.1992   9.1939   H        17 RES17   0.0000
   279 H146    15.8000   4.9937   8.6484   H        17 RES17   0.0000
   280 C69     14.3564   7.1757   9.4706   C.3      17 RES17   0.0000
   281 H147    14.0977   6.9199   8.5736   H        17 RES17   0.0000
   282 H148    15.0745   7.8254   9.3983   H        17 RES17   0.0000
   283 C70     13.1752   7.8293  10.1586   C.3      17 RES17   0.0000
   284 H149    12.8942   8.5948   9.6507   H        17 RES17   0.0000
   285 H150    13.4283   8.1049  11.0407   H        17 RES17   0.0000
   286 H151    12.4508   7.2005  10.2136   H        17 RES17   0.0000
   287 C71     13.8323   4.8879  10.3508   C.3      17 RES17   0.0000
   288 H152    13.1154   5.0486   9.7192   H        17 RES17   0.0000
   289 H153    14.2334   4.0321  10.1313   H        17 RES17   0.0000
   290 C72     13.2540   4.8074  11.7191   C.3      17 RES17   0.0000
   291 H154    12.6235   4.0852  11.7596   H        17 RES17   0.0000
   292 H155    12.8112   5.6323  11.9296   H        17 RES17   0.0000
   293 H156    13.9579   4.6521  12.3560   H        17 RES17   0.0000
@<TRIPOS>BOND
     1     1     7    1
     2     2     8    1
     3     3    12    1
     4     4    10    1
     5     5    11    1
     6     6     9    1
     7    13     1    1
     8    14     1    1
     9    15     2    1
    10    16     1    1
    11    17     2    1
    12    18     2    1
    13    19     4    1
    14    20     1    1
    15    21     5    1
    16    22     1    1
    17    23     3    1
    18    24     4    1
    19    25     3    1
    20    26    27    1
    21    28    26    1
    22    29    26    1
    23    30    26    1
    24    31    30    1
    25    32    30    1
    26    33    30    1
    27    34    13    1
    28    35    34    1
    29    36    34    1
    30    37    15    1
    31    38    37    1
    32    39    37    1
    33    40    16    1
    34    41    40    1
    35    42    40    1
    36    43    44    1
    37    45    43    1
    38    46    43    1
    39    47    43    1
    40    48    47    1
    41    49    47    1
    42    50    47    1
    43    51    21    1
    44    52    51    1
    45    53    51    1
    46    54    22    1
    47    55    54    1
    48    56    54    1
    49    57    20    1
    50    58    57    1
    51    59    57    1
    52    60    61    1
    53    62    60    1
    54    63    60    1
    55    64    60    1
    56    65    64    1
    57    66    64    1
    58    67    64    1
    59    68    19    1
    60    69    68    1
    61    70    68    1
    62    71    18    1
    63    72    71    1
    64    73    71    1
    65    74    17    1
    66    75    74    1
    67    76    74    1
    68    77    78    1
    69    79    77    1
    70    80    77    1
    71    81    77    1
    72    82    81    1
    73    83    81    1
    74    84    81    1
    75    85    23    1
    76    86    85    1
    77    87    85    1
    78    88    24    1
    79    89    88    1
    80    90    88    1
    81    91    25    1
    82    92    91    1
    83    93    91    1
    84     2    14    1
    85     2    16    1
    86     3    13    1
    87     3    14    1
    88     3    15    1
    89     4    14    1
    90     4    18    1
    91     4    25    1
    92     5    14    1
    93     5    22    1
    94     5    23    1
    95     5    24    1
    96     6    14    1
    97     6    17    1
    98     6    19    1
    99     6    20    1
   100     6    21    1
   101    33    34    1
   102    33    37    1
   103    33    40    1
   104    50    51    1
   105    50    54    1
   106    50    57    1
   107    67    68    1
   108    67    71    1
   109    67    74    1
   110    84    85    1
   111    84    88    1
   112    84    91    1
   113    94   101    1
   114    95   100    1
   115    96   105    1
   116    97   103    1
   117    98   102    1
   118    99   104    1
   119   106    94    1
   120   107    95    1
   121   108    95    1
   122   109    96    1
   123   110    94    1
   124   111    95    1
   125   112    94    1
   126   113    98    1
   127   114    97    1
   128   115    97    1
   129   116    96    1
   130   117    94    1
   131   118    94    1
   132   119   120    1
   133   121   119    1
   134   122   119    1
   135   123   119    1
   136   124   123    1
   137   125   123    1
   138   126   123    1
   139   127   112    1
   140   128   127    1
   141   129   127    1
   142   130   111    1
   143   131   130    1
   144   132   130    1
   145   133   110    1
   146   134   133    1
   147   135   133    1
   148   136   137    1
   149   138   136    1
   150   139   136    1
   151   140   136    1
   152   141   140    1
   153   142   140    1
   154   143   140    1
   155   144   108    1
   156   145   144    1
   157   146   144    1
   158   147   107    1
   159   148   147    1
   160   149   147    1
   161   150   109    1
   162   151   150    1
   163   152   150    1
   164   153   154    1
   165   155   153    1
   166   156   153    1
   167   157   153    1
   168   158   157    1
   169   159   157    1
   170   160   157    1
   171   161   116    1
   172   162   161    1
   173   163   161    1
   174   164   117    1
   175   165   164    1
   176   166   164    1
   177   167   118    1
   178   168   167    1
   179   169   167    1
   180   170   171    1
   181   172   170    1
   182   173   170    1
   183   174   170    1
   184   175   174    1
   185   176   174    1
   186   177   174    1
   187   178   114    1
   188   179   178    1
   189   180   178    1
   190   181   113    1
   191   182   181    1
   192   183   181    1
   193   184   115    1
   194   185   184    1
   195   186   184    1
   196    95   106    1
   197    95   110    1
   198    96   106    1
   199    96   108    1
   200    96   117    1
   201    97   106    1
   202    97   107    1
   203    97   109    1
   204    98   106    1
   205    98   115    1
   206    98   116    1
   207    98   118    1
   208    99   106    1
   209    99   111    1
   210    99   112    1
   211    99   113    1
   212    99   114    1
   213   126   127    1
   214   126   130    1
   215   126   133    1
   216   143   144    1
   217   143   147    1
   218   143   150    1
   219   160   161    1
   220   160   164    1
   221   160   167    1
   222   177   178    1
   223   177   181    1
   224   177   184    1
   225   187   188    1
   226   189   187    1
   227   197   198    1
   228   199   197    1
   229   202   203    1
   230   204   202    1
   231   205   204    1
   232   206   204    1
   233   207   204    1
   234   208   207    1
   235   209   207    1
   236   210   207    1
   237   211   202    1
   238   212   211    1
   239   213   211    1
   240   214   211    1
   241   215   214    1
   242   216   214    1
   243   217   214    1
   244   218   202    1
   245   219   218    1
   246   220   218    1
   247   221   218    1
   248   222   221    1
   249   223   221    1
   250   224   221    1
   251   225   226    1
   252   227   228    1
   253   229   227    1
   254   230   227    1
   255   231   225    1
   256   232   231    1
   257   233   231    1
   258   234   225    1
   259   235   234    1
   260   236   234    1
   261   237   234    1
   262   238   237    1
   263   239   237    1
   264   240   237    1
   265   241   225    1
   266   242   241    1
   267   243   241    1
   268   244   241    1
   269   245   244    1
   270   246   244    1
   271   247   244    1
   272   227   231    1
   273   248   249    1
   274   250   251    1
   275   252   250    1
   276   253   250    1
   277   254   248    1
   278   255   254    1
   279   256   254    1
   280   257   258    1
   281   259   257    1
   282   260   257    1
   283   261   248    1
   284   262   261    1
   285   263   261    1
   286   264   248    1
   287   265   264    1
   288   266   264    1
   289   267   264    1
   290   268   267    1
   291   269   267    1
   292   270   267    1
   293   250   254    1
   294   257   261    1
   295   271   272    1
   296   273   274    1
   297   275   273    1
   298   276   273    1
   299   277   271    1
   300   278   277    1
   301   279   277    1
   302   280   271    1
   303   281   280    1
   304   282   280    1
   305   283   280    1
   306   284   283    1
   307   285   283    1
   308   286   283    1
   309   287   271    1
   310   288   287    1
   311   289   287    1
   312   290   287    1
   313   291   290    1
   314   292   290    1
   315   293   290    1
   316   273   277    1
@<TRIPOS>SUBSTRUCTURE
     1 RES1        1 GROUP             0 ****  ****    0  
     2 RES2       94 GROUP             0 ****  ****    0  
     3 RES3      187 GROUP             0 ****  ****    0  
     4 RES4      190 GROUP             0 ****  ****    0  
     5 RES5      191 GROUP             0 ****  ****    0  
     6 RES6      192 GROUP             0 ****  ****    0  
     7 RES7      193 GROUP             0 ****  ****    0  
     8 RES8      194 GROUP             0 ****  ****    0  
     9 RES9      195 GROUP             0 ****  ****    0  
    10 RES10     196 GROUP             0 ****  ****    0  
    11 RES11     197 GROUP             0 ****  ****    0  
    12 RES12     200 GROUP             0 ****  ****    0  
    13 RES13     201 GROUP             0 ****  ****    0  
    14 RES14     202 GROUP             0 ****  ****    0  
    15 RES15     225 GROUP             0 ****  ****    0  
    16 RES16     248 GROUP             0 ****  ****    0  
    17 RES17     271 GROUP             0 ****  ****    0  
@<TRIPOS>CRYSIN
   24.6082   12.0155   38.4360   90.0000   90.0000   90.0000    29     1
