@<TRIPOS>MOLECULE
WIZNEB
   104   107     3     0     0
SMALL
USER_CHARGES
****
Generated from the CSD

@<TRIPOS>ATOM
     1 Fe1      3.0122   9.8063   7.9460   Fe        1 RES1   2.0000
     2 O1       1.4513   9.8958   9.3751   O.3       1 RES1   0.0000
     3 H1       1.5901  10.1481  10.1867   H         1 RES1   0.0000
     4 H2       0.8581   9.3558   9.3222   H         1 RES1   0.0000
     5 O2       4.5803   9.8608   9.3972   O.3       1 RES1   0.0000
     6 H3       5.1791   9.2965   9.3428   H         1 RES1   0.0000
     7 H4       4.7627  10.4042  10.0135   H         1 RES1   0.0000
     8 N1       3.0130   7.6125   8.0964   N.ar      1 RES1   0.0000
     9 N2       4.1644  -1.6187   6.7189   N.ar      1 RES1   0.0000
    10 C1       2.9659   6.8949   6.9638   C.ar      1 RES1   0.0000
    11 H5       2.8318   7.3506   6.1645   H         1 RES1   0.0000
    12 C2       3.1036   5.5341   6.9131   C.ar      1 RES1   0.0000
    13 H6       3.0552   5.0917   6.0961   H         1 RES1   0.0000
    14 C3       3.3149   4.8126   8.0801   C.ar      1 RES1   0.0000
    15 C4       3.3356   5.5496   9.2628   C.ar      1 RES1   0.0000
    16 H7       3.4515   5.1190  10.0786   H         1 RES1   0.0000
    17 C5       3.1824   6.9185   9.2198   C.ar      1 RES1   0.0000
    18 H8       3.1990   7.3857  10.0246   H         1 RES1   0.0000
    19 C6       3.5252   3.3621   8.0985   C.2       1 RES1   0.0000
    20 H9       3.6269   2.9478   8.9249   H         1 RES1   0.0000
    21 C7       3.5798   2.6052   7.0188   C.2       1 RES1   0.0000
    22 H10      3.4677   3.0398   6.2042   H         1 RES1   0.0000
    23 C8       3.7974   1.1595   6.9595   C.ar      1 RES1   0.0000
    24 C9       4.0376   0.3558   8.0697   C.ar      1 RES1   0.0000
    25 H11      4.0800   0.7318   8.9185   H         1 RES1   0.0000
    26 C10      4.2105  -0.9920   7.9042   C.ar      1 RES1   0.0000
    27 H12      4.3701  -1.5067   8.6627   H         1 RES1   0.0000
    28 C11      3.9492  -0.8429   5.6609   C.ar      1 RES1   0.0000
    29 H13      3.9201  -1.2457   4.8232   H         1 RES1   0.0000
    30 C12      3.7672   0.5195   5.7281   C.ar      1 RES1   0.0000
    31 H14      3.6248   1.0103   4.9503   H         1 RES1   0.0000
    32 O1A      4.5731   9.7169   6.5168   O.3       1 RES1   0.0000
    33 H1A      4.4343   9.4646   5.7052   H         1 RES1   0.0000
    34 H2A      5.1663  10.2568   6.5697   H         1 RES1   0.0000
    35 O2A      1.4441   9.7518   6.4947   O.3       1 RES1   0.0000
    36 H3A      0.8452  10.3161   6.5491   H         1 RES1   0.0000
    37 H4A      1.2617   9.2084   5.8784   H         1 RES1   0.0000
    38 N1A      3.0114  12.0002   7.7955   N.ar      1 RES1   0.0000
    39 N2A      1.8600  21.2313   9.1730   N.ar      1 RES1   0.0000
    40 C1A      3.0585  12.7177   8.9281   C.ar      1 RES1   0.0000
    41 H5A      3.1926  12.2621   9.7274   H         1 RES1   0.0000
    42 C2A      2.9207  14.0786   8.9788   C.ar      1 RES1   0.0000
    43 H6A      2.9692  14.5209   9.7958   H         1 RES1   0.0000
    44 C3A      2.7094  14.8000   7.8118   C.ar      1 RES1   0.0000
    45 C4A      2.6888  14.0631   6.6291   C.ar      1 RES1   0.0000
    46 H7A      2.5729  14.4936   5.8133   H         1 RES1   0.0000
    47 C5A      2.8420  12.6942   6.6721   C.ar      1 RES1   0.0000
    48 H8A      2.8254  12.2269   5.8673   H         1 RES1   0.0000
    49 C6A      2.4992  16.2505   7.7934   C.2       1 RES1   0.0000
    50 H9A      2.3975  16.6648   6.9670   H         1 RES1   0.0000
    51 C7A      2.4446  17.0074   8.8731   C.2       1 RES1   0.0000
    52 H10A     2.5566  16.5729   9.6877   H         1 RES1   0.0000
    53 C8A      2.2270  18.4531   8.9324   C.ar      1 RES1   0.0000
    54 C9A      1.9868  19.2569   7.8222   C.ar      1 RES1   0.0000
    55 H11A     1.9444  18.8808   6.9734   H         1 RES1   0.0000
    56 C10A     1.8139  20.6046   7.9877   C.ar      1 RES1   0.0000
    57 H12A     1.6543  21.1193   7.2292   H         1 RES1   0.0000
    58 C11A     2.0752  20.4555  10.2310   C.ar      1 RES1   0.0000
    59 H13A     2.1042  20.8583  11.0687   H         1 RES1   0.0000
    60 C12A     2.2572  19.0931  10.1638   C.ar      1 RES1   0.0000
    61 H14A     2.3996  18.6023  10.9416   H         1 RES1   0.0000
    62 O3       6.8629  18.5508  14.5662   O.3       2 RES2   0.0000
    63 N3       9.6113  16.2025  14.8594   N.1       2 RES2   0.0000
    64 N4       7.6688  15.3752  11.0852   N.1       2 RES2   0.0000
    65 N5       3.9825  19.8568  13.2618   N.1       2 RES2   0.0000
    66 N6       4.3282  15.9263  11.5769   N.1       2 RES2   0.0000
    67 C13      6.6883  17.6663  13.5714   C.2       2 RES2  -1.0000
    68 C14      5.4360  17.7673  12.9595   C.2       2 RES2   0.0000
    69 C15      4.6401  18.9238  13.1544   C.1       2 RES2   0.0000
    70 C16      4.8419  16.7336  12.1913   C.1       2 RES2   0.0000
    71 C17      7.6828  16.7334  13.2667   C.2       2 RES2   0.0000
    72 C18      7.6605  15.9857  12.0575   C.1       2 RES2   0.0000
    73 C19      8.7525  16.4495  14.1509   C.1       2 RES2   0.0000
    74 C20      8.1041  19.2913  14.7064   C.3       2 RES2   0.0000
    75 H15      8.5017  19.1007  15.5709   H         2 RES2   0.0000
    76 H16      8.7286  19.0143  14.0182   H         2 RES2   0.0000
    77 C21      7.8504  20.7033  14.5904   C.3       2 RES2   0.0000
    78 H17      7.4642  20.8891  13.7306   H         2 RES2   0.0000
    79 H18      8.6746  21.1840  14.6809   H         2 RES2   0.0000
    80 H19      7.2411  20.9755  15.2801   H         2 RES2   0.0000
    81 N7       5.2626  11.3766  11.5949   N.ar      3 RES3   0.0000
    82 N8       7.8259  15.0766  19.8531   N.ar      3 RES3   0.0000
    83 C22      5.5469  10.5452  12.5845   C.ar      3 RES3   0.0000
    84 H20      5.4862   9.6334  12.4132   H         3 RES3   0.0000
    85 C23      5.9280  10.9336  13.8557   C.ar      3 RES3   0.0000
    86 H21      6.1143  10.2983  14.5077   H         3 RES3   0.0000
    87 C24      6.0273  12.2820  14.1392   C.ar      3 RES3   0.0000
    88 C25      5.7105  13.1632  13.1213   C.ar      3 RES3   0.0000
    89 H22      5.7414  14.0801  13.2713   H         3 RES3   0.0000
    90 C26      5.3478  12.6777  11.8814   C.ar      3 RES3   0.0000
    91 H23      5.1516  13.2908  11.2101   H         3 RES3   0.0000
    92 C27      6.4539  12.7009  15.4836   C.2       3 RES3   0.0000
    93 H24      6.6017  12.0217  16.1017   H         3 RES3   0.0000
    94 C28      7.5548  15.9676  18.9020   C.ar      3 RES3   0.0000
    95 H25      7.6124  16.8698  19.1180   H         3 RES3   0.0000
    96 C29      7.1954  15.6296  17.6211   C.ar      3 RES3   0.0000
    97 H26      7.0328  16.2956  16.9932   H         3 RES3   0.0000
    98 C30      7.0748  14.2990  17.2653   C.ar      3 RES3   0.0000
    99 C31      7.3806  13.3636  18.2479   C.ar      3 RES3   0.0000
   100 H27      7.3371  12.4540  18.0580   H         3 RES3   0.0000
   101 C32      7.7503  13.7913  19.5099   C.ar      3 RES3   0.0000
   102 H28      7.9571  13.1506  20.1509   H         3 RES3   0.0000
   103 C33      6.6488  13.9186  15.9062   C.2       3 RES3   0.0000
   104 H29      6.5065  14.6082  15.2975   H         3 RES3   0.0000
@<TRIPOS>BOND
     1     1     2    1
     2     2     3    1
     3     4     2    1
     4     5     1    1
     5     6     5    1
     6     7     5    1
     7     8     1    1
     8     9    26   ar
     9    10     8   ar
    10    11    10    1
    11    12    10   ar
    12    13    12    1
    13    14    12   ar
    14    15    14   ar
    15    16    15    1
    16    17     8   ar
    17    18    17    1
    18    19    14    1
    19    20    19    1
    20    21    19    2
    21    22    21    1
    22    23    21    1
    23    24    23   ar
    24    25    24    1
    25    26    24   ar
    26    27    26    1
    27    28     9   ar
    28    29    28    1
    29    30    23   ar
    30    31    30    1
    31    32     1    1
    32    33    32    1
    33    34    32    1
    34    35     1    1
    35    36    35    1
    36    37    35    1
    37    38     1    1
    38    39    56   ar
    39    40    38   ar
    40    41    40    1
    41    42    40   ar
    42    43    42    1
    43    44    42   ar
    44    45    44   ar
    45    46    45    1
    46    47    38   ar
    47    48    47    1
    48    49    44    1
    49    50    49    1
    50    51    49    2
    51    52    51    1
    52    53    51    1
    53    54    53   ar
    54    55    54    1
    55    56    54   ar
    56    57    56    1
    57    58    39   ar
    58    59    58    1
    59    60    53   ar
    60    61    60    1
    61    15    17   ar
    62    28    30   ar
    63    45    47   ar
    64    58    60   ar
    65    62    67    1
    66    63    73    3
    67    64    72    3
    68    65    69    3
    69    66    70    3
    70    67    68   un
    71    68    69    1
    72    70    68    1
    73    71    67   un
    74    72    71    1
    75    73    71    1
    76    74    62    1
    77    75    74    1
    78    76    74    1
    79    77    74    1
    80    78    77    1
    81    79    77    1
    82    80    77    1
    83    81    83   ar
    84    82    94   ar
    85    83    84    1
    86    85    83   ar
    87    86    85    1
    88    87    85   ar
    89    88    87   ar
    90    89    88    1
    91    90    81   ar
    92    91    90    1
    93    92    87    1
    94    93    92    1
    95    94    95    1
    96    96    94   ar
    97    97    96    1
    98    98    96   ar
    99    99    98   ar
   100   100    99    1
   101   101    82   ar
   102   102   101    1
   103   103    92    2
   104   104   103    1
   105    88    90   ar
   106    98   103    1
   107    99   101   ar
@<TRIPOS>SUBSTRUCTURE
     1 RES1        1 GROUP             0 ****  ****    0  
     2 RES2       62 GROUP             0 ****  ****    0  
     3 RES3       81 GROUP             0 ****  ****    0  
@<TRIPOS>CRYSIN
    7.2270   13.6950   17.4000   67.3950   78.3200   79.4740     2     1
