@<TRIPOS>MOLECULE
WOBXER
   104   112     3     0     0
SMALL
USER_CHARGES
****
Generated from the CSD

@<TRIPOS>ATOM
     1 Fe1     12.0968   5.5331  17.2559   Fe        1 RES1   1.0000
     2 N1      12.0047   5.7599  19.3901   N.2       1 RES1   0.0000
     3 C1      12.5031   7.0542  19.9403   C.3       1 RES1   0.0000
     4 H1      13.4012   6.9273  20.3396   H         1 RES1   0.0000
     5 H2      11.8921   7.3767  20.6503   H         1 RES1   0.0000
     6 C2      12.5778   8.0872  18.8072   C.3       1 RES1   0.0000
     7 H3      11.6724   8.4248  18.5962   H         1 RES1   0.0000
     8 H4      13.1389   8.8537  19.0831   H         1 RES1   0.0000
     9 N2      13.1729   7.4250  17.5968   N.3       1 RES1   0.0000
    10 H5      13.0362   7.9787  16.8611   H         1 RES1   0.0000
    11 C3      14.6403   7.1778  17.7348   C.3       1 RES1   0.0000
    12 H6      14.8457   6.8435  18.6437   H         1 RES1   0.0000
    13 H7      15.1423   8.0174  17.5887   H         1 RES1   0.0000
    14 C4      15.0374   6.1372  16.6915   C.3       1 RES1   0.0000
    15 H8      14.8777   6.4909  15.7809   H         1 RES1   0.0000
    16 H9      15.9989   5.9168  16.7799   H         1 RES1   0.0000
    17 N3      14.2025   4.9128  16.9235   N.3       1 RES1   0.0000
    18 H10     14.5126   4.4709  17.6811   H         1 RES1   0.0000
    19 C5      14.1907   3.9635  15.7736   C.3       1 RES1   0.0000
    20 H11     13.7486   3.1186  16.0411   H         1 RES1   0.0000
    21 H12     15.1209   3.7539  15.5010   H         1 RES1   0.0000
    22 C6      13.4319   4.5989  14.5912   C.3       1 RES1   0.0000
    23 H13     14.0529   5.1450  14.0458   H         1 RES1   0.0000
    24 H14     13.0516   3.8894  14.0150   H         1 RES1   0.0000
    25 N4      12.3316   5.4599  15.1310   N.2       1 RES1   0.0000
    26 C7      11.5481   4.8827  20.2336   C.2       1 RES1   0.0000
    27 H15     11.4934   5.1471  21.1428   H         1 RES1   0.0000
    28 C8      11.1185   3.5464  19.9157   C.ar      1 RES1   0.0000
    29 C9      11.1746   2.9842  18.5892   C.ar      1 RES1   0.0000
    30 C10     10.8184   1.6297  18.4067   C.ar      1 RES1   0.0000
    31 H16     10.8695   1.2395  17.5411   H         1 RES1   0.0000
    32 C11     10.3918   0.8557  19.4962   C.ar      1 RES1   0.0000
    33 H17     10.1474  -0.0516  19.3602   H         1 RES1   0.0000
    34 C12     10.3199   1.4061  20.7899   C.ar      1 RES1   0.0000
    35 H18     10.0249   0.8740  21.5206   H         1 RES1   0.0000
    36 C13     10.6793   2.7198  20.9920   C.ar      1 RES1   0.0000
    37 H19     10.6339   3.0842  21.8676   H         1 RES1   0.0000
    38 O1      11.5479   3.7107  17.5297   O.3       1 RES1   0.0000
    39 C14     11.7009   6.2028  14.2817   C.2       1 RES1   0.0000
    40 H20     11.9465   6.1200  13.3685   H         1 RES1   0.0000
    41 C15     10.6483   7.1520  14.6002   C.ar      1 RES1   0.0000
    42 C16     10.0929   7.2993  15.9183   C.ar      1 RES1   0.0000
    43 C17      9.1082   8.2990  16.1279   C.ar      1 RES1   0.0000
    44 H21      8.7303   8.4151  16.9926   H         1 RES1   0.0000
    45 C18      8.6903   9.1128  15.0767   C.ar      1 RES1   0.0000
    46 H22      8.0484   9.7943  15.2379   H         1 RES1   0.0000
    47 C19      9.2081   8.9376  13.7682   C.ar      1 RES1   0.0000
    48 H23      8.8962   9.4783  13.0523   H         1 RES1   0.0000
    49 C20     10.1656   7.9765  13.5451   C.ar      1 RES1   0.0000
    50 H24     10.5125   7.8604  12.6689   H         1 RES1   0.0000
    51 O2      10.4686   6.5278  16.9411   O.3       1 RES1   0.0000
    52 B1       3.5643   5.6190  17.3816   B         2 RES2  -1.0000
    53 C21      5.0038   4.7580  17.4177   C.ar      2 RES2   0.0000
    54 C22      6.2711   5.3879  17.4977   C.ar      2 RES2   0.0000
    55 H25      6.3067   6.3371  17.5271   H         2 RES2   0.0000
    56 C23      7.4869   4.6666  17.5355   C.ar      2 RES2   0.0000
    57 H26      8.3126   5.1321  17.5859   H         2 RES2   0.0000
    58 C24      7.4759   3.2734  17.4991   C.ar      2 RES2   0.0000
    59 H27      8.2879   2.7821  17.5299   H         2 RES2   0.0000
    60 C25      6.2436   2.6080  17.4158   C.ar      2 RES2   0.0000
    61 H28      6.2176   1.6587  17.3928   H         2 RES2   0.0000
    62 C26      5.0471   3.3443  17.3673   C.ar      2 RES2   0.0000
    63 H29      4.2274   2.8703  17.2977   H         2 RES2   0.0000
    64 C27      2.5377   5.0052  16.2062   C.ar      2 RES2   0.0000
    65 C28      3.0317   4.3925  15.0247   C.ar      2 RES2   0.0000
    66 H30      3.9714   4.3462  14.8993   H         2 RES2   0.0000
    67 C29      2.1942   3.8507  14.0298   C.ar      2 RES2   0.0000
    68 H31      2.5765   3.4497  13.2594   H         2 RES2   0.0000
    69 C30      0.8087   3.8980  14.1706   C.ar      2 RES2   0.0000
    70 H32      0.2423   3.5163  13.5113   H         2 RES2   0.0000
    71 C31      0.2635   4.5215  15.3104   C.ar      2 RES2   0.0000
    72 H33     -0.6791   4.5795  15.4170   H         2 RES2   0.0000
    73 C32      1.1223   5.0622  16.2997   C.ar      2 RES2   0.0000
    74 H34      0.7336   5.4804  17.0598   H         2 RES2   0.0000
    75 C33      2.7790   5.5363  18.8466   C.ar      2 RES2   0.0000
    76 C34      2.9706   4.5032  19.7956   C.ar      2 RES2   0.0000
    77 H35      3.6483   3.8582  19.6344   H         2 RES2   0.0000
    78 C35      2.1953   4.3903  20.9718   C.ar      2 RES2   0.0000
    79 H36      2.3706   3.6905  21.5906   H         2 RES2   0.0000
    80 C36      1.1721   5.3073  21.2290   C.ar      2 RES2   0.0000
    81 H37      0.6412   5.2288  22.0132   H         2 RES2   0.0000
    82 C37      0.9428   6.3436  20.3133   C.ar      2 RES2   0.0000
    83 H38      0.2463   6.9703  20.4712   H         2 RES2   0.0000
    84 C38      1.7402   6.4575  19.1634   C.ar      2 RES2   0.0000
    85 H39      1.5801   7.1821  18.5710   H         2 RES2   0.0000
    86 C39      3.9796   7.1864  17.0035   C.ar      2 RES2   0.0000
    87 C40      4.3077   7.5411  15.6616   C.ar      2 RES2   0.0000
    88 H40      4.1095   6.9273  14.9637   H         2 RES2   0.0000
    89 C41      4.9141   8.7677  15.3297   C.ar      2 RES2   0.0000
    90 H41      5.1258   8.9644  14.4236   H         2 RES2   0.0000
    91 C42      5.2045   9.6987  16.3369   C.ar      2 RES2   0.0000
    92 H42      5.6206  10.5253  16.1223   H         2 RES2   0.0000
    93 C43      4.8723   9.3966  17.6699   C.ar      2 RES2   0.0000
    94 H43      5.0579  10.0233  18.3583   H         2 RES2   0.0000
    95 C44      4.2661   8.1625  17.9836   C.ar      2 RES2   0.0000
    96 H44      4.0408   7.9819  18.8900   H         2 RES2   0.0000
    97 C45      8.4795   7.0198  20.2409   C.3       3 RES3   0.0000
    98 H45      8.0089   6.1888  19.9814   H         3 RES3   0.0000
    99 H46      9.3538   7.0337  19.7771   H         3 RES3   0.0000
   100 Cl1      7.5096   8.4386  19.7223   Cl        3 RES3   0.0000
   101 C45B     8.7089   7.0198  21.7369   C.3       3 RES3   0.0000
   102 H45B     9.1795   6.1888  21.9964   H         3 RES3   0.0000
   103 H46B     7.8346   7.0337  22.2007   H         3 RES3   0.0000
   104 Cl1B     9.6788   8.4386  22.2555   Cl        3 RES3   0.0000
@<TRIPOS>BOND
     1     1     2    1
     2     2     3    1
     3     3     4    1
     4     5     3    1
     5     6     3    1
     6     7     6    1
     7     8     6    1
     8     9     1    1
     9    10     9    1
    10    11     9    1
    11    12    11    1
    12    13    11    1
    13    14    11    1
    14    15    14    1
    15    16    14    1
    16    17     1    1
    17    18    17    1
    18    19    17    1
    19    20    19    1
    20    21    19    1
    21    22    19    1
    22    23    22    1
    23    24    22    1
    24    25     1    1
    25    26     2    2
    26    27    26    1
    27    28    26    1
    28    29    28   ar
    29    30    29   ar
    30    31    30    1
    31    32    30   ar
    32    33    32    1
    33    34    32   ar
    34    35    34    1
    35    36    28   ar
    36    37    36    1
    37    38     1    1
    38    39    25    2
    39    40    39    1
    40    41    39    1
    41    42    41   ar
    42    43    42   ar
    43    44    43    1
    44    45    43   ar
    45    46    45    1
    46    47    45   ar
    47    48    47    1
    48    49    41   ar
    49    50    49    1
    50    51     1    1
    51     6     9    1
    52    14    17    1
    53    22    25    1
    54    29    38    1
    55    34    36   ar
    56    42    51    1
    57    47    49   ar
    58    52    53    1
    59    53    54   ar
    60    54    55    1
    61    56    54   ar
    62    57    56    1
    63    58    56   ar
    64    59    58    1
    65    60    58   ar
    66    61    60    1
    67    62    53   ar
    68    63    62    1
    69    64    52    1
    70    65    64   ar
    71    66    65    1
    72    67    65   ar
    73    68    67    1
    74    69    67   ar
    75    70    69    1
    76    71    69   ar
    77    72    71    1
    78    73    64   ar
    79    74    73    1
    80    75    52    1
    81    76    75   ar
    82    77    76    1
    83    78    76   ar
    84    79    78    1
    85    80    78   ar
    86    81    80    1
    87    82    80   ar
    88    83    82    1
    89    84    75   ar
    90    85    84    1
    91    86    52    1
    92    87    86   ar
    93    88    87    1
    94    89    87   ar
    95    90    89    1
    96    91    89   ar
    97    92    91    1
    98    93    91   ar
    99    94    93    1
   100    95    86   ar
   101    96    95    1
   102    60    62   ar
   103    71    73   ar
   104    82    84   ar
   105    93    95   ar
   106    97    98    1
   107    99    97    1
   108   100    97    1
   109   101    97    1
   110   102   101    1
   111   103   101    1
   112   104   101    1
@<TRIPOS>SUBSTRUCTURE
     1 RES1        1 GROUP             0 ****  ****    0  
     2 RES2       52 GROUP             0 ****  ****    0  
     3 RES3       97 GROUP             0 ****  ****    0  
@<TRIPOS>CRYSIN
   26.1800   10.7500   28.6200   90.0000  102.0900   90.0000    15     1
