@<TRIPOS>MOLECULE
WOFBAX
   343   354     7     0     0
SMALL
USER_CHARGES
****
Generated from the CSD

@<TRIPOS>ATOM
     1 Fe1     13.5385  10.4236  22.3534   Fe        1 RES1   0.0000
     2 C1      13.3151  10.2539  24.2409   C.1       1 RES1   0.0000
     3 N1      13.1589  10.2710  25.4002   N.1       1 RES1   0.0000
     4 B1      13.0150  10.4988  26.9371   B         1 RES1  -1.0000
     5 C2      13.1799   9.0297  27.6317   C.ar      1 RES1   0.0000
     6 C3      13.6486   8.7955  28.8915   C.ar      1 RES1   0.0000
     7 H1      13.8961   9.5407  29.4242   H         1 RES1   0.0000
     8 C4      13.7785   7.5244  29.4314   C.ar      1 RES1   0.0000
     9 H2      14.1611   7.4137  30.2952   H         1 RES1   0.0000
    10 C5      13.3537   6.4172  28.7187   C.ar      1 RES1   0.0000
    11 H3      13.4222   5.5464  29.0931   H         1 RES1   0.0000
    12 C6      12.8236   6.6003  27.4554   C.ar      1 RES1   0.0000
    13 H4      12.5217   5.8594  26.9443   H         1 RES1   0.0000
    14 C7      12.7464   7.9034  26.9479   C.ar      1 RES1   0.0000
    15 H5      12.3725   8.0226  26.0841   H         1 RES1   0.0000
    16 C8      11.5178  11.0928  27.2286   C.ar      1 RES1   0.0000
    17 C9      11.1755  11.5378  28.5028   C.ar      1 RES1   0.0000
    18 H6      11.8021  11.4228  29.2082   H         1 RES1   0.0000
    19 C10      9.9539  12.1510  28.7871   C.ar      1 RES1   0.0000
    20 H7       9.7660  12.4533  29.6689   H         1 RES1   0.0000
    21 C11      9.0236  12.3149  27.7901   C.ar      1 RES1   0.0000
    22 H8       8.1881  12.7259  27.9701   H         1 RES1   0.0000
    23 C12      9.3255  11.8742  26.5268   C.ar      1 RES1   0.0000
    24 H9       8.6883  11.9807  25.8285   H         1 RES1   0.0000
    25 C13     10.5506  11.2759  26.2496   C.ar      1 RES1   0.0000
    26 H10     10.7314  10.9821  25.3642   H         1 RES1   0.0000
    27 C14     14.1014  11.6294  27.3474   C.ar      1 RES1   0.0000
    28 C15     14.4525  11.9785  28.6539   C.ar      1 RES1   0.0000
    29 H11     14.1330  11.4356  29.3666   H         1 RES1   0.0000
    30 C16     15.2494  13.0900  28.9743   C.ar      1 RES1   0.0000
    31 H12     15.4442  13.2816  29.8849   H         1 RES1   0.0000
    32 C17     15.7478  13.8926  27.9989   C.ar      1 RES1   0.0000
    33 H13     16.3165  14.6229  28.2112   H         1 RES1   0.0000
    34 C18     15.4021  13.6180  26.7067   C.ar      1 RES1   0.0000
    35 H14     15.6987  14.1928  26.0085   H         1 RES1   0.0000
    36 C19     14.6210  12.5002  26.3900   C.ar      1 RES1   0.0000
    37 H15     14.4332  12.3256  25.4758   H         1 RES1   0.0000
    38 C20     13.6661  10.7926  20.4692   C.1       1 RES1   0.0000
    39 N2      13.7118  11.0992  19.3699   N.1       1 RES1   0.0000
    40 B2      13.6503  11.7954  17.9569   B         1 RES1  -1.0000
    41 C21     14.1927  10.7458  16.8375   C.ar      1 RES1   0.0000
    42 C22     13.7170  10.7564  15.5093   C.ar      1 RES1   0.0000
    43 H16     12.9500  11.2759  15.2970   H         1 RES1   0.0000
    44 C23     14.3384  10.0304  14.5123   C.ar      1 RES1   0.0000
    45 H17     14.0031  10.0730  13.6233   H         1 RES1   0.0000
    46 C24     15.4056   9.2681  14.7751   C.ar      1 RES1   0.0000
    47 H18     15.8022   8.7550  14.0804   H         1 RES1   0.0000
    48 C25     15.9392   9.2256  16.0600   C.ar      1 RES1   0.0000
    49 H19     16.7114   8.7061  16.2472   H         1 RES1   0.0000
    50 C26     15.3231   9.9537  17.0642   C.ar      1 RES1   0.0000
    51 H20     15.6829   9.9133  17.9425   H         1 RES1   0.0000
    52 C27     12.1093  12.2745  17.7301   C.ar      1 RES1   0.0000
    53 C28     11.8144  13.2007  16.7151   C.ar      1 RES1   0.0000
    54 H21     12.5252  13.5584  16.1968   H         1 RES1   0.0000
    55 C29     10.5225  13.6095  16.4560   C.ar      1 RES1   0.0000
    56 H22     10.3593  14.2290  15.7541   H         1 RES1   0.0000
    57 C30      9.4694  13.1283  17.1938   C.ar      1 RES1   0.0000
    58 H23      8.5795  13.4029  17.0030   H         1 RES1   0.0000
    59 C31      9.7362  12.2234  18.2340   C.ar      1 RES1   0.0000
    60 H24      9.0271  11.8870  18.7703   H         1 RES1   0.0000
    61 C32     11.0438  11.8252  18.4680   C.ar      1 RES1   0.0000
    62 H25     11.2106  11.2121  19.1770   H         1 RES1   0.0000
    63 C33     14.6754  13.0495  18.0000   C.ar      1 RES1   0.0000
    64 C34     15.3213  13.5200  16.8483   C.ar      1 RES1   0.0000
    65 H26     15.1563  13.0814  16.0240   H         1 RES1   0.0000
    66 C35     16.1901  14.5974  16.8663   C.ar      1 RES1   0.0000
    67 H27     16.6044  14.8763  16.0564   H         1 RES1   0.0000
    68 C36     16.4692  15.2787  18.0468   C.ar      1 RES1   0.0000
    69 H28     17.0678  16.0154  18.0612   H         1 RES1   0.0000
    70 C37     15.8426  14.8444  19.1806   C.ar      1 RES1   0.0000
    71 H29     16.0199  15.2872  20.0013   H         1 RES1   0.0000
    72 C38     14.9562  13.7777  19.1734   C.ar      1 RES1   0.0000
    73 H30     14.5244  13.5286  19.9833   H         1 RES1   0.0000
    74 C39     15.4459  10.4158  22.4963   C.1       1 RES1   0.0000
    75 N3      16.6061  10.3157  22.5100   N.1       1 RES1   0.0000
    76 B3      18.1753  10.3114  22.4092   B         1 RES1  -1.0000
    77 C40     18.5351  10.5499  20.8327   C.ar      1 RES1   0.0000
    78 C41     19.6760  10.0091  20.2388   C.ar      1 RES1   0.0000
    79 H31     20.2675   9.4832  20.7643   H         1 RES1   0.0000
    80 C42     19.9709  10.2220  18.8855   C.ar      1 RES1   0.0000
    81 H32     20.7555   9.8430  18.5075   H         1 RES1   0.0000
    82 C43     19.1284  10.9778  18.1008   C.ar      1 RES1   0.0000
    83 H33     19.3267  11.1226  17.1830   H         1 RES1   0.0000
    84 C44     18.0173  11.5059  18.6587   C.ar      1 RES1   0.0000
    85 H34     17.4223  12.0147  18.1188   H         1 RES1   0.0000
    86 C45     17.7312  11.3185  20.0157   C.ar      1 RES1   0.0000
    87 H35     16.9607  11.7337  20.3828   H         1 RES1   0.0000
    88 C46     18.7194   8.8487  22.9239   C.ar      1 RES1   0.0000
    89 C47     20.0376   8.7082  23.3846   C.ar      1 RES1   0.0000
    90 H36     20.6133   9.4640  23.3918   H         1 RES1   0.0000
    91 C48     20.5238   7.4562  23.8345   C.ar      1 RES1   0.0000
    92 H37     21.4119   7.3860  24.1656   H         1 RES1   0.0000
    93 C49     19.7269   6.3448  23.7949   C.ar      1 RES1   0.0000
    94 H38     20.0692   5.5060  24.0757   H         1 RES1   0.0000
    95 C50     18.4123   6.4470  23.3450   C.ar      1 RES1   0.0000
    96 H39     17.8401   5.6891  23.3486   H         1 RES1   0.0000
    97 C51     17.9471   7.7032  22.8843   C.ar      1 RES1   0.0000
    98 H40     17.0660   7.7607  22.5316   H         1 RES1   0.0000
    99 C52     18.7159  11.4888  23.3954   C.ar      1 RES1   0.0000
   100 C53     20.0078  12.0190  23.2370   C.ar      1 RES1   0.0000
   101 H41     20.5378  11.7337  22.5028   H         1 RES1   0.0000
   102 C54     20.5291  12.9494  24.1260   C.ar      1 RES1   0.0000
   103 H42     21.4067  13.2880  23.9857   H         1 RES1   0.0000
   104 C55     19.8077  13.3923  25.2022   C.ar      1 RES1   0.0000
   105 H43     20.1710  14.0268  25.8105   H         1 RES1   0.0000
   106 C56     18.5263  12.8834  25.3822   C.ar      1 RES1   0.0000
   107 H44     18.0033  13.1666  26.1200   H         1 RES1   0.0000
   108 C57     18.0138  11.9679  24.4824   C.ar      1 RES1   0.0000
   109 H45     17.1309  11.6485  24.6227   H         1 RES1   0.0000
   110 C58     13.4713  12.3128  22.6165   C.1       1 RES1   0.0000
   111 N4      13.4222  13.4668  22.7759   N.1       1 RES1   0.0000
   112 B4      13.4590  15.0104  22.9743   B         1 RES1   0.0000
   113 C59     15.0001  15.5001  22.7367   C.ar      1 RES1   0.0000
   114 C60     15.3371  16.8074  22.3516   C.ar      1 RES1   0.0000
   115 H46     14.6333  17.4228  22.1752   H         1 RES1   0.0000
   116 C61     16.6412  17.2460  22.2148   C.ar      1 RES1   0.0000
   117 H47     16.8220  18.1360  21.9413   H         1 RES1   0.0000
   118 C62     17.6856  16.3731  22.4812   C.ar      1 RES1   0.0000
   119 H48     18.5860  16.6712  22.4164   H         1 RES1   0.0000
   120 C63     17.4048  15.0679  22.8375   C.ar      1 RES1   0.0000
   121 H49     18.1121  14.4526  22.9887   H         1 RES1   0.0000
   122 C64     16.0919  14.6591  22.9671   C.ar      1 RES1   0.0000
   123 H50     15.9216  13.7606  23.2262   H         1 RES1   0.0000
   124 C65     12.9781  15.3064  24.5112   C.ar      1 RES1   0.0000
   125 C66     13.3906  16.4583  25.1950   C.ar      1 RES1   0.0000
   126 H51     13.9663  17.0778  24.7595   H         1 RES1   0.0000
   127 C67     12.9746  16.7159  26.4980   C.ar      1 RES1   0.0000
   128 H52     13.2660  17.5079  26.9335   H         1 RES1   0.0000
   129 C68     12.1637  15.8578  27.1566   C.ar      1 RES1   0.0000
   130 H53     11.9039  16.0303  28.0529   H         1 RES1   0.0000
   131 C69     11.7108  14.7081  26.4872   C.ar      1 RES1   0.0000
   132 H54     11.1316  14.0970  26.9227   H         1 RES1   0.0000
   133 C70     12.1198  14.4760  25.1806   C.ar      1 RES1   0.0000
   134 H55     11.7898  13.7053  24.7307   H         1 RES1   0.0000
   135 C71     12.4234  15.6875  21.9161   C.ar      1 RES1   0.0000
   136 C72     12.0794  17.0416  22.0025   C.ar      1 RES1   0.0000
   137 H56     12.4129  17.5590  22.7259   H         1 RES1   0.0000
   138 C73     11.2597  17.6570  21.0558   C.ar      1 RES1   0.0000
   139 H57     11.0684  18.5831  21.1278   H         1 RES1   0.0000
   140 C74     10.7244  16.9288  20.0121   C.ar      1 RES1   0.0000
   141 H58     10.1662  17.3504  19.3714   H         1 RES1   0.0000
   142 C75     11.0087  15.5853  19.9113   C.ar      1 RES1   0.0000
   143 H59     10.6279  15.0701  19.2094   H         1 RES1   0.0000
   144 C76     11.8548  14.9828  20.8363   C.ar      1 RES1   0.0000
   145 H60     12.0584  14.0587  20.7355   H         1 RES1   0.0000
   146 C77     11.6354  10.2837  22.2868   C.1       1 RES1   0.0000
   147 N5      10.4646  10.2092  22.1608   N.1       1 RES1   0.0000
   148 B5       8.9288   9.9239  22.3480   B         1 RES1  -1.0000
   149 C78      8.2776  11.2206  23.0535   C.ar      1 RES1   0.0000
   150 C79      7.0946  11.1120  23.7877   C.ar      1 RES1   0.0000
   151 H61      6.7120  10.2518  23.9209   H         1 RES1   0.0000
   152 C80      6.4575  12.2191  24.3348   C.ar      1 RES1   0.0000
   153 H62      5.6711  12.1105  24.8531   H         1 RES1   0.0000
   154 C81      6.9717  13.4711  24.1116   C.ar      1 RES1   0.0000
   155 H63      6.5084  14.2354  24.4320   H         1 RES1   0.0000
   156 C82      8.1600  13.6244  23.4314   C.ar      1 RES1   0.0000
   157 H64      8.5286  14.4888  23.2982   H         1 RES1   0.0000
   158 C83      8.8217  12.4831  22.9347   C.ar      1 RES1   0.0000
   159 H65      9.6625  12.5875  22.5064   H         1 RES1   0.0000
   160 C84      8.2144   9.7153  20.8939   C.ar      1 RES1   0.0000
   161 C85      6.8506   9.9303  20.6815   C.ar      1 RES1   0.0000
   162 H66      6.3205  10.2497  21.4014   H         1 RES1   0.0000
   163 C86      6.2345   9.6876  19.4398   C.ar      1 RES1   0.0000
   164 H67      5.3025   9.8366  19.3282   H         1 RES1   0.0000
   165 C87      6.9858   9.2383  18.3996   C.ar      1 RES1   0.0000
   166 H68      6.5891   9.1276  17.5429   H         1 RES1   0.0000
   167 C88      8.3075   8.9445  18.5723   C.ar      1 RES1   0.0000
   168 H69      8.8235   8.5804  17.8633   H         1 RES1   0.0000
   169 C89      8.8867   9.1958  19.8249   C.ar      1 RES1   0.0000
   170 H70      9.8082   8.9892  19.9365   H         1 RES1   0.0000
   171 C90      8.7533   8.5421  23.1902   C.ar      1 RES1   0.0000
   172 C91      7.5632   7.8182  23.1866   C.ar      1 RES1   0.0000
   173 H71      6.8296   8.1695  22.6935   H         1 RES1   0.0000
   174 C92      7.3842   6.6152  23.8597   C.ar      1 RES1   0.0000
   175 H72      6.5540   6.1553  23.8129   H         1 RES1   0.0000
   176 C93      8.4321   6.1000  24.5975   C.ar      1 RES1   0.0000
   177 H73      8.3338   5.2760  25.0619   H         1 RES1   0.0000
   178 C94      9.6204   6.7920  24.6515   C.ar      1 RES1   0.0000
   179 H74     10.3453   6.4449  25.1590   H         1 RES1   0.0000
   180 C95      9.7713   7.9970  23.9641   C.ar      1 RES1   0.0000
   181 H75     10.5980   8.4591  24.0289   H         1 RES1   0.0000
   182 C96     13.5766   8.5783  22.1032   C.1       1 RES1   0.0000
   183 N6      13.6872   7.4264  21.9449   N.1       1 RES1   0.0000
   184 B6      13.9031   5.9403  21.5633   B         1 RES1   0.0000
   185 C97     12.4059   5.2824  21.3870   C.ar      1 RES1   0.0000
   186 C98     11.2492   6.0766  21.3438   C.ar      1 RES1   0.0000
   187 H76     11.3335   7.0219  21.3798   H         1 RES1   0.0000
   188 C99      9.9749   5.5060  21.2466   C.ar      1 RES1   0.0000
   189 H77      9.2079   6.0659  21.2070   H         1 RES1   0.0000
   190 C100     9.8310   4.1369  21.2034   C.ar      1 RES1   0.0000
   191 H78      8.9639   3.7537  21.1458   H         1 RES1   0.0000
   192 C101    10.9280   3.3364  21.2466   C.ar      1 RES1   0.0000
   193 H79     10.8297   2.3932  21.2106   H         1 RES1   0.0000
   194 C102    12.2111   3.9112  21.3510   C.ar      1 RES1   0.0000
   195 H80     12.9676   3.3385  21.4014   H         1 RES1   0.0000
   196 C103    14.8702   5.9509  20.2532   C.ar      1 RES1   0.0000
   197 C104    14.9948   4.8544  19.4038   C.ar      1 RES1   0.0000
   198 H81     14.4367   4.1007  19.5441   H         1 RES1   0.0000
   199 C105    15.9111   4.8289  18.3564   C.ar      1 RES1   0.0000
   200 H82     16.0111   4.0347  17.8453   H         1 RES1   0.0000
   201 C106    16.6728   5.9275  18.0468   C.ar      1 RES1   0.0000
   202 H83     17.2643   5.9126  17.3018   H         1 RES1   0.0000
   203 C107    16.5587   7.0389  18.8279   C.ar      1 RES1   0.0000
   204 H84     17.0871   7.8054  18.6443   H         1 RES1   0.0000
   205 C108    15.6636   7.0496  19.9041   C.ar      1 RES1   0.0000
   206 H85     15.5899   7.8416  20.4224   H         1 RES1   0.0000
   207 C109    14.6491   5.2057  22.8231   C.ar      1 RES1   0.0000
   208 C110    15.3705   4.0390  22.6431   C.ar      1 RES1   0.0000
   209 H86     15.4635   3.6770  21.7685   H         1 RES1   0.0000
   210 C111    15.9743   3.3726  23.7337   C.ar      1 RES1   0.0000
   211 H87     16.4956   2.5912  23.5969   H         1 RES1   0.0000
   212 C112    15.7882   3.8814  25.0079   C.ar      1 RES1   0.0000
   213 H88     16.1533   3.4194  25.7565   H         1 RES1   0.0000
   214 C113    15.0879   5.0397  25.2022   C.ar      1 RES1   0.0000
   215 H89     14.9878   5.3931  26.0805   H         1 RES1   0.0000
   216 C114    14.5227   5.6997  24.1152   C.ar      1 RES1   0.0000
   217 H90     14.0400   6.5045  24.2592   H         1 RES1   0.0000
   218 N7      18.1595   8.7827  27.4230   N.4       2 RES2   1.0000
   219 C115    17.6803   8.6464  25.9941   C.3       2 RES2   0.0000
   220 H91     18.0858   9.3703  25.4542   H         2 RES2   0.0000
   221 H92     18.0086   7.7863  25.6341   H         2 RES2   0.0000
   222 C116    16.1831   8.7082  25.8177   C.3       2 RES2   0.0000
   223 H93     15.9655   8.6017  24.8639   H         2 RES2   0.0000
   224 H94     15.7689   7.9694  26.3216   H         2 RES2   0.0000
   225 H95     15.8461   9.5577  26.1452   H         2 RES2   0.0000
   226 C117    17.6347   7.6457  28.2724   C.3       2 RES2   0.0000
   227 H96     18.0121   7.7373  29.1830   H         2 RES2   0.0000
   228 H97     16.6518   7.7394  28.3480   H         2 RES2   0.0000
   229 C118    17.9419   6.2618  27.7721   C.3       2 RES2   0.0000
   230 H98     17.5610   5.5996  28.3876   H         2 RES2   0.0000
   231 H99     17.5487   6.1426  26.8795   H         2 RES2   0.0000
   232 H100    18.9125   6.1404  27.7181   H         2 RES2   0.0000
   233 C119    17.6470  10.1006  27.9665   C.3       2 RES2   0.0000
   234 H101    17.8629  10.8160  27.3186   H         2 RES2   0.0000
   235 H102    16.6605  10.0517  28.0385   H         2 RES2   0.0000
   236 C120    18.2122  10.4732  29.3090   C.3       2 RES2   0.0000
   237 H103    17.8365  11.3334  29.5934   H         2 RES2   0.0000
   238 H104    17.9822   9.7834  29.9641   H         2 RES2   0.0000
   239 H105    19.1881  10.5499  29.2406   H         2 RES2   0.0000
   240 C121    19.6725   8.7614  27.4194   C.3       2 RES2   0.0000
   241 H106    19.9656   7.9140  27.0019   H         2 RES2   0.0000
   242 H107    19.9779   8.7465  28.3624   H         2 RES2   0.0000
   243 C122    20.3851   9.9111  26.7139   C.3       2 RES2   0.0000
   244 H108    21.3540   9.7855  26.7823   H         2 RES2   0.0000
   245 H109    20.1236   9.9261  25.7673   H         2 RES2   0.0000
   246 H110    20.1359  10.7607  27.1350   H         2 RES2   0.0000
   247 N8      13.3520  17.6144  16.1356   N.4       3 RES3   1.0000
   248 C123    14.4086  18.5938  15.6533   C.3       3 RES3   0.0000
   249 H111    14.2489  18.7918  14.6995   H         3 RES3   0.0000
   250 H112    14.3138  19.4412  16.1572   H         3 RES3   0.0000
   251 C124    15.8180  18.0870  15.8189   C.3       3 RES3   0.0000
   252 H113    16.4482  18.7599  15.4877   H         3 RES3   0.0000
   253 H114    15.9936  17.9082  16.7655   H         3 RES3   0.0000
   254 H115    15.9286  17.2588  15.3042   H         3 RES3   0.0000
   255 C125    13.4643  16.3071  15.3654   C.3       3 RES3   0.0000
   256 H116    14.3595  15.9196  15.5309   H         3 RES3   0.0000
   257 H117    12.7938  15.6726  15.7253   H         3 RES3   0.0000
   258 C126    13.2660  16.4242  13.8897   C.3       3 RES3   0.0000
   259 H118    13.3537  15.5385  13.4793   H         3 RES3   0.0000
   260 H119    12.3708  16.7798  13.7097   H         3 RES3   0.0000
   261 H120    13.9400  17.0289  13.5153   H         3 RES3   0.0000
   262 C127    11.9952  18.2574  15.8873   C.3       3 RES3   0.0000
   263 H121    11.9092  19.0494  16.4740   H         3 RES3   0.0000
   264 H122    11.9618  18.5725  14.9515   H         3 RES3   0.0000
   265 C128    10.8122  17.3461  16.1320   C.3       3 RES3   0.0000
   266 H123     9.9819  17.8337  15.9521   H         3 RES3   0.0000
   267 H124    10.8701  16.5668  15.5381   H         3 RES3   0.0000
   268 H125    10.8174  17.0459  17.0642   H         3 RES3   0.0000
   269 C129    13.5784  17.2758  17.5861   C.3       3 RES3   0.0000
   270 H126    14.4051  16.7350  17.6545   H         3 RES3   0.0000
   271 H127    12.8271  16.7116  17.8957   H         3 RES3   0.0000
   272 C130    13.7048  18.4533  18.5183   C.3       3 RES3   0.0000
   273 H128    13.8504  18.1318  19.4326   H         3 RES3   0.0000
   274 H129    14.4648  19.0090  18.2412   H         3 RES3   0.0000
   275 H130    12.8816  18.9855  18.4860   H         3 RES3   0.0000
   276 N9       8.9288  18.5917  24.8351   N.4       4 RES4   1.0000
   277 C131     7.5755  18.7066  24.1764   C.3       4 RES4   0.0000
   278 H131     6.8998  18.3234  24.7919   H         4 RES4   0.0000
   279 H132     7.3649  19.6669  24.0685   H         4 RES4   0.0000
   280 C132     7.4316  18.0445  22.8483   C.3       4 RES4   0.0000
   281 H133     6.5206  18.1786  22.5100   H         4 RES4   0.0000
   282 H134     8.0723  18.4341  22.2148   H         4 RES4   0.0000
   283 H135     7.6071  17.0842  22.9383   H         4 RES4   0.0000
   284 C133     9.3255  17.1460  25.0403   C.3       4 RES4   0.0000
   285 H136     9.4659  16.7308  24.1512   H         4 RES4   0.0000
   286 H137    10.1943  17.1247  25.5154   H         4 RES4   0.0000
   287 C134     8.3496  16.3007  25.8069   C.3       4 RES4   0.0000
   288 H138     8.6954  15.3894  25.8861   H         4 RES4   0.0000
   289 H139     8.2215  16.6797  26.7031   H         4 RES4   0.0000
   290 H140     7.4913  16.2858  25.3354   H         4 RES4   0.0000
   291 C135     8.7901  19.3368  26.1560   C.3       4 RES4   0.0000
   292 H141     8.5163  20.2673  25.9617   H         4 RES4   0.0000
   293 H142     8.0635  18.9132  26.6779   H         4 RES4   0.0000
   294 C136    10.0258  19.3688  26.9983   C.3       4 RES4   0.0000
   295 H143     9.8433  19.8649  27.8261   H         4 RES4   0.0000
   296 H144    10.2926  18.4533  27.2214   H         4 RES4   0.0000
   297 H145    10.7472  19.8095  26.5052   H         4 RES4   0.0000
   298 C137    10.0206  19.2559  24.0001   C.3       4 RES4   0.0000
   299 H146    10.8595  19.2410  24.5256   H         4 RES4   0.0000
   300 H147    10.1697  18.7002  23.1938   H         4 RES4   0.0000
   301 C138     9.7818  20.6463  23.5574   C.3       4 RES4   0.0000
   302 H148    10.5471  20.9593  23.0355   H         4 RES4   0.0000
   303 H149     8.9727  20.6782  23.0067   H         4 RES4   0.0000
   304 H150     9.6642  21.2211  24.3420   H         4 RES4   0.0000
   305 N10     12.1444   6.1745  16.3084   N.4       5 RES5   1.0000
   306 C139    13.6381   6.3661  16.1680   C.3       5 RES5   0.0000
   307 H151    13.8276   7.3434  16.1032   H         5 RES5   0.0000
   308 H152    14.0856   6.0382  16.9886   H         5 RES5   0.0000
   309 C140    14.2524   5.6848  14.9802   C.3       5 RES5   0.0000
   310 H153    15.2107   5.8615  14.9550   H         5 RES5   0.0000
   311 H154    14.0909   4.7224  15.0450   H         5 RES5   0.0000
   312 H155    13.8329   6.0297  14.1596   H         5 RES5   0.0000
   313 C141    11.6722   4.7671  16.0996   C.3       5 RES5   0.0000
   314 H156    12.0057   4.4542  15.2250   H         5 RES5   0.0000
   315 H157    10.6788   4.7820  16.0456   H         5 RES5   0.0000
   316 C142    12.0584   3.7558  17.1398   C.3       5 RES5   0.0000
   317 H158    11.6985   2.8786  16.8987   H         5 RES5   0.0000
   318 H159    13.0413   3.7004  17.1866   H         5 RES5   0.0000
   319 H160    11.7108   4.0283  18.0108   H         5 RES5   0.0000
   320 C143    11.8126   6.5854  17.7265   C.3       5 RES5   0.0000
   321 H161    10.8402   6.4279  17.8777   H         5 RES5   0.0000
   322 H162    12.3041   5.9978  18.3528   H         5 RES5   0.0000
   323 C144    12.1110   8.0183  18.0720   C.3       5 RES5   0.0000
   324 H163    11.8670   8.1929  19.0043   H         5 RES5   0.0000
   325 H164    13.0764   8.1823  17.9533   H         5 RES5   0.0000
   326 H165    11.6090   8.6124  17.4818   H         5 RES5   0.0000
   327 C145    11.4089   7.0645  15.3366   C.3       5 RES5   0.0000
   328 H166    11.6020   8.0077  15.5633   H         5 RES5   0.0000
   329 H167    11.7582   6.8963  14.4296   H         5 RES5   0.0000
   330 C146     9.9170   6.8771  15.3150   C.3       5 RES5   0.0000
   331 H168     9.5273   7.4924  14.6635   H         5 RES5   0.0000
   332 H169     9.7116   5.9552  15.0666   H         5 RES5   0.0000
   333 H170     9.5572   7.0709  16.2040   H         5 RES5   0.0000
   334 C147    17.6207  10.6244  33.9917   C.3       6 RES6   0.0000
   335 H171    17.6417   9.8239  34.5784   H         6 RES6   0.0000
   336 H172    17.6312  11.4250  34.5676   H         6 RES6   0.0000
   337 Cl1     16.1814  10.6052  33.0523   Cl        6 RES6   0.0000
   338 Cl2     19.0055  10.6244  32.9767   Cl        6 RES6   0.0000
   339 C148    22.8179  13.5754  29.2478   C.3       7 RES7   0.0000
   340 H173    22.0789  14.1481  29.5538   H         7 RES7   0.0000
   341 H174    23.6393  13.8415  29.7445   H         7 RES7   0.0000
   342 Cl3     23.0794  13.8309  27.5850   Cl        7 RES7   0.0000
   343 Cl4     22.4545  11.9062  29.6042   Cl        7 RES7   0.0000
@<TRIPOS>BOND
     1     1     2    1
     2     2     3    3
     3     3     4    1
     4     4     5    1
     5     5     6   ar
     6     6     7    1
     7     8     6   ar
     8     9     8    1
     9    10     8   ar
    10    11    10    1
    11    12    10   ar
    12    13    12    1
    13    14     5   ar
    14    15    14    1
    15    16     4    1
    16    17    16   ar
    17    18    17    1
    18    19    17   ar
    19    20    19    1
    20    21    19   ar
    21    22    21    1
    22    23    21   ar
    23    24    23    1
    24    25    16   ar
    25    26    25    1
    26    27     4    1
    27    28    27   ar
    28    29    28    1
    29    30    28   ar
    30    31    30    1
    31    32    30   ar
    32    33    32    1
    33    34    32   ar
    34    35    34    1
    35    36    27   ar
    36    37    36    1
    37    38     1    1
    38    39    38    3
    39    40    39    1
    40    41    40    1
    41    42    41   ar
    42    43    42    1
    43    44    42   ar
    44    45    44    1
    45    46    44   ar
    46    47    46    1
    47    48    46   ar
    48    49    48    1
    49    50    41   ar
    50    51    50    1
    51    52    40    1
    52    53    52   ar
    53    54    53    1
    54    55    53   ar
    55    56    55    1
    56    57    55   ar
    57    58    57    1
    58    59    57   ar
    59    60    59    1
    60    61    52   ar
    61    62    61    1
    62    63    40    1
    63    64    63   ar
    64    65    64    1
    65    66    64   ar
    66    67    66    1
    67    68    66   ar
    68    69    68    1
    69    70    68   ar
    70    71    70    1
    71    72    63   ar
    72    73    72    1
    73    74     1    1
    74    75    74    3
    75    76    75    1
    76    77    76    1
    77    78    77   ar
    78    79    78    1
    79    80    78   ar
    80    81    80    1
    81    82    80   ar
    82    83    82    1
    83    84    82   ar
    84    85    84    1
    85    86    77   ar
    86    87    86    1
    87    88    76    1
    88    89    88   ar
    89    90    89    1
    90    91    89   ar
    91    92    91    1
    92    93    91   ar
    93    94    93    1
    94    95    93   ar
    95    96    95    1
    96    97    88   ar
    97    98    97    1
    98    99    76    1
    99   100    99   ar
   100   101   100    1
   101   102   100   ar
   102   103   102    1
   103   104   102   ar
   104   105   104    1
   105   106   104   ar
   106   107   106    1
   107   108    99   ar
   108   109   108    1
   109   110     1    1
   110   111   110    3
   111   112   111    1
   112   113   112    1
   113   114   113   ar
   114   115   114    1
   115   116   114   ar
   116   117   116    1
   117   118   116   ar
   118   119   118    1
   119   120   118   ar
   120   121   120    1
   121   122   113   ar
   122   123   122    1
   123   124   112    1
   124   125   124   ar
   125   126   125    1
   126   127   125   ar
   127   128   127    1
   128   129   127   ar
   129   130   129    1
   130   131   129   ar
   131   132   131    1
   132   133   124   ar
   133   134   133    1
   134   135   112    1
   135   136   135   ar
   136   137   136    1
   137   138   136   ar
   138   139   138    1
   139   140   138   ar
   140   141   140    1
   141   142   140   ar
   142   143   142    1
   143   144   135   ar
   144   145   144    1
   145   146     1    1
   146   147   146    3
   147   148   147    1
   148   149   148    1
   149   150   149   ar
   150   151   150    1
   151   152   150   ar
   152   153   152    1
   153   154   152   ar
   154   155   154    1
   155   156   154   ar
   156   157   156    1
   157   158   149   ar
   158   159   158    1
   159   160   148    1
   160   161   160   ar
   161   162   161    1
   162   163   161   ar
   163   164   163    1
   164   165   163   ar
   165   166   165    1
   166   167   165   ar
   167   168   167    1
   168   169   160   ar
   169   170   169    1
   170   171   148    1
   171   172   171   ar
   172   173   172    1
   173   174   172   ar
   174   175   174    1
   175   176   174   ar
   176   177   176    1
   177   178   176   ar
   178   179   178    1
   179   180   171   ar
   180   181   180    1
   181   182     1    1
   182   183   182    3
   183   184   183    1
   184   185   184    1
   185   186   185   ar
   186   187   186    1
   187   188   186   ar
   188   189   188    1
   189   190   188   ar
   190   191   190    1
   191   192   190   ar
   192   193   192    1
   193   194   185   ar
   194   195   194    1
   195   196   184    1
   196   197   196   ar
   197   198   197    1
   198   199   197   ar
   199   200   199    1
   200   201   199   ar
   201   202   201    1
   202   203   201   ar
   203   204   203    1
   204   205   196   ar
   205   206   205    1
   206   207   184    1
   207   208   207   ar
   208   209   208    1
   209   210   208   ar
   210   211   210    1
   211   212   210   ar
   212   213   212    1
   213   214   212   ar
   214   215   214    1
   215   216   207   ar
   216   217   216    1
   217    12    14   ar
   218    23    25   ar
   219    34    36   ar
   220    48    50   ar
   221    59    61   ar
   222    70    72   ar
   223    84    86   ar
   224    95    97   ar
   225   106   108   ar
   226   120   122   ar
   227   131   133   ar
   228   142   144   ar
   229   156   158   ar
   230   167   169   ar
   231   178   180   ar
   232   192   194   ar
   233   203   205   ar
   234   214   216   ar
   235   218   219    1
   236   219   220    1
   237   221   219    1
   238   222   219    1
   239   223   222    1
   240   224   222    1
   241   225   222    1
   242   226   218    1
   243   227   226    1
   244   228   226    1
   245   229   226    1
   246   230   229    1
   247   231   229    1
   248   232   229    1
   249   233   218    1
   250   234   233    1
   251   235   233    1
   252   236   233    1
   253   237   236    1
   254   238   236    1
   255   239   236    1
   256   240   218    1
   257   241   240    1
   258   242   240    1
   259   243   240    1
   260   244   243    1
   261   245   243    1
   262   246   243    1
   263   247   248    1
   264   248   249    1
   265   250   248    1
   266   251   248    1
   267   252   251    1
   268   253   251    1
   269   254   251    1
   270   255   247    1
   271   256   255    1
   272   257   255    1
   273   258   255    1
   274   259   258    1
   275   260   258    1
   276   261   258    1
   277   262   247    1
   278   263   262    1
   279   264   262    1
   280   265   262    1
   281   266   265    1
   282   267   265    1
   283   268   265    1
   284   269   247    1
   285   270   269    1
   286   271   269    1
   287   272   269    1
   288   273   272    1
   289   274   272    1
   290   275   272    1
   291   276   277    1
   292   277   278    1
   293   279   277    1
   294   280   277    1
   295   281   280    1
   296   282   280    1
   297   283   280    1
   298   284   276    1
   299   285   284    1
   300   286   284    1
   301   287   284    1
   302   288   287    1
   303   289   287    1
   304   290   287    1
   305   291   276    1
   306   292   291    1
   307   293   291    1
   308   294   291    1
   309   295   294    1
   310   296   294    1
   311   297   294    1
   312   298   276    1
   313   299   298    1
   314   300   298    1
   315   301   298    1
   316   302   301    1
   317   303   301    1
   318   304   301    1
   319   305   306    1
   320   306   307    1
   321   308   306    1
   322   309   306    1
   323   310   309    1
   324   311   309    1
   325   312   309    1
   326   313   305    1
   327   314   313    1
   328   315   313    1
   329   316   313    1
   330   317   316    1
   331   318   316    1
   332   319   316    1
   333   320   305    1
   334   321   320    1
   335   322   320    1
   336   323   320    1
   337   324   323    1
   338   325   323    1
   339   326   323    1
   340   327   305    1
   341   328   327    1
   342   329   327    1
   343   330   327    1
   344   331   330    1
   345   332   330    1
   346   333   330    1
   347   334   335    1
   348   336   334    1
   349   337   334    1
   350   338   334    1
   351   339   340    1
   352   341   339    1
   353   342   339    1
   354   343   339    1
@<TRIPOS>SUBSTRUCTURE
     1 RES1        1 GROUP             0 ****  ****    0  
     2 RES2      218 GROUP             0 ****  ****    0  
     3 RES3      247 GROUP             0 ****  ****    0  
     4 RES4      276 GROUP             0 ****  ****    0  
     5 RES5      305 GROUP             0 ****  ****    0  
     6 RES6      334 GROUP             0 ****  ****    0  
     7 RES7      339 GROUP             0 ****  ****    0  
@<TRIPOS>CRYSIN
   17.5522   21.2914   35.9929   90.0000   90.0000   90.0000    19     1
