@<TRIPOS>MOLECULE
WOJVIB
   106   114     2     0     0
SMALL
NO_CHARGES
****
Generated from the CSD

@<TRIPOS>ATOM
     1 Fe1      8.1211  -0.7881   4.0178   Fe        1 RES1   0.0000
     2 O1      10.0675  -0.8123   4.1337   O.3       1 RES1   0.0000
     3 O2       8.0472  -0.2825   5.9028   O.3       1 RES1   0.0000
     4 O3      12.7867  -1.4220   1.0067   O.2       1 RES1   0.0000
     5 O4       4.6274   0.4490   8.1682   O.2       1 RES1   0.0000
     6 N1       8.1356  -1.2673   2.1688   N.2       1 RES1   0.0000
     7 N2       6.2286  -0.8481   3.8437   N.2       1 RES1   0.0000
     8 N3       8.1900   1.1694   3.5549   N.ar      1 RES1   0.0000
     9 N4       8.1752  -2.7141   4.6079   N.ar      1 RES1   0.0000
    10 C1      10.9115  -1.1266   3.2355   C.2       1 RES1   0.0000
    11 C2      10.5543  -1.3919   1.8547   C.2       1 RES1   0.0000
    12 C3       9.1976  -1.4555   1.4301   C.2       1 RES1   0.0000
    13 H1       9.0513  -1.6525   0.5329   H         1 RES1   0.0000
    14 C4       6.8276  -1.3685   1.5935   C.ar      1 RES1   0.0000
    15 C5       6.5389  -1.6559   0.2507   C.ar      1 RES1   0.0000
    16 H2       7.2321  -1.8062  -0.3493   H         1 RES1   0.0000
    17 C6       5.2205  -1.7175  -0.1836   C.ar      1 RES1   0.0000
    18 H3       5.0315  -1.9090  -1.0739   H         1 RES1   0.0000
    19 C7       4.1857  -1.4923   0.7191   C.ar      1 RES1   0.0000
    20 H4       3.3037  -1.5278   0.4274   H         1 RES1   0.0000
    21 C8       4.4615  -1.2104   2.0588   C.ar      1 RES1   0.0000
    22 H5       3.7618  -1.0647   2.6533   H         1 RES1   0.0000
    23 C9       5.7852  -1.1472   2.5115   C.ar      1 RES1   0.0000
    24 C10      5.3677  -0.6775   4.8217   C.2       1 RES1   0.0000
    25 H6       4.4677  -0.7862   4.6108   H         1 RES1   0.0000
    26 C11      5.6767  -0.3400   6.1860   C.2       1 RES1   0.0000
    27 C12      7.0269  -0.1741   6.6518   C.2       1 RES1   0.0000
    28 C13     12.3334  -1.2376   3.7314   C.3       1 RES1   0.0000
    29 H7      12.3393  -1.2240   4.6916   H         1 RES1   0.0000
    30 H8      12.8471  -0.4985   3.3985   H         1 RES1   0.0000
    31 H9      12.7178  -2.0610   3.4204   H         1 RES1   0.0000
    32 C14     11.5775  -1.5501   0.8123   C.2       1 RES1   0.0000
    33 C15     11.1477  -1.9251  -0.6150   C.3       1 RES1   0.0000
    34 H10     11.9254  -2.0092  -1.1712   H         1 RES1   0.0000
    35 H11     10.5741  -1.2401  -0.9657   H         1 RES1   0.0000
    36 H12     10.6741  -2.7609  -0.5972   H         1 RES1   0.0000
    37 C16      7.3576   0.1051   8.1188   C.3       1 RES1   0.0000
    38 H13      8.2887  -0.0656   8.2750   H         1 RES1   0.0000
    39 H14      6.8280  -0.4655   8.6791   H         1 RES1   0.0000
    40 H15      7.1622   1.0233   8.3202   H         1 RES1   0.0000
    41 C17      4.5292  -0.1497   7.0915   C.2       1 RES1   0.0000
    42 C18      3.1661  -0.6863   6.6901   C.3       1 RES1   0.0000
    43 H16      2.5871  -0.6929   7.4559   H         1 RES1   0.0000
    44 H17      3.2610  -1.5794   6.3532   H         1 RES1   0.0000
    45 H18      2.7901  -0.1239   6.0080   H         1 RES1   0.0000
    46 C19      7.3847   2.0865   4.1404   C.ar      1 RES1   0.0000
    47 H19      6.7575   1.7876   4.7587   H         1 RES1   0.0000
    48 C20      7.4395   3.4464   3.8724   C.ar      1 RES1   0.0000
    49 H20      6.8538   4.0211   4.3080   H         1 RES1   0.0000
    50 C21      8.3697   3.9739   2.9506   C.ar      1 RES1   0.0000
    51 C22      8.4683   5.4223   2.6300   C.ar      1 RES1   0.0000
    52 C23      7.4312   6.3118   2.9081   C.ar      1 RES1   0.0000
    53 H21      6.6566   5.9976   3.3177   H         1 RES1   0.0000
    54 C24      7.5385   7.6609   2.5835   C.ar      1 RES1   0.0000
    55 H22      6.8335   8.2365   2.7780   H         1 RES1   0.0000
    56 C25      8.6688   8.1571   1.9807   C.ar      1 RES1   0.0000
    57 H23      8.7239   9.0591   1.7643   H         1 RES1   0.0000
    58 C26      9.7114   7.3159   1.7027   C.ar      1 RES1   0.0000
    59 H24     10.4815   7.6415   1.2945   H         1 RES1   0.0000
    60 C27      9.6106   5.9697   2.0342   C.ar      1 RES1   0.0000
    61 H25     10.3302   5.4099   1.8547   H         1 RES1   0.0000
    62 C28      9.1841   3.0189   2.3383   C.ar      1 RES1   0.0000
    63 H26      9.8031   3.2880   1.6999   H         1 RES1   0.0000
    64 C29      9.0884   1.6784   2.6643   C.ar      1 RES1   0.0000
    65 H27      9.6736   1.0876   2.2492   H         1 RES1   0.0000
    66 C30      7.6166  -3.7770   3.9670   C.ar      1 RES1   0.0000
    67 H28      7.1252  -3.6130   3.1958   H         1 RES1   0.0000
    68 C31      7.7350  -5.0859   4.3926   C.ar      1 RES1   0.0000
    69 H29      7.3389  -5.7684   3.9012   H         1 RES1   0.0000
    70 C32      8.4494  -5.3933   5.5629   C.ar      1 RES1   0.0000
    71 C33      8.5900  -6.7986   6.0797   C.ar      1 RES1   0.0000
    72 C34      7.6006  -7.7542   5.8422   C.ar      1 RES1   0.0000
    73 H30      6.8509  -7.5269   5.3422   H         1 RES1   0.0000
    74 C35      7.7262  -9.0524   6.3477   C.ar      1 RES1   0.0000
    75 H31      7.0581  -9.6791   6.1847   H         1 RES1   0.0000
    76 C36      8.8392  -9.4070   7.0915   C.ar      1 RES1   0.0000
    77 H32      8.9282 -10.2719   7.4216   H         1 RES1   0.0000
    78 C37      9.8227  -8.4562   7.3394   C.ar      1 RES1   0.0000
    79 H33     10.5670  -8.6898   7.8462   H         1 RES1   0.0000
    80 C38      9.7118  -7.1534   6.8394   C.ar      1 RES1   0.0000
    81 H34     10.3787  -6.5281   7.0107   H         1 RES1   0.0000
    82 C39      9.0195  -4.2971   6.2326   C.ar      1 RES1   0.0000
    83 H35      9.5036  -4.4373   7.0148   H         1 RES1   0.0000
    84 C40      8.8686  -3.0135   5.7432   C.ar      1 RES1   0.0000
    85 H36      9.2614  -2.3151   6.2148   H         1 RES1   0.0000
    86 N5       8.9939  -1.5058  -3.9801   N.ar      2 RES2   0.0000
    87 C41     10.1097  -2.1949  -4.2135   C.ar      2 RES2   0.0000
    88 H37     10.7590  -1.8043  -4.7519   H         2 RES2   0.0000
    89 C42     10.3625  -3.4628  -3.7012   C.ar      2 RES2   0.0000
    90 H38     11.1614  -3.8945  -3.8998   H         2 RES2   0.0000
    91 C43      9.4037  -4.0891  -2.8807   C.ar      2 RES2   0.0000
    92 C44      9.6337  -5.4355  -2.2835   C.ar      2 RES2   0.0000
    93 C45     10.3273  -6.4202  -2.9930   C.ar      2 RES2   0.0000
    94 H39     10.6702  -6.2276  -3.8368   H         2 RES2   0.0000
    95 C46     10.5083  -7.6897  -2.4451   C.ar      2 RES2   0.0000
    96 H40     10.9499  -8.3460  -2.9328   H         2 RES2   0.0000
    97 C47     10.0292  -7.9765  -1.1698   C.ar      2 RES2   0.0000
    98 H41     10.1518  -8.8230  -0.8054   H         2 RES2   0.0000
    99 C48      9.3734  -6.9986  -0.4479   C.ar      2 RES2   0.0000
   100 H42      9.0646  -7.1854   0.4096   H         2 RES2   0.0000
   101 C49      9.1730  -5.7356  -1.0000   C.ar      2 RES2   0.0000
   102 H43      8.7265  -5.0846  -0.5082   H         2 RES2   0.0000
   103 C50      8.2267  -3.3839  -2.6602   C.ar      2 RES2   0.0000
   104 H44      7.5474  -3.7562  -2.1451   H         2 RES2   0.0000
   105 C51      8.0734  -2.1212  -3.2149   C.ar      2 RES2   0.0000
   106 H45      7.2790  -1.6693  -3.0451   H         2 RES2   0.0000
@<TRIPOS>BOND
     1     1     2    1
     2     2    10    1
     3     3     1    1
     4     4    32    2
     5     5    41    2
     6     6     1    1
     7     7     1    1
     8     8     1    1
     9     9     1    1
    10    10    11    2
    11    11    12    1
    12    12     6    2
    13    13    12    1
    14    14     6    1
    15    15    14   ar
    16    16    15    1
    17    17    15   ar
    18    18    17    1
    19    19    17   ar
    20    20    19    1
    21    21    19   ar
    22    22    21    1
    23    23     7    1
    24    24     7    2
    25    25    24    1
    26    26    24    1
    27    27     3    1
    28    28    10    1
    29    29    28    1
    30    30    28    1
    31    31    28    1
    32    32    11    1
    33    33    32    1
    34    34    33    1
    35    35    33    1
    36    36    33    1
    37    37    27    1
    38    38    37    1
    39    39    37    1
    40    40    37    1
    41    41    26    1
    42    42    41    1
    43    43    42    1
    44    44    42    1
    45    45    42    1
    46    46     8   ar
    47    47    46    1
    48    48    46   ar
    49    49    48    1
    50    50    48   ar
    51    51    50    1
    52    52    51   ar
    53    53    52    1
    54    54    52   ar
    55    55    54    1
    56    56    54   ar
    57    57    56    1
    58    58    56   ar
    59    59    58    1
    60    60    51   ar
    61    61    60    1
    62    62    50   ar
    63    63    62    1
    64    64     8   ar
    65    65    64    1
    66    66     9   ar
    67    67    66    1
    68    68    66   ar
    69    69    68    1
    70    70    68   ar
    71    71    70    1
    72    72    71   ar
    73    73    72    1
    74    74    72   ar
    75    75    74    1
    76    76    74   ar
    77    77    76    1
    78    78    76   ar
    79    79    78    1
    80    80    71   ar
    81    81    80    1
    82    82    70   ar
    83    83    82    1
    84    84     9   ar
    85    85    84    1
    86    14    23   ar
    87    21    23   ar
    88    26    27    2
    89    58    60   ar
    90    62    64   ar
    91    78    80   ar
    92    82    84   ar
    93    86    87   ar
    94    87    88    1
    95    89    87   ar
    96    90    89    1
    97    91    89   ar
    98    92    91    1
    99    93    92   ar
   100    94    93    1
   101    95    93   ar
   102    96    95    1
   103    97    95   ar
   104    98    97    1
   105    99    97   ar
   106   100    99    1
   107   101    92   ar
   108   102   101    1
   109   103    91   ar
   110   104   103    1
   111   105    86   ar
   112   106   105    1
   113    99   101   ar
   114   103   105   ar
@<TRIPOS>SUBSTRUCTURE
     1 RES1        1 GROUP             0 ****  ****    0  
     2 RES2       86 GROUP             0 ****  ****    0  
@<TRIPOS>CRYSIN
   11.8270   13.4788   14.8644  104.3140  103.2800  104.1830     2     1
