@<TRIPOS>MOLECULE
WOMMOD
   209   241     4     0     0
SMALL
NO_CHARGES
****
Generated from the CSD

@<TRIPOS>ATOM
     1 Fe1     11.1635   4.5750   5.1262   Fe        1 RES1   0.0000
     2 Fe2      9.1789   2.3188   5.1269   Fe        1 RES1   0.0000
     3 Fe3      6.5270   3.2845   6.3124   Fe        1 RES1   0.0000
     4 Fe4      6.4915   6.1203   7.3068   Fe        1 RES1   0.0000
     5 Fe5      7.2407   8.3222   4.8072   Fe        1 RES1   0.0000
     6 Fe6      7.8649   9.1965   7.5434   Fe        1 RES1   0.0000
     7 Fe7      9.0387   7.1459   9.2915   Fe        1 RES1   0.0000
     8 Fe8      9.4104   4.5182   8.0037   Fe        1 RES1   0.0000
     9 Fe9     10.2058   7.2550   6.0738   Fe        1 RES1   0.0000
    10 Fe10     7.9487   5.4969   4.2285   Fe        1 RES1   0.0000
    11 O1      11.0968   2.6251   5.4981   O.3       1 RES1   0.0000
    12 O2      12.8689   1.1270   5.2600   O.3       1 RES1   0.0000
    13 O3      11.4912   6.4381   4.6448   O.3       1 RES1   0.0000
    14 O4       7.2186   2.0547   4.9029   O.3       1 RES1   0.0000
    15 O5      12.9227   7.7187   3.3927   O.3       1 RES1   0.0000
    16 O6       6.0570   0.1871   4.0951   O.3       1 RES1   0.0000
    17 O7       5.6957   4.2468   7.8157   O.3       1 RES1   0.0000
    18 O8       4.3982   3.9707   9.6888   O.3       1 RES1   0.0000
    19 O9       6.5597   6.9252   3.6037   O.3       1 RES1   0.0000
    20 O10      5.0566   6.9197   1.9035   O.3       1 RES1   0.0000
    21 O11      7.9271   9.9524   5.7124   O.3       1 RES1   0.0000
    22 O12      7.8126  12.1434   5.0955   O.3       1 RES1   0.0000
    23 O13      7.7474   8.6259   9.4342   O.3       1 RES1   0.0000
    24 O14      7.5468  10.0001  11.1792   O.3       1 RES1   0.0000
    25 O15     10.2916   5.6573   9.4859   O.3       1 RES1   0.0000
    26 O16     11.9759   5.1888  10.9768   O.3       1 RES1   0.0000
    27 O17      9.3458   0.4048   5.9543   O.3       1 RES1   0.0000
    28 O18      8.9844   0.7319   8.0822   O.2       1 RES1   0.0000
    29 O19      9.5028  -1.1904   7.3695   O.2       1 RES1   0.0000
    30 O20      5.3328   6.9210   8.9322   O.3       1 RES1   0.0000
    31 O21      4.2904   6.5887   7.0692   O.3       1 RES1   0.0000
    32 O22      3.2318   7.4636   8.7646   O.2       1 RES1   0.0000
    33 O23      8.5746  11.1020   8.1972   O.3       1 RES1   0.0000
    34 O24      6.4299  10.7197   8.1091   O.3       1 RES1   0.0000
    35 O25      7.1334  12.7002   8.7651   O.2       1 RES1   0.0000
    36 O26      9.0104   3.1867   9.7508   O.3       1 RES1   0.0000
    37 O27     10.8531   3.0846   8.6446   O.3       1 RES1   0.0000
    38 O28     10.6520   1.9763  10.5146   O.2       1 RES1   0.0000
    39 O29     12.1651   8.0614   6.8294   O.3       1 RES1   0.0000
    40 O30     10.9456   9.1366   5.4222   O.3       1 RES1   0.0000
    41 O31     12.8109  10.0155   6.1368   O.2       1 RES1   0.0000
    42 O32      6.9375   4.3471   2.7116   O.3       1 RES1   0.0000
    43 O33      8.5464   5.6351   2.0843   O.3       1 RES1   0.0000
    44 O34      7.3281   4.6254   0.5810   O.2       1 RES1   0.0000
    45 O35     10.3845   5.4108   6.6855   O.3       1 RES1   0.0000
    46 O36      9.3374   4.1357   4.3969   O.3       1 RES1   0.0000
    47 O37      8.4845   3.1261   6.8948   O.3       1 RES1   0.0000
    48 H1       8.3981   2.5786   7.4531   H         1 RES1   0.0000
    49 O38      8.0077   5.7655   8.3560   O.3       1 RES1   0.0000
    50 O39      6.8445   5.0639   5.6952   O.3       1 RES1   0.0000
    51 O40      6.7891   7.8719   6.6771   O.3       1 RES1   0.0000
    52 O41      9.4138   8.0801   7.5966   O.3       1 RES1   0.0000
    53 O42      8.7725   7.0933   4.8622   O.3       1 RES1   0.0000
    54 O43      9.6320   1.2330   3.4626   O.3       1 RES1   0.0000
    55 O44      9.2044   2.5891   1.8946   O.2       1 RES1   0.0000
    56 O45     10.3393   0.8383   1.4983   O.2       1 RES1   0.0000
    57 N1      12.9708   4.2155   6.2096   N.ar      1 RES1   0.0000
    58 N2      12.1000   4.4222   3.1874   N.ar      1 RES1   0.0000
    59 N3       4.8594   3.0577   5.0069   N.ar      1 RES1   0.0000
    60 N4       5.9667   1.6950   7.6382   N.ar      1 RES1   0.0000
    61 N5       8.1620   9.4505   3.2356   N.ar      1 RES1   0.0000
    62 N6       5.1505   8.8194   4.5997   N.ar      1 RES1   0.0000
    63 N7       8.0268   6.8120  11.1789   N.ar      1 RES1   0.0000
    64 N8      10.7777   8.1265  10.0600   N.ar      1 RES1   0.0000
    65 N9       9.3054  -0.0316   7.1647   N.pl3     1 RES1   0.0000
    66 N10      9.6416   1.5689   2.2402   N.pl3     1 RES1   0.0000
    67 N11      4.2522   7.0040   8.2731   N.pl3     1 RES1   0.0000
    68 N12     12.0079   9.1060   6.1404   N.pl3     1 RES1   0.0000
    69 N13     10.1812   2.7170   9.6749   N.pl3     1 RES1   0.0000
    70 N14      7.6014   4.8693   1.7505   N.pl3     1 RES1   0.0000
    71 N15      7.3543  11.5562   8.3749   N.pl3     1 RES1   0.0000
    72 C1      13.7895   5.1780   6.6235   C.ar      1 RES1   0.0000
    73 H2      13.6659   6.0675   6.3124   H         1 RES1   0.0000
    74 C2      14.8443   4.8906   7.5242   C.ar      1 RES1   0.0000
    75 H3      15.4174   5.5824   7.8315   H         1 RES1   0.0000
    76 C3      15.0235   3.6109   7.9419   C.ar      1 RES1   0.0000
    77 H4      15.7397   3.3973   8.5280   H         1 RES1   0.0000
    78 C4      14.1605   2.6222   7.5123   C.ar      1 RES1   0.0000
    79 H5      14.2619   1.7231   7.8041   H         1 RES1   0.0000
    80 C5      13.1519   2.9773   6.6491   C.ar      1 RES1   0.0000
    81 C6      12.1483   1.9379   6.1371   C.3       1 RES1   0.0000
    82 H6      11.7944   1.3938   6.8983   H         1 RES1   0.0000
    83 C7      12.3152  -0.1841   5.0845   C.3       1 RES1   0.0000
    84 H7      11.5614  -0.1398   4.4592   H         1 RES1   0.0000
    85 H8      12.0026  -0.5256   5.9483   H         1 RES1   0.0000
    86 H9      13.0019  -0.7841   4.7254   H         1 RES1   0.0000
    87 C8      12.4982   3.2897   2.5638   C.ar      1 RES1   0.0000
    88 H10     12.4025   2.4529   3.0021   H         1 RES1   0.0000
    89 C9      13.0364   3.3401   1.3086   C.ar      1 RES1   0.0000
    90 H11     13.3258   2.5397   0.8859   H         1 RES1   0.0000
    91 C10     13.1612   4.5439   0.6550   C.ar      1 RES1   0.0000
    92 H12     13.5252   4.5776  -0.2220   H         1 RES1   0.0000
    93 C11     12.7597   5.6847   1.2753   C.ar      1 RES1   0.0000
    94 H13     12.8421   6.5252   0.8414   H         1 RES1   0.0000
    95 C12     12.2261   5.5983   2.5537   C.ar      1 RES1   0.0000
    96 C13     11.8035   6.8354   3.3596   C.3       1 RES1   0.0000
    97 H14     11.0183   7.2816   2.9305   H         1 RES1   0.0000
    98 C14     12.6959   8.9690   2.7434   C.3       1 RES1   0.0000
    99 H15     13.4864   9.5395   2.8474   H         1 RES1   0.0000
   100 H16     11.9196   9.4109   3.1467   H         1 RES1   0.0000
   101 H17     12.5265   8.8168   1.7903   H         1 RES1   0.0000
   102 C15      3.7069   3.7159   5.1350   C.ar      1 RES1   0.0000
   103 H18      3.5706   4.2778   5.8889   H         1 RES1   0.0000
   104 C16      2.6964   3.5933   4.1799   C.ar      1 RES1   0.0000
   105 H19      1.8725   4.0528   4.2917   H         1 RES1   0.0000
   106 C17      2.9030   2.8092   3.0866   C.ar      1 RES1   0.0000
   107 H20      2.2283   2.7305   2.4227   H         1 RES1   0.0000
   108 C18      4.0975   2.1268   2.9441   C.ar      1 RES1   0.0000
   109 H21      4.2570   1.5741   2.1882   H         1 RES1   0.0000
   110 C19      5.0600   2.2724   3.9356   C.ar      1 RES1   0.0000
   111 C20      6.3808   1.5508   3.8837   C.3       1 RES1   0.0000
   112 H22      6.8092   1.6724   2.9883   H         1 RES1   0.0000
   113 C21      7.0927  -0.7387   3.7404   C.3       1 RES1   0.0000
   114 H23      7.2948  -0.6528   2.7856   H         1 RES1   0.0000
   115 H24      6.7918  -1.6528   3.9293   H         1 RES1   0.0000
   116 H25      7.8975  -0.5454   4.2642   H         1 RES1   0.0000
   117 C22      5.9799   0.3660   7.3880   C.ar      1 RES1   0.0000
   118 H26      6.2671   0.0588   6.5364   H         1 RES1   0.0000
   119 C23      5.5917  -0.5414   8.3258   C.ar      1 RES1   0.0000
   120 H27      5.5693  -1.4690   8.1215   H         1 RES1   0.0000
   121 C24      5.2331  -0.0896   9.5757   C.ar      1 RES1   0.0000
   122 H28      4.9513  -0.7072  10.2392   H         1 RES1   0.0000
   123 C25      5.2842   1.2750   9.8727   C.ar      1 RES1   0.0000
   124 H29      5.0997   1.5976  10.7468   H         1 RES1   0.0000
   125 C26      5.6111   2.1262   8.8517   C.ar      1 RES1   0.0000
   126 C27      5.6080   3.6296   9.0508   C.3       1 RES1   0.0000
   127 H30      6.3835   3.8990   9.6226   H         1 RES1   0.0000
   128 C28      4.5480   4.5518  10.9830   C.3       1 RES1   0.0000
   129 H31      5.0822   5.3709  10.9137   H         1 RES1   0.0000
   130 H32      4.9995   3.9167  11.5767   H         1 RES1   0.0000
   131 H33      3.6644   4.7689  11.3480   H         1 RES1   0.0000
   132 C29      8.2982   9.0191   1.9813   C.ar      1 RES1   0.0000
   133 H34      7.8467   8.2232   1.7240   H         1 RES1   0.0000
   134 C30      9.0602   9.6728   1.0466   C.ar      1 RES1   0.0000
   135 H35      9.1491   9.3338   0.1634   H         1 RES1   0.0000
   136 C31      9.6971  10.8502   1.4348   C.ar      1 RES1   0.0000
   137 H36     10.2175  11.3418   0.8105   H         1 RES1   0.0000
   138 C32      9.5670  11.2895   2.7247   C.ar      1 RES1   0.0000
   139 H37      9.9972  12.0876   3.0077   H         1 RES1   0.0000
   140 C33      8.8010  10.5560   3.6075   C.ar      1 RES1   0.0000
   141 C34      8.5997  10.9723   5.0613   C.3       1 RES1   0.0000
   142 H38      9.4843  11.1373   5.4986   H         1 RES1   0.0000
   143 C35      8.4859  13.3036   5.5932   C.3       1 RES1   0.0000
   144 H39      9.2601  13.5004   5.0255   H         1 RES1   0.0000
   145 H40      8.7873  13.1377   6.5108   H         1 RES1   0.0000
   146 H41      7.8715  14.0668   5.5840   H         1 RES1   0.0000
   147 C36      4.5216   9.7836   5.2981   C.ar      1 RES1   0.0000
   148 H42      5.0377  10.4637   5.7137   H         1 RES1   0.0000
   149 C37      3.1538   9.8108   5.4267   C.ar      1 RES1   0.0000
   150 H43      2.7328  10.5095   5.9140   H         1 RES1   0.0000
   151 C38      2.3879   8.8080   4.8385   C.ar      1 RES1   0.0000
   152 H44      1.4419   8.8087   4.9204   H         1 RES1   0.0000
   153 C39      3.0402   7.8045   4.1265   C.ar      1 RES1   0.0000
   154 H45      2.5526   7.0975   3.7223   H         1 RES1   0.0000
   155 C40      4.4276   7.8656   4.0233   C.ar      1 RES1   0.0000
   156 C41      5.2134   6.7776   3.3098   C.3       1 RES1   0.0000
   157 H46      4.8946   5.8759   3.6019   H         1 RES1   0.0000
   158 C42      4.2129   5.9297   1.3112   C.3       1 RES1   0.0000
   159 H47      4.1690   6.0747   0.3430   H         1 RES1   0.0000
   160 H48      3.3131   5.9961   1.6929   H         1 RES1   0.0000
   161 H49      4.5792   5.0384   1.4913   H         1 RES1   0.0000
   162 C43      8.2078   5.7470  11.9599   C.ar      1 RES1   0.0000
   163 H50      8.8565   5.0964  11.7180   H         1 RES1   0.0000
   164 C44      7.4637   5.5702  13.1241   C.ar      1 RES1   0.0000
   165 H51      7.6453   4.8392  13.7026   H         1 RES1   0.0000
   166 C45      6.4754   6.4538  13.4252   C.ar      1 RES1   0.0000
   167 H52      5.9297   6.3266  14.1921   H         1 RES1   0.0000
   168 C46      6.2803   7.5393  12.5958   C.ar      1 RES1   0.0000
   169 H53      5.6021   8.1751  12.7893   H         1 RES1   0.0000
   170 C47      7.0879   7.6931  11.4735   C.ar      1 RES1   0.0000
   171 C48      6.9684   8.8740  10.5443   C.3       1 RES1   0.0000
   172 H54      6.0155   9.0449  10.2916   H         1 RES1   0.0000
   173 C49      6.6544  10.9517  11.6541   C.3       1 RES1   0.0000
   174 H55      5.9936  11.1549  10.9598   H         1 RES1   0.0000
   175 H56      7.1429  11.7677  11.8897   H         1 RES1   0.0000
   176 H57      6.1978  10.6032  12.4481   H         1 RES1   0.0000
   177 C50     10.9107   9.4248  10.2564   C.ar      1 RES1   0.0000
   178 H58     10.1315   9.9579  10.3667   H         1 RES1   0.0000
   179 C51     12.0963  10.0015  10.3031   C.ar      1 RES1   0.0000
   180 H59     12.1654  10.9283  10.4968   H         1 RES1   0.0000
   181 C52     13.2225   9.2661  10.0732   C.ar      1 RES1   0.0000
   182 H60     14.0729   9.6892  10.0473   H         1 RES1   0.0000
   183 C53     13.1173   7.8868   9.8751   C.ar      1 RES1   0.0000
   184 H61     13.8849   7.3439   9.7373   H         1 RES1   0.0000
   185 C54     11.8735   7.3592   9.8890   C.ar      1 RES1   0.0000
   186 C55     11.6461   5.8517   9.7386   C.3       1 RES1   0.0000
   187 H62     12.1975   5.4876   8.9885   H         1 RES1   0.0000
   188 C56     13.1256   4.3738  10.8891   C.3       1 RES1   0.0000
   189 H63     12.9674   3.6531  10.2438   H         1 RES1   0.0000
   190 H64     13.3206   3.9873  11.7685   H         1 RES1   0.0000
   191 H65     13.8882   4.9143  10.5939   H         1 RES1   0.0000
   192 O46      6.1915   1.6985   0.0718   O.3       2 RES2   0.0000
   193 H66      5.6264   2.2466  -0.2213   H         2 RES2   0.0000
   194 C57      5.5678   0.3765   0.1964   C.3       2 RES2   0.0000
   195 H67      4.6243   0.4816   0.4394   H         2 RES2   0.0000
   196 H68      6.0286  -0.1368   0.8940   H         2 RES2   0.0000
   197 H69      5.6351  -0.0998  -0.6568   H         2 RES2   0.0000
   198 O47      7.7242  13.8286   0.8646   O.3       3 RES3   0.0000
   199 H70      7.9199  13.3564   0.1989   H         3 RES3   0.0000
   200 C58      6.7502  13.1269   1.6884   C.3       3 RES3   0.0000
   201 H71      5.8466  13.3212   1.3616   H         3 RES3   0.0000
   202 H72      6.8319  13.4262   2.6183   H         3 RES3   0.0000
   203 H73      6.9149  12.1626   1.6398   H         3 RES3   0.0000
   204 O48     16.2998  11.2343   0.3281   O.3       4 RES4   0.0000
   205 H74     16.0536  12.0358   0.3697   H         4 RES4   0.0000
   206 C59     16.7230  10.7710   1.6837   C.3       4 RES4   0.0000
   207 H75     16.7992   9.7937   1.6854   H         4 RES4   0.0000
   208 H76     16.0556  11.0477   2.3455   H         4 RES4   0.0000
   209 H77     17.5904  11.1669   1.9080   H         4 RES4   0.0000
@<TRIPOS>BOND
     1     1    11    1
     2     2    11    1
     3     3    14    1
     4     4    17    1
     5     5    19    1
     6     6    21    1
     7     7    23    1
     8     8    25    1
     9     9    13    1
    10    10    19    1
    11    11    81    1
    12    12    81    1
    13    13     1    1
    14    14     2    1
    15    15    96    1
    16    16   111    1
    17    17     3    1
    18    18   126    1
    19    19   156    1
    20    20   156    1
    21    21     5    1
    22    22   141    1
    23    23     6    1
    24    24   171    1
    25    25     7    1
    26    26   186    1
    27    27     2    1
    28    28    65    2
    29    29    65    2
    30    30     4    1
    31    31     4    1
    32    32    67    2
    33    33     6    1
    34    34     6    1
    35    35    71    2
    36    36     8    1
    37    37     8    1
    38    38    69    2
    39    39     9    1
    40    40     9    1
    41    41    68    2
    42    42    10    1
    43    43    10    1
    44    44    70    2
    45    45     1    1
    46    46     1    1
    47    47     2    1
    48    48    47    1
    49    49     4    1
    50    50     3    1
    51    51     4    1
    52    52     6    1
    53    53     5    1
    54    54     2    1
    55    55    66    2
    56    56    66    2
    57    57     1    1
    58    58     1    1
    59    59     3    1
    60    60     3    1
    61    61     5    1
    62    62     5    1
    63    63     7    1
    64    64     7    1
    65    65    27    1
    66    66    54    1
    67    67    30    1
    68    68    39    1
    69    69    36    1
    70    70    42    1
    71    71    33    1
    72    72    57   ar
    73    73    72    1
    74    74    72   ar
    75    75    74    1
    76    76    74   ar
    77    77    76    1
    78    78    76   ar
    79    79    78    1
    80    80    57   ar
    81    81    80    1
    82    82    81    1
    83    83    12    1
    84    84    83    1
    85    85    83    1
    86    86    83    1
    87    87    58   ar
    88    88    87    1
    89    89    87   ar
    90    90    89    1
    91    91    89   ar
    92    92    91    1
    93    93    91   ar
    94    94    93    1
    95    95    58   ar
    96    96    13    1
    97    97    96    1
    98    98    15    1
    99    99    98    1
   100   100    98    1
   101   101    98    1
   102   102    59   ar
   103   103   102    1
   104   104   102   ar
   105   105   104    1
   106   106   104   ar
   107   107   106    1
   108   108   106   ar
   109   109   108    1
   110   110    59   ar
   111   111    14    1
   112   112   111    1
   113   113    16    1
   114   114   113    1
   115   115   113    1
   116   116   113    1
   117   117    60   ar
   118   118   117    1
   119   119   117   ar
   120   120   119    1
   121   121   119   ar
   122   122   121    1
   123   123   121   ar
   124   124   123    1
   125   125    60   ar
   126   126    17    1
   127   127   126    1
   128   128    18    1
   129   129   128    1
   130   130   128    1
   131   131   128    1
   132   132    61   ar
   133   133   132    1
   134   134   132   ar
   135   135   134    1
   136   136   134   ar
   137   137   136    1
   138   138   136   ar
   139   139   138    1
   140   140    61   ar
   141   141    21    1
   142   142   141    1
   143   143    22    1
   144   144   143    1
   145   145   143    1
   146   146   143    1
   147   147    62   ar
   148   148   147    1
   149   149   147   ar
   150   150   149    1
   151   151   149   ar
   152   152   151    1
   153   153   151   ar
   154   154   153    1
   155   155    62   ar
   156   156   155    1
   157   157   156    1
   158   158    20    1
   159   159   158    1
   160   160   158    1
   161   161   158    1
   162   162    63   ar
   163   163   162    1
   164   164   162   ar
   165   165   164    1
   166   166   164   ar
   167   167   166    1
   168   168   166   ar
   169   169   168    1
   170   170    63   ar
   171   171    23    1
   172   172   171    1
   173   173    24    1
   174   174   173    1
   175   175   173    1
   176   176   173    1
   177   177    64   ar
   178   178   177    1
   179   179   177   ar
   180   180   179    1
   181   181   179   ar
   182   182   181    1
   183   183   181   ar
   184   184   183    1
   185   185    64   ar
   186   186    25    1
   187   187   186    1
   188   188    26    1
   189   189   188    1
   190   190   188    1
   191   191   188    1
   192     2    46    1
   193     3    47    1
   194     4    50    1
   195     5    51    1
   196     6    51    1
   197     7    49    1
   198     7    52    1
   199     8    45    1
   200     8    47    1
   201     8    49    1
   202     9    45    1
   203     9    52    1
   204     9    53    1
   205    10    46    1
   206    10    50    1
   207    10    53    1
   208    31    67    1
   209    34    71    1
   210    37    69    1
   211    40    68    1
   212    43    70    1
   213    78    80   ar
   214    93    95   ar
   215    95    96    1
   216   108   110   ar
   217   110   111    1
   218   123   125   ar
   219   125   126    1
   220   138   140   ar
   221   140   141    1
   222   153   155   ar
   223   168   170   ar
   224   170   171    1
   225   183   185   ar
   226   185   186    1
   227   192   193    1
   228   194   192    1
   229   195   194    1
   230   196   194    1
   231   197   194    1
   232   198   199    1
   233   200   198    1
   234   201   200    1
   235   202   200    1
   236   203   200    1
   237   204   205    1
   238   206   204    1
   239   207   206    1
   240   208   206    1
   241   209   206    1
@<TRIPOS>SUBSTRUCTURE
     1 RES1        1 GROUP             0 ****  ****    0  
     2 RES2      192 GROUP             0 ****  ****    0  
     3 RES3      198 GROUP             0 ****  ****    0  
     4 RES4      204 GROUP             0 ****  ****    0  
@<TRIPOS>CRYSIN
   13.3894   14.6630   24.6137   77.0190   82.0900   66.5980     2     1
