@<TRIPOS>MOLECULE
WOMXEB
   152   158     8     0     0
SMALL
USER_CHARGES
****
Generated from the CSD

@<TRIPOS>ATOM
     1 Fe1      3.0726   4.0084   2.7856   Fe        1 RES1   2.0000
     2 N1       3.4455   5.0329   1.1328   N.ar      1 RES1   0.0000
     3 N2       1.3730   3.9289   1.9783   N.ar      1 RES1   0.0000
     4 N3       2.1430   2.8605   4.1080   N.ar      1 RES1   0.0000
     5 N4       2.7064   5.6877   3.7732   N.ar      1 RES1   0.0000
     6 N5       4.7065   4.1685   3.6962   N.ar      1 RES1   0.0000
     7 N6       3.9835   2.4111   2.0899   N.ar      1 RES1   0.0000
     8 N7      -5.1638   4.7386  -0.3323   N.ar      1 RES1   1.0000
     9 N8      10.8385   5.1823   6.8279   N.ar      1 RES1   1.0000
    10 C1       4.6549   5.5132   0.7185   C.ar      1 RES1   0.0000
    11 H1       5.3999   5.3832   1.2573   H         1 RES1   0.0000
    12 C2       4.8003   6.1843  -0.4773   C.ar      1 RES1   0.0000
    13 H2       5.6387   6.4797  -0.7467   H         1 RES1   0.0000
    14 C3       3.6945   6.4154  -1.2753   C.ar      1 RES1   0.0000
    15 H3       3.7779   6.8839  -2.0745   H         1 RES1   0.0000
    16 C4       2.4625   5.9414  -0.8660   C.ar      1 RES1   0.0000
    17 H4       1.7060   6.0804  -1.3894   H         1 RES1   0.0000
    18 C5       2.3710   5.2564   0.3297   C.ar      1 RES1   0.0000
    19 C6       1.1317   4.6701   0.8698   C.ar      1 RES1   0.0000
    20 C7      -0.1525   4.8226   0.3939   C.ar      1 RES1   0.0000
    21 H5      -0.3094   5.3293  -0.3695   H         1 RES1   0.0000
    22 C8      -1.2178   4.2182   1.0572   C.ar      1 RES1   0.0000
    23 C9      -0.9451   3.4383   2.1874   C.ar      1 RES1   0.0000
    24 H6      -1.6345   3.0055   2.6365   H         1 RES1   0.0000
    25 C10      0.3550   3.3200   2.6301   C.ar      1 RES1   0.0000
    26 C11      0.8382   2.5997   3.8155   C.ar      1 RES1   0.0000
    27 C12      0.0729   1.7109   4.5583   C.ar      1 RES1   0.0000
    28 H7      -0.8238   1.5633   4.3569   H         1 RES1   0.0000
    29 C13      0.6893   1.0457   5.6142   C.ar      1 RES1   0.0000
    30 H8       0.2091   0.4290   6.1171   H         1 RES1   0.0000
    31 C14      2.0105   1.2987   5.9196   C.ar      1 RES1   0.0000
    32 H9       2.4248   0.8681   6.6316   H         1 RES1   0.0000
    33 C15      2.7094   2.2063   5.1408   C.ar      1 RES1   0.0000
    34 H10      3.6019   2.3709   5.3397   H         1 RES1   0.0000
    35 C16     -7.2130   3.8068  -1.3933   C.ar      1 RES1   0.0000
    36 C17     -8.1438   2.9277  -0.8532   C.ar      1 RES1   0.0000
    37 H11     -8.4519   3.0504   0.0154   H         1 RES1   0.0000
    38 C18     -8.6165   1.8636  -1.6140   C.ar      1 RES1   0.0000
    39 H12     -9.2386   1.2744  -1.2534   H         1 RES1   0.0000
    40 C19     -8.1576   1.6786  -2.9123   C.ar      1 RES1   0.0000
    41 H13     -8.4728   0.9666  -3.4216   H         1 RES1   0.0000
    42 C20     -7.2265   2.5593  -3.4511   C.ar      1 RES1   0.0000
    43 H14     -6.9180   2.4365  -4.3210   H         1 RES1   0.0000
    44 C21     -6.7534   3.6234  -2.6916   C.ar      1 RES1   0.0000
    45 H15     -6.1320   4.2110  -3.0522   H         1 RES1   0.0000
    46 C22     -6.5684   4.9528  -0.8147   C.3       1 RES1   0.0000
    47 H16     -7.1049   5.2586  -0.0654   H         1 RES1   0.0000
    48 H17     -6.5601   5.6635  -1.4741   H         1 RES1   0.0000
    49 C23     -4.2891   5.7492  -0.4311   C.ar      1 RES1   0.0000
    50 H18     -4.5519   6.5529  -0.8172   H         1 RES1   0.0000
    51 C24     -3.0145   5.6029   0.0334   C.ar      1 RES1   0.0000
    52 H19     -2.4257   6.3217  -0.0090   H         1 RES1   0.0000
    53 C25     -2.5893   4.4063   0.5671   C.ar      1 RES1   0.0000
    54 C26     -3.5273   3.3804   0.6582   C.ar      1 RES1   0.0000
    55 H20     -3.2853   2.5645   1.0315   H         1 RES1   0.0000
    56 C27     -4.8029   3.5666   0.2053   C.ar      1 RES1   0.0000
    57 H21     -5.4213   2.8769   0.2694   H         1 RES1   0.0000
    58 C28      1.6134   6.4727   3.7283   C.ar      1 RES1   0.0000
    59 H22      0.8901   6.1909   3.2151   H         1 RES1   0.0000
    60 C29      1.5098   7.6518   4.3916   C.ar      1 RES1   0.0000
    61 H23      0.7294   8.1549   4.3338   H         1 RES1   0.0000
    62 C30      2.5716   8.1008   5.1536   C.ar      1 RES1   0.0000
    63 H24      2.5330   8.9198   5.5937   H         1 RES1   0.0000
    64 C31      3.6926   7.2969   5.2409   C.ar      1 RES1   0.0000
    65 H25      4.4107   7.5601   5.7694   H         1 RES1   0.0000
    66 C32      3.7524   6.1104   4.5481   C.ar      1 RES1   0.0000
    67 C33      4.8819   5.1963   4.5494   C.ar      1 RES1   0.0000
    68 C34      6.0541   5.3343   5.2678   C.ar      1 RES1   0.0000
    69 H26      6.1662   6.0377   5.8670   H         1 RES1   0.0000
    70 C35      7.0614   4.4005   5.0728   C.ar      1 RES1   0.0000
    71 C36      6.8632   3.3186   4.2402   C.ar      1 RES1   0.0000
    72 H27      7.5225   2.6722   4.1324   H         1 RES1   0.0000
    73 C37      5.6469   3.2218   3.5628   C.ar      1 RES1   0.0000
    74 C38      5.2375   2.1688   2.6044   C.ar      1 RES1   0.0000
    75 C39      5.9598   1.0386   2.3093   C.ar      1 RES1   0.0000
    76 H28      6.7891   0.8900   2.7006   H         1 RES1   0.0000
    77 C40      5.4277   0.1253   1.4189   C.ar      1 RES1   0.0000
    78 H29      5.8986  -0.6433   1.1919   H         1 RES1   0.0000
    79 C41      4.1781   0.3756   0.8698   C.ar      1 RES1   0.0000
    80 H30      3.8026  -0.2261   0.2681   H         1 RES1   0.0000
    81 C42      3.5039   1.5099   1.2175   C.ar      1 RES1   0.0000
    82 H31      2.6735   1.6661   0.8314   H         1 RES1   0.0000
    83 C43     12.4417   3.9003   9.3746   C.ar      1 RES1   0.0000
    84 H32     11.9309   4.5030   9.8672   H         1 RES1   0.0000
    85 C44     12.9027   2.7477   9.9840   C.ar      1 RES1   0.0000
    86 H33     12.7537   2.6126  10.8923   H         1 RES1   0.0000
    87 C45     13.5642   1.8172   9.2694   C.ar      1 RES1   0.0000
    88 H34     13.8863   1.0457   9.6760   H         1 RES1   0.0000
    89 C46     13.7521   2.0302   7.9415   C.ar      1 RES1   0.0000
    90 H35     14.1576   1.3692   7.4257   H         1 RES1   0.0000
    91 C47     13.3549   3.1982   7.3436   C.ar      1 RES1   0.0000
    92 H36     13.5177   3.3347   6.4392   H         1 RES1   0.0000
    93 C48     12.7164   4.1731   8.0813   C.ar      1 RES1   0.0000
    94 C49     12.2011   5.4203   7.4155   C.3       1 RES1   0.0000
    95 H37     12.1516   6.1371   8.0672   H         1 RES1   0.0000
    96 H38     12.8146   5.6905   6.7150   H         1 RES1   0.0000
    97 C50     10.7808   4.6808   5.5834   C.ar      1 RES1   0.0000
    98 H39     11.5602   4.5282   5.1010   H         1 RES1   0.0000
    99 C51      9.5550   4.3978   5.0318   C.ar      1 RES1   0.0000
   100 H40      9.5111   4.0437   4.1722   H         1 RES1   0.0000
   101 C52      8.3926   4.6286   5.7245   C.ar      1 RES1   0.0000
   102 C53      8.4919   5.1360   7.0037   C.ar      1 RES1   0.0000
   103 H41      7.7215   5.2915   7.5027   H         1 RES1   0.0000
   104 C54      9.7305   5.4145   7.5425   C.ar      1 RES1   0.0000
   105 H42      9.7970   5.7624   8.4021   H         1 RES1   0.0000
   106 P1       0.7167  -1.2652   9.0500   P.3       2 RES2  -1.0000
   107 F1      -0.6320  -0.9245   8.2353   F         2 RES2   0.0000
   108 F2       1.2709  -1.6647   7.6233   F         2 RES2   0.0000
   109 F3       1.1150   0.2458   8.8473   F         2 RES2   0.0000
   110 F4       2.0198  -1.6031   9.7389   F         2 RES2   0.0000
   111 F5      -0.0374  -0.8952  10.3458   F         2 RES2   0.0000
   112 F6       0.2720  -2.7962   9.2450   F         2 RES2   0.0000
   113 P2       7.9815   7.1969   2.3003   P.3       3 RES3  -1.0000
   114 F7       7.4946   7.3439   0.7736   F         3 RES3   0.0000
   115 F8       8.2564   8.7688   2.3414   F         3 RES3   0.0000
   116 F9       9.4600   6.9396   1.7949   F         3 RES3   0.0000
   117 F10      8.4401   7.0869   3.8194   F         3 RES3   0.0000
   118 F11      7.6717   5.6312   2.2477   F         3 RES3   0.0000
   119 F12      6.4774   7.4774   2.7891   F         3 RES3   0.0000
   120 P3       0.0000   0.0000   0.0000   P.3       4 RES4  -1.0000
   121 F13     -0.5922   0.1309  -1.4472   F         4 RES4   0.0000
   122 F14     -1.3835   0.3764   0.6145   F         4 RES4   0.0000
   123 F15     -0.4514  -1.5228  -0.0167   F         4 RES4   0.0000
   124 F13A     0.5922  -0.1309   1.4472   F         4 RES4   0.0000
   125 F14A     1.3835  -0.3764  -0.6145   F         4 RES4   0.0000
   126 F15A     0.4514   1.5228   0.0167   F         4 RES4   0.0000
   127 P4      13.3169   7.2980   3.8283   P.3       5 RES5  -1.0000
   128 F16     14.3750   7.2060   2.6403   F         5 RES5   0.0000
   129 F17     14.0296   8.6264   4.3505   F         5 RES5   0.0000
   130 F18     12.2614   7.3974   5.0407   F         5 RES5   0.0000
   131 F19     14.2971   6.4398   4.7546   F         5 RES5   0.0000
   132 F20     12.3491   8.1834   2.9508   F         5 RES5   0.0000
   133 F21     12.6228   5.9677   3.3370   F         5 RES5   0.0000
   134 P5       6.0010  -0.0609   6.4148   P.3       6 RES6  -1.0000
   135 F22      5.2000  -0.1281   5.0471   F         6 RES6   0.0000
   136 F23      7.3257   0.3231   5.5847   F         6 RES6   0.0000
   137 F24      5.6139   1.4597   6.5046   F         6 RES6   0.0000
   138 F22A     6.8021   0.0062   7.7824   F         6 RES6   0.0000
   139 F23A     4.6764  -0.4449   7.2448   F         6 RES6   0.0000
   140 F24A     6.3882  -1.5815   6.3250   F         6 RES6   0.0000
   141 N9       8.6083   3.4295  10.0943   N.1       7 RES7   0.0000
   142 C55      9.0284   2.5530   9.5401   C.1       7 RES7   0.0000
   143 C56      9.5899   1.4364   8.7908   C.3       7 RES7   0.0000
   144 H43      8.8791   0.8846   8.4572   H         7 RES7   0.0000
   145 H44     10.1556   0.9161   9.3669   H         7 RES7   0.0000
   146 H45     10.1065   1.7733   8.0544   H         7 RES7   0.0000
   147 N10     -9.4938   4.6013  -5.6822   N.1       8 RES8   0.0000
   148 C57    -10.1405   4.1922  -4.8098   C.1       8 RES8   0.0000
   149 C58    -10.9024   3.7128  -3.6718   C.3       8 RES8   0.0000
   150 H46    -10.9311   2.7542  -3.6859   H         8 RES8   0.0000
   151 H47    -11.7976   4.0601  -3.7154   H         8 RES8   0.0000
   152 H48    -10.4844   4.0088  -2.8597   H         8 RES8   0.0000
@<TRIPOS>BOND
     1     1     2    1
     2     2    10   ar
     3     3     1    1
     4     4     1    1
     5     5     1    1
     6     6     1    1
     7     7     1    1
     8     8    46    1
     9     9    94    1
    10    10    11    1
    11    12    10   ar
    12    13    12    1
    13    14    12   ar
    14    15    14    1
    15    16    14   ar
    16    17    16    1
    17    18     2   ar
    18    19     3   ar
    19    20    19   ar
    20    21    20    1
    21    22    20   ar
    22    23    22   ar
    23    24    23    1
    24    25     3   ar
    25    26     4   ar
    26    27    26   ar
    27    28    27    1
    28    29    27   ar
    29    30    29    1
    30    31    29   ar
    31    32    31    1
    32    33     4   ar
    33    34    33    1
    34    35    36   ar
    35    36    37    1
    36    38    36   ar
    37    39    38    1
    38    40    38   ar
    39    41    40    1
    40    42    40   ar
    41    43    42    1
    42    44    35   ar
    43    45    44    1
    44    46    35    1
    45    47    46    1
    46    48    46    1
    47    49     8   ar
    48    50    49    1
    49    51    49   ar
    50    52    51    1
    51    53    22    1
    52    54    53   ar
    53    55    54    1
    54    56     8   ar
    55    57    56    1
    56    58     5   ar
    57    59    58    1
    58    60    58   ar
    59    61    60    1
    60    62    60   ar
    61    63    62    1
    62    64    62   ar
    63    65    64    1
    64    66     5   ar
    65    67     6   ar
    66    68    67   ar
    67    69    68    1
    68    70    68   ar
    69    71    70   ar
    70    72    71    1
    71    73     6   ar
    72    74     7   ar
    73    75    74   ar
    74    76    75    1
    75    77    75   ar
    76    78    77    1
    77    79    77   ar
    78    80    79    1
    79    81     7   ar
    80    82    81    1
    81    83    84    1
    82    85    83   ar
    83    86    85    1
    84    87    85   ar
    85    88    87    1
    86    89    87   ar
    87    90    89    1
    88    91    89   ar
    89    92    91    1
    90    93    83   ar
    91    94    93    1
    92    95    94    1
    93    96    94    1
    94    97     9   ar
    95    98    97    1
    96    99    97   ar
    97   100    99    1
    98   101    70    1
    99   102   101   ar
   100   103   102    1
   101   104     9   ar
   102   105   104    1
   103    16    18   ar
   104    18    19    1
   105    23    25   ar
   106    25    26    1
   107    31    33   ar
   108    42    44   ar
   109    51    53   ar
   110    54    56   ar
   111    64    66   ar
   112    66    67    1
   113    71    73   ar
   114    73    74    1
   115    79    81   ar
   116    91    93   ar
   117    99   101   ar
   118   102   104   ar
   119   106   107    1
   120   108   106    1
   121   109   106    1
   122   110   106    1
   123   111   106    1
   124   112   106    1
   125   113   114    1
   126   115   113    1
   127   116   113    1
   128   117   113    1
   129   118   113    1
   130   119   113    1
   131   120   121    1
   132   122   120    1
   133   123   120    1
   134   124   120    1
   135   125   120    1
   136   126   120    1
   137   127   128    1
   138   129   127    1
   139   130   127    1
   140   131   127    1
   141   132   127    1
   142   133   127    1
   143   134   135    1
   144   136   134    1
   145   137   134    1
   146   138   134    1
   147   139   134    1
   148   140   134    1
   149   141   142    3
   150   142   143    1
   151   143   144    1
   152   145   143    1
   153   146   143    1
   154   147   148    3
   155   148   149    1
   156   149   150    1
   157   151   149    1
   158   152   149    1
@<TRIPOS>SUBSTRUCTURE
     1 RES1        1 GROUP             0 ****  ****    0  
     2 RES2      106 GROUP             0 ****  ****    0  
     3 RES3      113 GROUP             0 ****  ****    0  
     4 RES4      120 GROUP             0 ****  ****    0  
     5 RES5      127 GROUP             0 ****  ****    0  
     6 RES6      134 GROUP             0 ****  ****    0  
     7 RES7      141 GROUP             0 ****  ****    0  
     8 RES8      147 GROUP             0 ****  ****    0  
@<TRIPOS>CRYSIN
   15.8440   16.9400   13.3930   97.3100  106.6700   65.5000     2     1
