@<TRIPOS>MOLECULE
WONXUU
    99   109     3     0     0
SMALL
NO_CHARGES
****
Generated from the CSD

@<TRIPOS>ATOM
     1 Fe1      2.9416   1.9177   9.0711   Fe        1 RES1   0.0000
     2 O1      10.9201   2.1108   4.7605   O.3       1 RES1   0.0000
     3 O2      -1.0604   3.5433   0.9978   O.3       1 RES1   0.0000
     4 O3       3.9373   0.0232   8.7191   O.3       1 RES1   0.0000
     5 O4       2.9416  -1.8551   9.0711   O.2       1 RES1   0.0000
     6 N1       3.5304   2.4298   7.1516   N.2       1 RES1   0.0000
     7 N2       4.8515   2.4974   9.6601   N.2       1 RES1   0.0000
     8 N3       2.9416  -0.5789   9.0711   N.pl3     1 RES1   0.0000
     9 C1       2.7359   2.6052   6.0317   C.2       1 RES1   0.0000
    10 C2       3.5637   2.6390   4.8645   C.2       1 RES1   0.0000
    11 H1       3.2753   2.7594   3.9889   H         1 RES1   0.0000
    12 C3       4.8424   2.4615   5.2636   C.2       1 RES1   0.0000
    13 H2       5.5914   2.4066   4.7145   H         1 RES1   0.0000
    14 C4       4.8261   2.3728   6.6787   C.2       1 RES1   0.0000
    15 C5       5.9679   2.3453   7.4818   C.2       1 RES1   0.0000
    16 C6       5.9586   2.4510   8.8582   C.2       1 RES1   0.0000
    17 C7       7.1555   2.5672   9.6710   C.2       1 RES1   0.0000
    18 H3       8.0330   2.5629   9.3638   H         1 RES1   0.0000
    19 C8       6.7537   2.6834  10.9627   C.2       1 RES1   0.0000
    20 H4       7.3039   2.7721  11.7077   H         1 RES1   0.0000
    21 C9       5.3132   2.6454  10.9603   C.2       1 RES1   0.0000
    22 C10      1.3435   2.7172   6.0329   C.2       1 RES1   0.0000
    23 C11      7.2927   2.2587   6.7779   C.ar      1 RES1   0.0000
    24 C12      7.8019   1.0734   6.3812   C.ar      1 RES1   0.0000
    25 H5       7.3164   0.3000   6.5517   H         1 RES1   0.0000
    26 C13      9.0212   0.9635   5.7305   C.ar      1 RES1   0.0000
    27 H6       9.3569   0.1289   5.4934   H         1 RES1   0.0000
    28 C14      9.7225   2.1023   5.4414   C.ar      1 RES1   0.0000
    29 C15      9.2328   3.3215   5.8212   C.ar      1 RES1   0.0000
    30 H7       9.7085   4.0969   5.6301   H         1 RES1   0.0000
    31 C16      8.0205   3.3828   6.4937   C.ar      1 RES1   0.0000
    32 H8       7.6933   4.2110   6.7586   H         1 RES1   0.0000
    33 C17      0.6766   2.9433   4.7097   C.ar      1 RES1   0.0000
    34 C18      0.6049   4.2152   4.1739   C.ar      1 RES1   0.0000
    35 H9       0.9509   4.9336   4.6541   H         1 RES1   0.0000
    36 C19      0.0179   4.4455   2.9257   C.ar      1 RES1   0.0000
    37 H10     -0.0052   5.3055   2.5726   H         1 RES1   0.0000
    38 C20     -0.5076   3.4250   2.2412   C.ar      1 RES1   0.0000
    39 C21     -0.4544   2.1657   2.7528   C.ar      1 RES1   0.0000
    40 H11     -0.8118   1.4558   2.2702   H         1 RES1   0.0000
    41 C22      0.1281   1.9333   3.9913   C.ar      1 RES1   0.0000
    42 H12      0.1431   1.0691   4.3348   H         1 RES1   0.0000
    43 C23     11.4615   0.8494   4.3529   C.3       1 RES1   0.0000
    44 H13     12.2882   0.9910   3.8873   H         1 RES1   0.0000
    45 H14     10.8375   0.4057   3.7724   H         1 RES1   0.0000
    46 H15     11.6192   0.3043   5.1270   H         1 RES1   0.0000
    47 C24     -1.1690   4.8512   0.4584   C.3       1 RES1   0.0000
    48 H16     -1.5716   4.8047  -0.4124   H         1 RES1   0.0000
    49 H17     -0.2939   5.2400   0.3870   H         1 RES1   0.0000
    50 H18     -1.7134   5.3900   1.0341   H         1 RES1   0.0000
    51 O1A     -5.0369   2.1108  13.3817   O.3       1 RES1   0.0000
    52 O2A      6.9436   3.5433  17.1444   O.3       1 RES1   0.0000
    53 N1A      2.3528   2.4298  10.9905   N.2       1 RES1   0.0000
    54 N2A      1.0317   2.4974   8.4821   N.2       1 RES1   0.0000
    55 C1A      3.1473   2.6052  12.1105   C.2       1 RES1   0.0000
    56 C2A      2.3195   2.6390  13.2777   C.2       1 RES1   0.0000
    57 H1A      2.6078   2.7594  14.1533   H         1 RES1   0.0000
    58 C3A      1.0408   2.4615  12.8785   C.2       1 RES1   0.0000
    59 H2A      0.2918   2.4066  13.4276   H         1 RES1   0.0000
    60 C4A      1.0570   2.3728  11.4634   C.2       1 RES1   0.0000
    61 C5A     -0.0848   2.3453  10.6603   C.2       1 RES1   0.0000
    62 C6A     -0.0754   2.4510   9.2840   C.2       1 RES1   0.0000
    63 C7A     -1.2723   2.5672   8.4712   C.2       1 RES1   0.0000
    64 H3A     -2.1498   2.5629   8.7784   H         1 RES1   0.0000
    65 C8A     -0.8705   2.6834   7.1795   C.2       1 RES1   0.0000
    66 H4A     -1.4207   2.7721   6.4344   H         1 RES1   0.0000
    67 C9A      0.5700   2.6454   7.1819   C.2       1 RES1   0.0000
    68 C10A     4.5396   2.7172  12.1093   C.2       1 RES1   0.0000
    69 C11A    -1.4095   2.2587  11.3643   C.ar      1 RES1   0.0000
    70 C12A    -1.9187   1.0734  11.7610   C.ar      1 RES1   0.0000
    71 H5A     -1.4332   0.3000  11.5904   H         1 RES1   0.0000
    72 C13A    -3.1381   0.9635  12.4117   C.ar      1 RES1   0.0000
    73 H6A     -3.4737   0.1289  12.6487   H         1 RES1   0.0000
    74 C14A    -3.8393   2.1023  12.7007   C.ar      1 RES1   0.0000
    75 C15A    -3.3496   3.3215  12.3210   C.ar      1 RES1   0.0000
    76 H7A     -3.8254   4.0969  12.5121   H         1 RES1   0.0000
    77 C16A    -2.1374   3.3828  11.6485   C.ar      1 RES1   0.0000
    78 H8A     -1.8101   4.2110  11.3836   H         1 RES1   0.0000
    79 C17A     5.2066   2.9433  13.4325   C.ar      1 RES1   0.0000
    80 C18A     5.2783   4.2152  13.9683   C.ar      1 RES1   0.0000
    81 H9A      4.9323   4.9336  13.4881   H         1 RES1   0.0000
    82 C19A     5.8652   4.4455  15.2164   C.ar      1 RES1   0.0000
    83 H10A     5.8884   5.3055  15.5696   H         1 RES1   0.0000
    84 C20A     6.3908   3.4250  15.9010   C.ar      1 RES1   0.0000
    85 C21A     6.3376   2.1657  15.3894   C.ar      1 RES1   0.0000
    86 H11A     6.6950   1.4558  15.8720   H         1 RES1   0.0000
    87 C22A     5.7550   1.9333  14.1509   C.ar      1 RES1   0.0000
    88 H12A     5.7401   1.0691  13.8074   H         1 RES1   0.0000
    89 C23A    -5.5783   0.8494  13.7893   C.3       1 RES1   0.0000
    90 H13A    -6.4051   0.9910  14.2549   H         1 RES1   0.0000
    91 H14A    -4.9544   0.4057  14.3698   H         1 RES1   0.0000
    92 H15A    -5.7360   0.3043  13.0152   H         1 RES1   0.0000
    93 C24A     7.0522   4.8512  17.6838   C.3       1 RES1   0.0000
    94 H16A     7.4548   4.8047  18.5546   H         1 RES1   0.0000
    95 H17A     6.1771   5.2400  17.7551   H         1 RES1   0.0000
    96 H18A     7.5966   5.3900  17.1081   H         1 RES1   0.0000
    97 O3A      1.9459   0.0232   9.4230   O.3       1 RES1   0.0000
    98 O5      10.7815   1.4959  10.4136   O.3       2 RES2   0.0000
    99 O6      11.2141   5.0076   9.5065   O.3       3 RES3   0.0000
@<TRIPOS>BOND
     1     1     4    1
     2     2    28    1
     3     3    38    1
     4     4     8    1
     5     5     8    2
     6     6     1    1
     7     7     1    1
     8     8    97    1
     9     9     6    1
    10    10     9    1
    11    11    10    1
    12    12    10    2
    13    13    12    1
    14    14     6    1
    15    15    14    2
    16    16     7    2
    17    17    16    1
    18    18    17    1
    19    19    17    2
    20    20    19    1
    21    21     7    1
    22    22     9    2
    23    23    15    1
    24    24    23   ar
    25    25    24    1
    26    26    24   ar
    27    27    26    1
    28    28    26   ar
    29    29    28   ar
    30    30    29    1
    31    31    23   ar
    32    32    31    1
    33    33    22    1
    34    34    33   ar
    35    35    34    1
    36    36    34   ar
    37    37    36    1
    38    38    36   ar
    39    39    38   ar
    40    40    39    1
    41    41    33   ar
    42    42    41    1
    43    43     2    1
    44    44    43    1
    45    45    43    1
    46    46    43    1
    47    47     3    1
    48    48    47    1
    49    49    47    1
    50    50    47    1
    51    51    74    1
    52    52    84    1
    53    53     1    1
    54    54     1    1
    55    55    53    1
    56    56    55    2
    57    57    56    1
    58    58    56    1
    59    59    58    1
    60    60    53    1
    61    61    60    1
    62    62    54    1
    63    63    62    1
    64    64    63    1
    65    65    63    2
    66    66    65    1
    67    67    22    1
    68    68    21    2
    69    69    61    1
    70    70    69   ar
    71    71    70    1
    72    72    70   ar
    73    73    72    1
    74    74    72   ar
    75    75    74   ar
    76    76    75    1
    77    77    69   ar
    78    78    77    1
    79    79    68    1
    80    80    79   ar
    81    81    80    1
    82    82    80   ar
    83    83    82    1
    84    84    82   ar
    85    85    84   ar
    86    86    85    1
    87    87    79   ar
    88    88    87    1
    89    89    51    1
    90    90    89    1
    91    91    89    1
    92    92    89    1
    93    93    52    1
    94    94    93    1
    95    95    93    1
    96    96    93    1
    97    97     1    1
    98    12    14    1
    99    15    16    1
   100    19    21    1
   101    29    31   ar
   102    39    41   ar
   103    54    67    2
   104    55    68    1
   105    58    60    2
   106    61    62    2
   107    65    67    1
   108    75    77   ar
   109    85    87   ar
@<TRIPOS>SUBSTRUCTURE
     1 RES1        1 GROUP             0 ****  ****    0  
     2 RES2       98 GROUP             0 ****  ****    0  
     3 RES3       99 GROUP             0 ****  ****    0  
@<TRIPOS>CRYSIN
   18.7790   21.1290   14.8390   90.0000  125.4060   90.0000    15     1
