@<TRIPOS>MOLECULE
WOPZOQ
   106   120     2     0     0
SMALL
USER_CHARGES
****
Generated from the CSD

@<TRIPOS>ATOM
     1 P1      16.2915  -5.4305   5.5860   P.3       1 RES1   1.0000
     2 C18     14.9035  -5.7529   4.5001   C.ar      1 RES1   0.0000
     3 C19     15.0012  -6.8055   3.5989   C.ar      1 RES1   0.0000
     4 C20     13.9890  -7.0379   2.6895   C.ar      1 RES1   0.0000
     5 C21     12.8833  -6.2234   2.6776   C.ar      1 RES1   0.0000
     6 C22     12.7877  -5.1720   3.5497   C.ar      1 RES1   0.0000
     7 C23     13.8000  -4.9113   4.4651   C.ar      1 RES1   0.0000
     8 H9      15.7658  -7.3681   3.6086   H         1 RES1   0.0000
     9 H10     14.0585  -7.7591   2.0743   H         1 RES1   0.0000
    10 H11     12.1817  -6.3906   2.0601   H         1 RES1   0.0000
    11 H12     12.0210  -4.6138   3.5289   H         1 RES1   0.0000
    12 H13     13.7392  -4.1706   5.0564   H         1 RES1   0.0000
    13 C18E    15.9691  -4.0425   6.6719   C.ar      1 RES1   0.0000
    14 C19E    14.9165  -4.1402   7.5731   C.ar      1 RES1   0.0000
    15 C20E    14.6841  -3.1280   8.4825   C.ar      1 RES1   0.0000
    16 C21E    15.4986  -2.0223   8.4944   C.ar      1 RES1   0.0000
    17 C22E    16.5500  -1.9267   7.6223   C.ar      1 RES1   0.0000
    18 C23E    16.8107  -2.9390   6.7069   C.ar      1 RES1   0.0000
    19 H13E    17.5514  -2.8782   6.1156   H         1 RES1   0.0000
    20 H12E    17.1082  -1.1600   7.6431   H         1 RES1   0.0000
    21 H11E    15.3314  -1.3207   9.1119   H         1 RES1   0.0000
    22 H10E    13.9629  -3.1975   9.0977   H         1 RES1   0.0000
    23 H9E     14.3539  -4.9048   7.5634   H         1 RES1   0.0000
    24 C18F    16.6139  -6.8185   6.6719   C.ar      1 RES1   0.0000
    25 C19F    17.6665  -6.7208   7.5731   C.ar      1 RES1   0.0000
    26 C20F    17.8989  -7.7330   8.4825   C.ar      1 RES1   0.0000
    27 C21F    17.0844  -8.8387   8.4944   C.ar      1 RES1   0.0000
    28 C22F    16.0330  -8.9343   7.6223   C.ar      1 RES1   0.0000
    29 C23F    15.7723  -7.9220   6.7069   C.ar      1 RES1   0.0000
    30 H13F    15.0316  -7.9828   6.1156   H         1 RES1   0.0000
    31 H12F    15.4748  -9.7010   7.6431   H         1 RES1   0.0000
    32 H11F    17.2516  -9.5403   9.1119   H         1 RES1   0.0000
    33 H10F    18.6201  -7.6635   9.0977   H         1 RES1   0.0000
    34 H9F     18.2291  -5.9562   7.5634   H         1 RES1   0.0000
    35 C18G    17.6795  -5.1081   4.5001   C.ar      1 RES1   0.0000
    36 C19G    17.5818  -4.0555   3.5989   C.ar      1 RES1   0.0000
    37 C20G    18.5940  -3.8231   2.6895   C.ar      1 RES1   0.0000
    38 C21G    19.6997  -4.6376   2.6776   C.ar      1 RES1   0.0000
    39 C22G    19.7953  -5.6890   3.5497   C.ar      1 RES1   0.0000
    40 C23G    18.7830  -5.9497   4.4651   C.ar      1 RES1   0.0000
    41 H13G    18.8438  -6.6904   5.0564   H         1 RES1   0.0000
    42 H12G    20.5620  -6.2472   3.5289   H         1 RES1   0.0000
    43 H11G    20.4013  -4.4704   2.0601   H         1 RES1   0.0000
    44 H10G    18.5245  -3.1019   2.0743   H         1 RES1   0.0000
    45 H9G     16.8172  -3.4929   3.6086   H         1 RES1   0.0000
    46 Fe1     10.8610   0.0000   3.7240   Fe        2 RES2   0.0000
    47 N1       9.7325  -0.9132   5.0140   N.2       2 RES2   0.0000
    48 N2       9.2056  -2.9396   3.7925   N.2       2 RES2   0.0000
    49 N3      10.6210  -1.4682   2.4772   N.2       2 RES2   0.0000
    50 N4       9.6261   0.7644   6.7598   N.2       2 RES2   0.0000
    51 N5      13.4542  -1.4914   4.6088   N.1       2 RES2   0.0000
    52 C1       9.3055  -0.3958   6.2109   C.2       2 RES2   0.0000
    53 C2       8.3636  -1.3231   6.8350   C.2       2 RES2   0.0000
    54 C3       7.6566  -1.2601   8.0245   C.2       2 RES2   0.0000
    55 C4       6.8555  -2.3503   8.3336   C.2       2 RES2   0.0000
    56 C5       6.7534  -3.4451   7.4838   C.2       2 RES2   0.0000
    57 C6       7.4456  -3.4901   6.2816   C.2       2 RES2   0.0000
    58 C7       8.2591  -2.4105   5.9740   C.2       2 RES2   0.0000
    59 C8       9.1074  -2.1220   4.8278   C.2       2 RES2   0.0000
    60 C9       9.9274  -2.6303   2.7252   C.2       2 RES2   0.0000
    61 C10     10.1292  -3.5544   1.6177   C.2       2 RES2   0.0000
    62 C11      9.7004  -4.8616   1.4181   C.2       2 RES2   0.0000
    63 C12     10.1507  -5.5015   0.2741   C.2       2 RES2   0.0000
    64 C13     10.9805  -4.8701  -0.6413   C.2       2 RES2   0.0000
    65 C14     11.3980  -3.5570  -0.4454   C.2       2 RES2   0.0000
    66 C15     10.9653  -2.9233   0.7076   C.2       2 RES2   0.0000
    67 C16     11.2626  -1.6072   1.2744   C.2       2 RES2   0.0000
    68 C17     12.4910  -0.9367   4.3474   C.1       2 RES2   0.0000
    69 H1       7.7157  -0.5061   8.6010   H         2 RES2   0.0000
    70 H2       6.3667  -2.3503   9.1476   H         2 RES2   0.0000
    71 H3       6.1973  -4.1771   7.7295   H         2 RES2   0.0000
    72 H4       7.3659  -4.2314   5.6933   H         2 RES2   0.0000
    73 H5       9.1254  -5.2958   2.0370   H         2 RES2   0.0000
    74 H6       9.8835  -6.3993   0.1117   H         2 RES2   0.0000
    75 H7      11.2694  -5.3414  -1.4144   H         2 RES2   0.0000
    76 H8      11.9558  -3.1149  -1.0747   H         2 RES2   0.0000
    77 C16D    10.4594   1.6072   6.1736   C.2       2 RES2   0.0000
    78 N3D     11.1010   1.4682   4.9708   N.2       2 RES2   0.0000
    79 N1D     11.9895   0.9132   2.4340   N.2       2 RES2   0.0000
    80 C1D     12.4165   0.3958   1.2371   C.2       2 RES2   0.0000
    81 N4D     12.0959  -0.7644   0.6882   N.2       2 RES2   0.0000
    82 C17D     9.2310   0.9367   3.1006   C.1       2 RES2   0.0000
    83 N5D      8.2678   1.4914   2.8392   N.1       2 RES2   0.0000
    84 C2D     13.3584   1.3231   0.6130   C.2       2 RES2   0.0000
    85 C3D     14.0654   1.2601  -0.5765   C.2       2 RES2   0.0000
    86 C4D     14.8665   2.3503  -0.8856   C.2       2 RES2   0.0000
    87 C5D     14.9686   3.4451  -0.0358   C.2       2 RES2   0.0000
    88 C6D     14.2764   3.4901   1.1664   C.2       2 RES2   0.0000
    89 C7D     13.4629   2.4105   1.4740   C.2       2 RES2   0.0000
    90 C8D     12.6146   2.1220   2.6202   C.2       2 RES2   0.0000
    91 N2D     12.5164   2.9396   3.6555   N.2       2 RES2   0.0000
    92 C9D     11.7946   2.6303   4.7228   C.2       2 RES2   0.0000
    93 C10D    11.5928   3.5544   5.8303   C.2       2 RES2   0.0000
    94 C11D    12.0216   4.8616   6.0299   C.2       2 RES2   0.0000
    95 C12D    11.5713   5.5015   7.1739   C.2       2 RES2   0.0000
    96 C13D    10.7415   4.8701   8.0893   C.2       2 RES2   0.0000
    97 C14D    10.3240   3.5570   7.8934   C.2       2 RES2   0.0000
    98 C15D    10.7567   2.9233   6.7404   C.2       2 RES2   0.0000
    99 H8D      9.7662   3.1149   8.5227   H         2 RES2   0.0000
   100 H7D     10.4526   5.3414   8.8624   H         2 RES2   0.0000
   101 H6D     11.8385   6.3993   7.3363   H         2 RES2   0.0000
   102 H5D     12.5966   5.2958   5.4110   H         2 RES2   0.0000
   103 H4D     14.3561   4.2314   1.7547   H         2 RES2   0.0000
   104 H3D     15.5247   4.1771  -0.2815   H         2 RES2   0.0000
   105 H2D     15.3553   2.3503  -1.6996   H         2 RES2   0.0000
   106 H1D     14.0063   0.5061  -1.1530   H         2 RES2   0.0000
@<TRIPOS>BOND
     1     1     2    1
     2     2     3   ar
     3     3     4   ar
     4     4     5   ar
     5     5     6   ar
     6     6     7   ar
     7     7     2   ar
     8     8     3    1
     9     9     4    1
    10    10     5    1
    11    11     6    1
    12    12     7    1
    13    13     1    1
    14    14    13   ar
    15    15    14   ar
    16    16    15   ar
    17    17    16   ar
    18    18    13   ar
    19    19    18    1
    20    20    17    1
    21    21    16    1
    22    22    15    1
    23    23    14    1
    24    24     1    1
    25    25    24   ar
    26    26    25   ar
    27    27    26   ar
    28    28    27   ar
    29    29    24   ar
    30    30    29    1
    31    31    28    1
    32    32    27    1
    33    33    26    1
    34    34    25    1
    35    35     1    1
    36    36    35   ar
    37    37    36   ar
    38    38    37   ar
    39    39    38   ar
    40    40    35   ar
    41    41    40    1
    42    42    39    1
    43    43    38    1
    44    44    37    1
    45    45    36    1
    46    17    18   ar
    47    28    29   ar
    48    39    40   ar
    49    46    47    1
    50    47    52    1
    51    48    59    2
    52    49    46    1
    53    50    52    2
    54    51    68    3
    55    52    53    1
    56    53    54    1
    57    54    55    2
    58    55    56    1
    59    56    57    2
    60    57    58    1
    61    58    53    2
    62    59    47    1
    63    60    48    1
    64    61    60    1
    65    62    61    1
    66    63    62    2
    67    64    63    1
    68    65    64    2
    69    66    61    2
    70    67    49    1
    71    68    46    1
    72    69    54    1
    73    70    55    1
    74    71    56    1
    75    72    57    1
    76    73    62    1
    77    74    63    1
    78    75    64    1
    79    76    65    1
    80    77    50    1
    81    78    46    1
    82    79    46    1
    83    80    79    1
    84    81    67    2
    85    82    46    1
    86    83    82    3
    87    84    80    2
    88    85    84    1
    89    86    85    2
    90    87    86    1
    91    88    87    2
    92    89    84    1
    93    90    79    1
    94    91    90    1
    95    92    78    1
    96    93    92    1
    97    94    93    1
    98    95    94    2
    99    96    95    1
   100    97    96    2
   101    98    77    1
   102    99    97    1
   103   100    96    1
   104   101    95    1
   105   102    94    1
   106   103    88    1
   107   104    87    1
   108   105    86    1
   109   106    85    1
   110    49    60    2
   111    58    59    1
   112    65    66    1
   113    66    67    1
   114    77    78    2
   115    80    81    1
   116    88    89    1
   117    89    90    2
   118    91    92    2
   119    93    98    2
   120    97    98    1
@<TRIPOS>SUBSTRUCTURE
     1 RES1        1 GROUP             0 ****  ****    0  
     2 RES2       46 GROUP             0 ****  ****    0  
