@<TRIPOS>MOLECULE
WOPZOQ01
   106   120     2     0     0
SMALL
USER_CHARGES
****
Generated from the CSD

@<TRIPOS>ATOM
     1 P1      16.1855  -5.3952   5.5448   P.3       1 RES1   1.0000
     2 C18     14.8078  -5.7562   4.4603   C.ar      1 RES1   0.0000
     3 C19     14.9492  -6.8130   3.5428   C.ar      1 RES1   0.0000
     4 H9      15.7345  -7.3482   3.5487   H         1 RES1   0.0000
     5 C20     13.9422  -7.0672   2.6334   C.ar      1 RES1   0.0000
     6 H10     14.0318  -7.7820   2.0146   H         1 RES1   0.0000
     7 C21     12.7999  -6.2791   2.6209   C.ar      1 RES1   0.0000
     8 H11     12.1068  -6.4656   1.9998   H         1 RES1   0.0000
     9 C22     12.6623  -5.2243   3.5065   C.ar      1 RES1   0.0000
    10 H12     11.8802  -4.6852   3.4866   H         1 RES1   0.0000
    11 C23     13.6759  -4.9545   4.4277   C.ar      1 RES1   0.0000
    12 H13     13.5915  -4.2255   5.0303   H         1 RES1   0.0000
    13 C18A    17.5632  -5.0341   4.4603   C.ar      1 RES1   0.0000
    14 C19A    17.4219  -3.9773   3.5428   C.ar      1 RES1   0.0000
    15 H9A     16.6366  -3.4421   3.5487   H         1 RES1   0.0000
    16 C20A    18.4288  -3.7231   2.6334   C.ar      1 RES1   0.0000
    17 H10A    18.3393  -3.0083   2.0146   H         1 RES1   0.0000
    18 C21A    19.5711  -4.5112   2.6209   C.ar      1 RES1   0.0000
    19 H11A    20.2643  -4.3248   1.9998   H         1 RES1   0.0000
    20 C22A    19.7088  -5.5661   3.5065   C.ar      1 RES1   0.0000
    21 H12A    20.4909  -6.1052   3.4866   H         1 RES1   0.0000
    22 C23A    18.6951  -5.8359   4.4277   C.ar      1 RES1   0.0000
    23 H13A    18.7795  -6.5648   5.0303   H         1 RES1   0.0000
    24 C18F    15.8245  -4.0175   6.6294   C.ar      1 RES1   0.0000
    25 C19F    14.7677  -4.1588   7.5469   C.ar      1 RES1   0.0000
    26 H9F     14.2325  -4.9441   7.5410   H         1 RES1   0.0000
    27 C20F    14.5135  -3.1519   8.4562   C.ar      1 RES1   0.0000
    28 H10F    13.7987  -3.2414   9.0750   H         1 RES1   0.0000
    29 C21F    15.3016  -2.0096   8.4688   C.ar      1 RES1   0.0000
    30 H11F    15.1151  -1.3164   9.0898   H         1 RES1   0.0000
    31 C22F    16.3564  -1.8719   7.5831   C.ar      1 RES1   0.0000
    32 H12F    16.8955  -1.0898   7.6031   H         1 RES1   0.0000
    33 C23F    16.6262  -2.8856   6.6619   C.ar      1 RES1   0.0000
    34 H13F    17.3552  -2.8012   6.0594   H         1 RES1   0.0000
    35 C18G    16.5466  -6.7729   6.6294   C.ar      1 RES1   0.0000
    36 C19G    17.6034  -6.6315   7.5469   C.ar      1 RES1   0.0000
    37 H9G     18.1386  -5.8462   7.5410   H         1 RES1   0.0000
    38 C20G    17.8576  -7.6385   8.4562   C.ar      1 RES1   0.0000
    39 H10G    18.5724  -7.5489   9.0750   H         1 RES1   0.0000
    40 C21G    17.0695  -8.7808   8.4688   C.ar      1 RES1   0.0000
    41 H11G    17.2559  -9.4739   9.0898   H         1 RES1   0.0000
    42 C22G    16.0146  -8.9184   7.5831   C.ar      1 RES1   0.0000
    43 H12G    15.4755  -9.7005   7.6031   H         1 RES1   0.0000
    44 C23G    15.7448  -7.9048   6.6619   C.ar      1 RES1   0.0000
    45 H13G    15.0159  -7.9892   6.0594   H         1 RES1   0.0000
    46 Fe1     10.7904   0.0000   3.6966   Fe        2 RES2   0.0000
    47 N1       9.6604  -0.9107   4.9911   N.2       2 RES2   0.0000
    48 N2       9.1345  -2.9432   3.7742   N.2       2 RES2   0.0000
    49 N3      10.5433  -1.4712   2.4501   N.2       2 RES2   0.0000
    50 N4      12.0166  -0.7661   0.6521   N.2       2 RES2   0.0000
    51 N5      13.3850  -1.5290   4.5497   N.1       2 RES2   0.0000
    52 C1       9.2359  -0.3928   6.1939   C.2       2 RES2   0.0000
    53 C2       8.3045  -1.3188   6.8238   C.ar      2 RES2   0.0000
    54 C3       7.6009  -1.2545   8.0208   C.ar      2 RES2   0.0000
    55 H1       7.6633  -0.5028   8.5967   H         2 RES2   0.0000
    56 C4       6.7996  -2.3514   8.3313   C.ar      2 RES2   0.0000
    57 H2       6.3145  -2.3501   9.1475   H         2 RES2   0.0000
    58 C5       6.6889  -3.4566   7.4744   C.ar      2 RES2   0.0000
    59 H3       6.1311  -4.1845   7.7199   H         2 RES2   0.0000
    60 C6       7.3858  -3.5023   6.2693   C.ar      2 RES2   0.0000
    61 H4       7.3115  -4.2449   5.6816   H         2 RES2   0.0000
    62 C7       8.1957  -2.4138   5.9633   C.ar      2 RES2   0.0000
    63 C8       9.0417  -2.1229   4.8100   C.2       2 RES2   0.0000
    64 C9       9.8494  -2.6266   2.6992   C.2       2 RES2   0.0000
    65 C10     10.0553  -3.5628   1.6013   C.2       2 RES2   0.0000
    66 C11      9.6308  -4.8729   1.4150   C.2       2 RES2   0.0000
    67 H5       9.0596  -5.3045   2.0398   H         2 RES2   0.0000
    68 C12     10.0816  -5.5264   0.2662   C.2       2 RES2   0.0000
    69 H6       9.8171  -6.4246   0.1072   H         2 RES2   0.0000
    70 C13     10.9151  -4.8844  -0.6543   C.2       2 RES2   0.0000
    71 H7      11.2112  -5.3606  -1.4210   H         2 RES2   0.0000
    72 C14     11.3195  -3.5686  -0.4746   C.2       2 RES2   0.0000
    73 H8      11.8694  -3.1249  -1.1104   H         2 RES2   0.0000
    74 C15     10.8819  -2.9294   0.6831   C.2       2 RES2   0.0000
    75 C16     11.1838  -1.6153   1.2465   C.2       2 RES2   0.0000
    76 C17     12.4206  -0.9545   4.3117   C.1       2 RES2   0.0000
    77 N1D     11.9203   0.9107   2.4020   N.2       2 RES2   0.0000
    78 N2D     12.4462   2.9432   3.6189   N.2       2 RES2   0.0000
    79 N3D     11.0374   1.4712   4.9430   N.2       2 RES2   0.0000
    80 N4D      9.5641   0.7661   6.7410   N.2       2 RES2   0.0000
    81 C1D     12.3448   0.3928   1.1992   C.2       2 RES2   0.0000
    82 C2D     13.2762   1.3188   0.5693   C.ar      2 RES2   0.0000
    83 C3D     13.9798   1.2545  -0.6277   C.ar      2 RES2   0.0000
    84 H1D     13.9174   0.5028  -1.2036   H         2 RES2   0.0000
    85 C4D     14.7811   2.3514  -0.9382   C.ar      2 RES2   0.0000
    86 H2D     15.2662   2.3501  -1.7544   H         2 RES2   0.0000
    87 C5D     14.8918   3.4566  -0.0813   C.ar      2 RES2   0.0000
    88 H3D     15.4496   4.1845  -0.3268   H         2 RES2   0.0000
    89 C6D     14.1949   3.5023   1.1238   C.ar      2 RES2   0.0000
    90 H4D     14.2692   4.2449   1.7115   H         2 RES2   0.0000
    91 C7D     13.3850   2.4138   1.4298   C.ar      2 RES2   0.0000
    92 C8D     12.5390   2.1229   2.5831   C.2       2 RES2   0.0000
    93 C9D     11.7313   2.6266   4.6939   C.2       2 RES2   0.0000
    94 C10D    11.5254   3.5628   5.7918   C.ar      2 RES2   0.0000
    95 C11D    11.9499   4.8729   5.9781   C.ar      2 RES2   0.0000
    96 H5D     12.5211   5.3045   5.3533   H         2 RES2   0.0000
    97 C12D    11.4991   5.5264   7.1269   C.ar      2 RES2   0.0000
    98 H6D     11.7636   6.4246   7.2859   H         2 RES2   0.0000
    99 C13D    10.6656   4.8844   8.0474   C.ar      2 RES2   0.0000
   100 H7D     10.3695   5.3606   8.8141   H         2 RES2   0.0000
   101 C14D    10.2612   3.5686   7.8677   C.ar      2 RES2   0.0000
   102 H8D      9.7113   3.1249   8.5035   H         2 RES2   0.0000
   103 C15D    10.6988   2.9294   6.7100   C.ar      2 RES2   0.0000
   104 C16D    10.3969   1.6153   6.1466   C.2       2 RES2   0.0000
   105 N5D      8.1957   1.5290   2.8434   N.1       2 RES2   0.0000
   106 C17D     9.1601   0.9545   3.0814   C.1       2 RES2   0.0000
@<TRIPOS>BOND
     1     1     2    1
     2     2     3   ar
     3     3     4    1
     4     5     3   ar
     5     6     5    1
     6     7     5   ar
     7     8     7    1
     8     9     7   ar
     9    10     9    1
    10    11     2   ar
    11    12    11    1
    12    13     1    1
    13    14    13   ar
    14    15    14    1
    15    16    14   ar
    16    17    16    1
    17    18    16   ar
    18    19    18    1
    19    20    18   ar
    20    21    20    1
    21    22    13   ar
    22    23    22    1
    23    24     1    1
    24    25    24   ar
    25    26    25    1
    26    27    25   ar
    27    28    27    1
    28    29    27   ar
    29    30    29    1
    30    31    29   ar
    31    32    31    1
    32    33    24   ar
    33    34    33    1
    34    35     1    1
    35    36    35   ar
    36    37    36    1
    37    38    36   ar
    38    39    38    1
    39    40    38   ar
    40    41    40    1
    41    42    40   ar
    42    43    42    1
    43    44    35   ar
    44    45    44    1
    45     9    11   ar
    46    20    22   ar
    47    31    33   ar
    48    42    44   ar
    49    46    47    1
    50    47    52    2
    51    48    63    2
    52    49    46    1
    53    50    75    1
    54    51    76    3
    55    52    53    1
    56    53    54   ar
    57    54    55    1
    58    56    54   ar
    59    57    56    1
    60    58    56   ar
    61    59    58    1
    62    60    58   ar
    63    61    60    1
    64    62    53   ar
    65    63    47    1
    66    64    48    1
    67    65    64    2
    68    66    65    1
    69    67    66    1
    70    68    66    2
    71    69    68    1
    72    70    68    1
    73    71    70    1
    74    72    70    2
    75    73    72    1
    76    74    65    1
    77    75    49    1
    78    76    46    1
    79    77    46    1
    80    78    92    1
    81    79    46    1
    82    80    52    1
    83    81    50    2
    84    82    81    1
    85    83    82   ar
    86    84    83    1
    87    85    83   ar
    88    86    85    1
    89    87    85   ar
    90    88    87    1
    91    89    87   ar
    92    90    89    1
    93    91    82   ar
    94    92    77    2
    95    93    78    2
    96    94    93    1
    97    95    94   ar
    98    96    95    1
    99    97    95   ar
   100    98    97    1
   101    99    97   ar
   102   100    99    1
   103   101    99   ar
   104   102   101    1
   105   103    94   ar
   106   104    79    1
   107   105   106    3
   108   106    46    1
   109    49    64    1
   110    60    62   ar
   111    62    63    1
   112    72    74    1
   113    74    75    2
   114    77    81    1
   115    79    93    1
   116    80   104    2
   117    89    91   ar
   118    91    92    1
   119   101   103   ar
   120   103   104    1
@<TRIPOS>SUBSTRUCTURE
     1 RES1        1 GROUP             0 ****  ****    0  
     2 RES2       46 GROUP             0 ****  ****    0  
