@<TRIPOS>MOLECULE
WORMOF
   114   122     2     0     0
SMALL
USER_CHARGES
****
Generated from the CSD

@<TRIPOS>ATOM
     1 Fe1     14.4489   4.7582  10.9371   Fe        1 RES1   1.0000
     2 P1      15.6082   3.2930  12.2101   P.3       1 RES1   0.0000
     3 P2      14.8724   3.2781   9.2977   P.3       1 RES1   0.0000
     4 P3      13.4354   6.2532   9.6304   P.3       1 RES1   0.0000
     5 P4      14.2532   6.3459  12.5024   P.3       1 RES1   0.0000
     6 N1      12.8344   3.8327  11.5312   N.1       1 RES1   0.0000
     7 N2      10.8619   2.6374  12.4741   N.3       1 RES1   0.0000
     8 C1      11.9409   3.2731  11.9892   C.1       1 RES1   0.0000
     9 C2      17.4333   3.1705  12.1832   C.ar      1 RES1   0.0000
    10 C3      18.0908   2.1457  12.8648   C.ar      1 RES1   0.0000
    11 C4      19.4736   2.0794  12.8379   C.ar      1 RES1   0.0000
    12 C5      20.2011   2.9635  12.1508   C.ar      1 RES1   0.0000
    13 C6      19.5997   3.9933  11.4773   C.ar      1 RES1   0.0000
    14 C7      18.1974   4.0926  11.5042   C.ar      1 RES1   0.0000
    15 C8      15.3092   3.0943  14.0085   C.ar      1 RES1   0.0000
    16 C9      16.1240   3.7665  14.9124   C.ar      1 RES1   0.0000
    17 C10     15.8944   3.6258  16.2999   C.ar      1 RES1   0.0000
    18 C11     14.8608   2.8476  16.7175   C.ar      1 RES1   0.0000
    19 C12     14.0416   2.2019  15.8688   C.ar      1 RES1   0.0000
    20 C13     14.2712   2.3195  14.4948   C.ar      1 RES1   0.0000
    21 C14     15.1513   1.6407  11.5379   C.3       1 RES1   0.0000
    22 C15     15.4500   1.6622  10.0628   C.3       1 RES1   0.0000
    23 C16     16.2151   3.4801   8.0449   C.ar      1 RES1   0.0000
    24 C17     17.1750   4.4602   8.1769   C.ar      1 RES1   0.0000
    25 C18     18.2284   4.5695   7.2609   C.ar      1 RES1   0.0000
    26 C19     18.2874   3.6754   6.2236   C.ar      1 RES1   0.0000
    27 C20     17.3728   2.6821   6.1024   C.ar      1 RES1   0.0000
    28 C21     16.3302   2.5579   7.0049   C.ar      1 RES1   0.0000
    29 C22     13.4623   2.7400   8.2550   C.ar      1 RES1   0.0000
    30 C23     12.5364   1.8460   8.7561   C.ar      1 RES1   0.0000
    31 C24     11.4453   1.4900   8.0287   C.ar      1 RES1   0.0000
    32 C25     11.2845   1.9867   6.7220   C.ar      1 RES1   0.0000
    33 C26     12.1973   2.8427   6.2236   C.ar      1 RES1   0.0000
    34 C27     13.2884   3.2566   6.9632   C.ar      1 RES1   0.0000
    35 C28     13.8034   6.4800   7.8442   C.ar      1 RES1   0.0000
    36 C29     15.0851   6.6919   7.4495   C.ar      1 RES1   0.0000
    37 C30     15.4506   6.8542   6.1293   C.ar      1 RES1   0.0000
    38 C31     14.4460   6.8045   5.1863   C.ar      1 RES1   0.0000
    39 C32     13.1513   6.6058   5.5501   C.ar      1 RES1   0.0000
    40 C33     12.8160   6.4635   6.8702   C.ar      1 RES1   0.0000
    41 C34     11.6038   6.2929   9.6587   C.ar      1 RES1   0.0000
    42 C35     10.9137   5.1340   9.3893   C.ar      1 RES1   0.0000
    43 C36      9.5179   5.1158   9.4432   C.ar      1 RES1   0.0000
    44 C37      8.8424   6.2251   9.7934   C.ar      1 RES1   0.0000
    45 C38      9.4700   7.3509  10.0359   C.ar      1 RES1   0.0000
    46 C39     10.8615   7.4336   9.9685   C.ar      1 RES1   0.0000
    47 C40     13.9614   7.9105  10.2299   C.3       1 RES1   0.0000
    48 C41     13.8676   7.9850  11.7265   C.3       1 RES1   0.0000
    49 C42     12.8717   6.1257  13.6906   C.ar      1 RES1   0.0000
    50 C43     12.9895   5.4188  14.8855   C.ar      1 RES1   0.0000
    51 C44     11.8715   5.1290  15.6533   C.ar      1 RES1   0.0000
    52 C45     10.6292   5.5131  15.2222   C.ar      1 RES1   0.0000
    53 C46     10.4811   6.1886  14.0637   C.ar      1 RES1   0.0000
    54 C47     11.5948   6.4883  13.3093   C.ar      1 RES1   0.0000
    55 C48     15.7087   6.8426  13.5181   C.ar      1 RES1   0.0000
    56 C49     16.9301   6.9088  12.8783   C.ar      1 RES1   0.0000
    57 C50     18.0687   7.3840  13.5653   C.ar      1 RES1   0.0000
    58 C51     17.9362   7.7813  14.8585   C.ar      1 RES1   0.0000
    59 C52     16.7363   7.7648  15.4916   C.ar      1 RES1   0.0000
    60 C53     15.5654   7.3476  14.7938   C.ar      1 RES1   0.0000
    61 H1      15.6611   5.7135  10.5532   H         1 RES1   0.0000
    62 H2      17.6007   1.5049  13.3242   H         1 RES1   0.0000
    63 H3      19.9047   1.4056  13.3120   H         1 RES1   0.0000
    64 H4      21.1266   2.8807  12.1225   H         1 RES1   0.0000
    65 H5      20.1113   4.6191  11.0179   H         1 RES1   0.0000
    66 H6      17.7792   4.7880  11.0422   H         1 RES1   0.0000
    67 H7      16.8167   4.3029  14.6012   H         1 RES1   0.0000
    68 H8      16.4376   4.0695  16.9155   H         1 RES1   0.0000
    69 H9      14.7113   2.7698  17.6255   H         1 RES1   0.0000
    70 H10     13.3402   1.6821  16.1908   H         1 RES1   0.0000
    71 H11     13.7172   1.8708  13.8913   H         1 RES1   0.0000
    72 H12     15.6644   0.9453  11.9771   H         1 RES1   0.0000
    73 H13     14.2063   1.4669  11.6874   H         1 RES1   0.0000
    74 H14     15.0038   0.9172   9.6372   H         1 RES1   0.0000
    75 H15     16.4058   1.5612   9.9322   H         1 RES1   0.0000
    76 H16     17.1228   5.0579   8.8895   H         1 RES1   0.0000
    77 H17     18.8712   5.2317   7.3606   H         1 RES1   0.0000
    78 H18     18.9674   3.7516   5.5945   H         1 RES1   0.0000
    79 H19     17.4466   2.0678   5.4005   H         1 RES1   0.0000
    80 H20     15.7154   1.8659   6.9308   H         1 RES1   0.0000
    81 H21     12.6588   1.4834   9.6048   H         1 RES1   0.0000
    82 H22     10.8065   0.9222   8.3911   H         1 RES1   0.0000
    83 H23     10.5578   1.7202   6.2115   H         1 RES1   0.0000
    84 H24     12.0879   3.1672   5.3655   H         1 RES1   0.0000
    85 H25     13.8970   3.8658   6.6089   H         1 RES1   0.0000
    86 H26     15.7491   6.7250   8.1042   H         1 RES1   0.0000
    87 H27     16.3353   7.0098   5.8787   H         1 RES1   0.0000
    88 H28     14.6580   6.8989   4.2797   H         1 RES1   0.0000
    89 H29     12.4895   6.5628   4.8967   H         1 RES1   0.0000
    90 H30     11.9249   6.3575   7.1221   H         1 RES1   0.0000
    91 H31     11.3798   4.3592   9.1764   H         1 RES1   0.0000
    92 H32      9.0564   4.3327   9.2249   H         1 RES1   0.0000
    93 H33      7.9147   6.1936   9.8608   H         1 RES1   0.0000
    94 H34      8.9802   8.1124  10.2555   H         1 RES1   0.0000
    95 H35     11.2929   8.2432  10.1208   H         1 RES1   0.0000
    96 H36     14.8763   8.0793   9.9537   H         1 RES1   0.0000
    97 H37     13.3964   8.5926   9.8352   H         1 RES1   0.0000
    98 H38     12.9721   8.2581  11.9798   H         1 RES1   0.0000
    99 H39     14.4886   8.6522  12.0565   H         1 RES1   0.0000
   100 H40     13.8307   5.1357  15.1603   H         1 RES1   0.0000
   101 H41     11.9658   4.6754  16.4629   H         1 RES1   0.0000
   102 H42      9.8802   5.3161  15.7395   H         1 RES1   0.0000
   103 H43      9.6335   6.4469  13.7808   H         1 RES1   0.0000
   104 H44     11.4810   6.9519  12.5092   H         1 RES1   0.0000
   105 H45     17.0041   6.6406  11.9946   H         1 RES1   0.0000
   106 H46     18.8952   7.4221  13.1450   H         1 RES1   0.0000
   107 H47     18.6888   8.0711  15.3233   H         1 RES1   0.0000
   108 H48     16.6774   8.0363  16.3821   H         1 RES1   0.0000
   109 H49     14.7259   7.4121  15.1885   H         1 RES1   0.0000
   110 F1       0.4734  10.4684   4.8267   F         2 RES2   0.0000
   111 F2       0.0294   8.3128   4.2878   F         2 RES2   0.0000
   112 F3       2.0382   9.4187   3.7490   F         2 RES2   0.0000
   113 F4       1.4416   8.5876   5.3655   F         2 RES2   0.0000
   114 B1       0.8750   9.2796   4.2878   B         2 RES2  -1.0000
@<TRIPOS>BOND
     1     1     2    1
     2     2     9    1
     3     3     1    1
     4     4     1    1
     5     5     1    1
     6     6     1    1
     7     7     8    1
     8     8     6    3
     9     9    10   ar
    10    10    11   ar
    11    11    12   ar
    12    12    13   ar
    13    13    14   ar
    14    14     9   ar
    15    15     2    1
    16    16    15   ar
    17    17    16   ar
    18    18    17   ar
    19    19    18   ar
    20    20    15   ar
    21    21     2    1
    22    22     3    1
    23    23     3    1
    24    24    23   ar
    25    25    24   ar
    26    26    25   ar
    27    27    26   ar
    28    28    23   ar
    29    29     3    1
    30    30    29   ar
    31    31    30   ar
    32    32    31   ar
    33    33    32   ar
    34    34    29   ar
    35    35     4    1
    36    36    35   ar
    37    37    36   ar
    38    38    37   ar
    39    39    38   ar
    40    40    35   ar
    41    41     4    1
    42    42    41   ar
    43    43    42   ar
    44    44    43   ar
    45    45    44   ar
    46    46    41   ar
    47    47     4    1
    48    48     5    1
    49    49     5    1
    50    50    49   ar
    51    51    50   ar
    52    52    51   ar
    53    53    52   ar
    54    54    49   ar
    55    55     5    1
    56    56    55   ar
    57    57    56   ar
    58    58    57   ar
    59    59    58   ar
    60    60    55   ar
    61    61     1    1
    62    62    10    1
    63    63    11    1
    64    64    12    1
    65    65    13    1
    66    66    14    1
    67    67    16    1
    68    68    17    1
    69    69    18    1
    70    70    19    1
    71    71    20    1
    72    72    21    1
    73    73    21    1
    74    74    22    1
    75    75    22    1
    76    76    24    1
    77    77    25    1
    78    78    26    1
    79    79    27    1
    80    80    28    1
    81    81    30    1
    82    82    31    1
    83    83    32    1
    84    84    33    1
    85    85    34    1
    86    86    36    1
    87    87    37    1
    88    88    38    1
    89    89    39    1
    90    90    40    1
    91    91    42    1
    92    92    43    1
    93    93    44    1
    94    94    45    1
    95    95    46    1
    96    96    47    1
    97    97    47    1
    98    98    48    1
    99    99    48    1
   100   100    50    1
   101   101    51    1
   102   102    52    1
   103   103    53    1
   104   104    54    1
   105   105    56    1
   106   106    57    1
   107   107    58    1
   108   108    59    1
   109   109    60    1
   110    19    20   ar
   111    21    22    1
   112    27    28   ar
   113    33    34   ar
   114    39    40   ar
   115    45    46   ar
   116    47    48    1
   117    53    54   ar
   118    59    60   ar
   119   110   114    1
   120   111   114    1
   121   112   114    1
   122   113   114    1
@<TRIPOS>SUBSTRUCTURE
     1 RES1        1 GROUP             0 ****  ****    0  
     2 RES2      110 GROUP             0 ****  ****    0  
@<TRIPOS>CRYSIN
   21.5730   16.5560   13.4710   90.0000   90.0400   90.0000   231     1
