@<TRIPOS>MOLECULE
WOTSUT
    70    78     4     0     0
SMALL
USER_CHARGES
****
Generated from the CSD

@<TRIPOS>ATOM
     1 Fe1      2.6049   3.5730   0.8237   Fe        1 RES1   1.0000
     2 O1       3.3823   5.1445   0.0711   O.3       1 RES1   0.0000
     3 O2       1.7594   2.1671   1.8180   O.3       1 RES1   0.0000
     4 N1       4.3616   3.1305   1.7977   N.2       1 RES1   0.0000
     5 N2       3.4104   2.2913  -0.6703   N.2       1 RES1   0.0000
     6 N3       0.9702   3.7299  -0.3859   N.2       1 RES1   0.0000
     7 N4       1.7529   4.9150   2.2649   N.ar      1 RES1   0.0000
     8 C1       4.3205   5.9525   0.7313   C.ar      1 RES1   0.0000
     9 C2       4.3533   7.3031   0.4063   C.ar      1 RES1   0.0000
    10 C3       5.2861   8.1369   1.0461   C.ar      1 RES1   0.0000
    11 C4       6.1833   7.6289   1.9805   C.ar      1 RES1   0.0000
    12 C5       6.1855   6.3201   2.2852   C.ar      1 RES1   0.0000
    13 C6       5.2004   5.4505   1.7063   C.ar      1 RES1   0.0000
    14 C7       5.2757   4.0729   2.0617   C.2       1 RES1   0.0000
    15 C8       4.6734   1.7481   2.0414   C.3       1 RES1   0.0000
    16 C9       4.9193   0.9921   0.8328   C.3       1 RES1   0.0000
    17 C10      3.7359   0.9652  -0.1727   C.3       1 RES1   0.0000
    18 C11      2.5541   2.2053  -1.9500   C.3       1 RES1   0.0000
    19 C12      2.1460   3.4932  -2.4883   C.3       1 RES1   0.0000
    20 C13      1.1492   4.3000  -1.6961   C.3       1 RES1   0.0000
    21 C14     -0.2032   3.2272  -0.0609   C.2       1 RES1   0.0000
    22 C15     -0.5583   2.5639   1.0969   C.ar      1 RES1   0.0000
    23 C16     -1.9664   2.3428   1.4219   C.ar      1 RES1   0.0000
    24 C17     -2.3209   1.7780   2.4883   C.ar      1 RES1   0.0000
    25 C18     -1.4509   1.2640   3.3821   C.ar      1 RES1   0.0000
    26 C19      0.0123   1.3806   3.2297   C.ar      1 RES1   0.0000
    27 C20      0.3411   2.0230   1.9602   C.ar      1 RES1   0.0000
    28 C21      1.6222   4.5451   3.5649   C.ar      1 RES1   0.0000
    29 C22      1.0281   5.3280   4.4993   C.ar      1 RES1   0.0000
    30 C23      0.5216   6.5532   4.1743   C.ar      1 RES1   0.0000
    31 C24      0.6385   6.9416   2.8539   C.ar      1 RES1   0.0000
    32 C25      1.2400   6.0929   2.0211   C.ar      1 RES1   0.0000
    33 C26     -0.2231   7.3689   5.1798   C.2       1 RES1   0.0000
    34 C27     -0.2176   7.1538   6.4595   C.2       1 RES1   0.0000
    35 C28     -0.9889   7.8471   7.5157   C.ar      1 RES1   0.0000
    36 C29     -0.6972   7.6320   8.8564   C.ar      1 RES1   0.0000
    37 C30     -1.3972   8.1937   9.8720   C.ar      1 RES1   0.0000
    38 C31     -2.4823   9.0543   9.5064   C.ar      1 RES1   0.0000
    39 C32     -2.8061   9.2755   8.2064   C.ar      1 RES1   0.0000
    40 C33     -2.0898   8.6957   7.1907   C.ar      1 RES1   0.0000
    41 O3       2.0522   0.3348   8.3079   O.2       2 RES2   0.0000
    42 C58      3.4977   2.3160   8.8259   C.3       2 RES2   0.0000
    43 C59      2.2719   1.3000   8.3181   C.2       2 RES2   0.0000
    44 C60      1.5884   2.7731   7.5157   C.3       2 RES2   0.0000
    45 O4       5.4253  -1.4940   5.0782   O.3       3 RES3   0.0000
    46 C34      8.7070   2.5340   3.9407   C.ar      4 RES4   0.0000
    47 C35      8.4143   1.3567   3.2500   C.ar      4 RES4   0.0000
    48 C36      8.4284   1.2790   1.8688   C.ar      4 RES4   0.0000
    49 C37      8.7901   2.3786   1.1172   C.ar      4 RES4   0.0000
    50 C38      9.0460   3.5918   1.7469   C.ar      4 RES4   0.0000
    51 C39      9.0492   3.6068   3.0977   C.ar      4 RES4   0.0000
    52 C40      8.5587   1.2820   6.2462   C.ar      4 RES4   0.0000
    53 C41      7.6288   0.9055   7.3431   C.ar      4 RES4   0.0000
    54 C42      7.7339  -0.3794   7.9322   C.ar      4 RES4   0.0000
    55 C43      8.6901  -1.3057   7.5462   C.ar      4 RES4   0.0000
    56 C44      9.5710  -0.9472   6.5712   C.ar      4 RES4   0.0000
    57 C45      9.4525   0.2630   5.9923   C.ar      4 RES4   0.0000
    58 C46      9.7650   3.5202   6.2563   C.ar      4 RES4   0.0000
    59 C47      9.6595   4.0730   7.4853   C.ar      4 RES4   0.0000
    60 C48     10.7089   4.6856   8.2064   C.ar      4 RES4   0.0000
    61 C49     11.9597   4.7573   7.5361   C.ar      4 RES4   0.0000
    62 C50     12.1219   4.2403   6.3071   C.ar      4 RES4   0.0000
    63 C51     11.0714   3.6158   5.6266   C.ar      4 RES4   0.0000
    64 C52      7.1905   3.5590   5.6977   C.ar      4 RES4   0.0000
    65 C53      7.0593   4.8858   5.8806   C.ar      4 RES4   0.0000
    66 C54      5.8768   5.6776   5.8704   C.ar      4 RES4   0.0000
    67 C55      4.6729   4.9724   5.6470   C.ar      4 RES4   0.0000
    68 C56      4.7217   3.6696   5.4438   C.ar      4 RES4   0.0000
    69 C57      5.9042   2.8777   5.4540   C.ar      4 RES4   0.0000
    70 B1       8.5540   2.6924   5.5352   B         4 RES4  -1.0000
@<TRIPOS>BOND
     1     1     2    1
     2     2     8    1
     3     3     1    1
     4     4     1    1
     5     5     1    1
     6     6     1    1
     7     7     1    1
     8     8     9   ar
     9     9    10   ar
    10    10    11   ar
    11    11    12   ar
    12    12    13   ar
    13    13     8   ar
    14    14     4    2
    15    15     4    1
    16    16    15    1
    17    17     5    1
    18    18     5    1
    19    19    18    1
    20    20     6    1
    21    21     6    2
    22    22    21    1
    23    23    22   ar
    24    24    23   ar
    25    25    24   ar
    26    26    25   ar
    27    27     3    1
    28    28     7   ar
    29    29    28   ar
    30    30    29   ar
    31    31    30   ar
    32    32     7   ar
    33    33    30    1
    34    34    33    2
    35    35    34    1
    36    36    35   ar
    37    37    36   ar
    38    38    37   ar
    39    39    38   ar
    40    40    35   ar
    41    13    14    1
    42    16    17    1
    43    19    20    1
    44    22    27   ar
    45    26    27   ar
    46    31    32   ar
    47    39    40   ar
    48    41    43    2
    49    42    43    1
    50    43    44    1
    51    46    47   ar
    52    47    48   ar
    53    48    49   ar
    54    49    50   ar
    55    50    51   ar
    56    51    46   ar
    57    52    53   ar
    58    53    54   ar
    59    54    55   ar
    60    55    56   ar
    61    56    57   ar
    62    57    52   ar
    63    58    59   ar
    64    59    60   ar
    65    60    61   ar
    66    61    62   ar
    67    62    63   ar
    68    63    58   ar
    69    64    65   ar
    70    65    66   ar
    71    66    67   ar
    72    67    68   ar
    73    68    69   ar
    74    69    64   ar
    75    70    46    1
    76    52    70    1
    77    58    70    1
    78    64    70    1
@<TRIPOS>SUBSTRUCTURE
     1 RES1        1 GROUP             0 ****  ****    0  
     2 RES2       41 GROUP             0 ****  ****    0  
     3 RES3       45 GROUP             0 ****  ****    0  
     4 RES4       46 GROUP             0 ****  ****    0  
@<TRIPOS>CRYSIN
   14.8300   17.9800   11.3100  103.7100  110.6000   94.3100     2     1
