@<TRIPOS>MOLECULE
WOTTAA
    65    75     2     0     0
SMALL
USER_CHARGES
****
Generated from the CSD

@<TRIPOS>ATOM
     1 Fe1     -0.1593  15.5394   3.3278   Fe        1 RES1   1.0000
     2 O1       0.2758  15.8599   1.4927   O.3       1 RES1   0.0000
     3 O2      -0.5750  15.2120   5.1768   O.3       1 RES1   0.0000
     4 N1      -2.1402  15.7833   3.2542   N.2       1 RES1   0.0000
     5 N2       1.7980  15.4158   3.4152   N.2       1 RES1   0.0000
     6 N3      -0.2266  13.5191   2.9689   N.ar      1 RES1   0.0000
     7 N4      -0.1973  17.5755   3.6548   N.2       1 RES1   0.0000
     8 C1      -0.3427  15.2486   0.5433   C.ar      1 RES1   0.0000
     9 C2       0.4141  14.9211  -0.6732   C.ar      1 RES1   0.0000
    10 C3      -0.4155  14.1287  -1.5841   C.ar      1 RES1   0.0000
    11 C4      -1.7359  13.9684  -1.2055   C.ar      1 RES1   0.0000
    12 C5      -2.5249  14.3237   0.0055   C.ar      1 RES1   0.0000
    13 C6      -1.8257  15.0169   0.9951   C.ar      1 RES1   0.0000
    14 C7      -2.6510  15.4611   2.1988   C.2       1 RES1   0.0000
    15 C8       0.0979  14.1844   5.7493   C.ar      1 RES1   0.0000
    16 C9      -0.7636  13.6096   6.8963   C.ar      1 RES1   0.0000
    17 C10      2.0270  12.8119   5.9341   C.ar      1 RES1   0.0000
    18 C11      1.3687  13.9284   5.3158   C.ar      1 RES1   0.0000
    19 C12      2.2830  14.6042   4.2548   C.2       1 RES1   0.0000
    20 C13      2.8310  16.2849   2.5280   C.3       1 RES1   0.0000
    21 C14      0.7311  12.8746   1.9500   C.ar      1 RES1   0.0000
    22 C15      0.5964  11.5126   1.5988   C.ar      1 RES1   0.0000
    23 C16     -0.5102  10.7846   2.1000   C.ar      1 RES1   0.0000
    24 C17     -1.4714  11.4012   3.1555   C.ar      1 RES1   0.0000
    25 C18     -1.2979  12.7684   3.5524   C.ar      1 RES1   0.0000
    26 C19     -3.0786  16.2849   4.4469   C.3       1 RES1   0.0000
    27 C39     -1.2068  18.0353   4.8475   C.3       1 RES1   0.0000
    28 C40      1.3276  18.0388   3.8341   C.3       1 RES1   0.0000
    29 C41      2.3285  17.7566   2.6231   C.3       1 RES1   0.0000
    30 C42     -1.7089   8.9036   1.3006   C.2       1 RES1   0.0000
    31 C43     -0.6382   9.4278   1.7085   C.2       1 RES1   0.0000
    32 C44     -3.1001   9.5027   1.1341   C.ar      1 RES1   0.0000
    33 C45     -4.0636   8.4890   0.9915   C.ar      1 RES1   0.0000
    34 C46     -5.4247   8.8705   0.8049   C.ar      1 RES1   0.0000
    35 C47     -5.7107  10.1837   0.7244   C.ar      1 RES1   0.0000
    36 C48     -4.7382  11.1660   0.7390   C.ar      1 RES1   0.0000
    37 C49     -3.4408  10.8020   0.9732   C.ar      1 RES1   0.0000
    38 C50      1.2145  12.2337   7.0316   C.ar      1 RES1   0.0000
    39 C51     -0.1032  12.5054   7.5073   C.ar      1 RES1   0.0000
    40 C57     -2.7038  17.8350   4.5439   C.3       1 RES1   0.0000
    41 C20     -1.5150   5.6936   4.7030   C.ar      2 RES2   0.0000
    42 C21     -2.3447   4.7217   5.3341   C.ar      2 RES2   0.0000
    43 C22     -3.2999   4.0216   4.6573   C.ar      2 RES2   0.0000
    44 C23     -3.3757   4.3839   3.3256   C.ar      2 RES2   0.0000
    45 C24     -2.5865   5.3871   2.6671   C.ar      2 RES2   0.0000
    46 C25     -1.6566   6.0872   3.3457   C.ar      2 RES2   0.0000
    47 C26      0.6442   7.3744   4.6134   C.ar      2 RES2   0.0000
    48 C27      0.2546   5.5247   6.4060   C.ar      2 RES2   0.0000
    49 C28      0.5886   4.2306   5.8445   C.ar      2 RES2   0.0000
    50 C29      1.4081   3.3127   6.5615   C.ar      2 RES2   0.0000
    51 C30      1.8110   3.7116   7.6920   C.ar      2 RES2   0.0000
    52 C31      1.5134   5.0231   8.1493   C.ar      2 RES2   0.0000
    53 C32      0.7099   5.9253   7.5786   C.ar      2 RES2   0.0000
    54 C33     -1.5473   7.5085   6.5103   C.ar      2 RES2   0.0000
    55 C34     -2.0390   8.6580   5.8865   C.ar      2 RES2   0.0000
    56 C35     -2.9427   9.5201   6.6749   C.ar      2 RES2   0.0000
    57 C36     -3.4829   9.3582   8.0012   C.ar      2 RES2   0.0000
    58 C37     -2.9779   8.1407   8.5774   C.ar      2 RES2   0.0000
    59 C38     -2.0659   7.3291   7.8274   C.ar      2 RES2   0.0000
    60 C52      1.4267   6.8135   3.4390   C.ar      2 RES2   0.0000
    61 C53      1.0219   8.7660   4.8384   C.ar      2 RES2   0.0000
    62 C54      2.0622   9.3547   3.9366   C.ar      2 RES2   0.0000
    63 C55      2.8774   8.7625   2.7933   C.ar      2 RES2   0.0000
    64 C56      2.5124   7.3674   2.6378   C.ar      2 RES2   0.0000
    65 B1      -0.5115   6.6167   5.5134   B         2 RES2  -1.0000
@<TRIPOS>BOND
     1     1     2    1
     2     2     8    1
     3     3     1    1
     4     4     1    1
     5     5     1    1
     6     6     1    1
     7     7     1    1
     8     8     9   ar
     9     9    10   ar
    10    10    11   ar
    11    11    12   ar
    12    12    13   ar
    13    13     8   ar
    14    14     4    2
    15    15     3    1
    16    16    15   ar
    17    17    18   ar
    18    18    15   ar
    19    19     5    2
    20    20     5    1
    21    21     6   ar
    22    22    21   ar
    23    23    22   ar
    24    24    23   ar
    25    25     6   ar
    26    26     4    1
    27    27     7    1
    28    28     7    1
    29    29    20    1
    30    30    31    2
    31    31    23    1
    32    32    30    1
    33    33    32   ar
    34    34    33   ar
    35    35    34   ar
    36    36    35   ar
    37    37    32   ar
    38    38    17   ar
    39    39    16   ar
    40    40    26    1
    41    13    14    1
    42    18    19    1
    43    24    25   ar
    44    27    40    1
    45    28    29    1
    46    36    37   ar
    47    38    39   ar
    48    41    42   ar
    49    42    43   ar
    50    43    44   ar
    51    44    45   ar
    52    45    46   ar
    53    46    41   ar
    54    47    60   ar
    55    48    49   ar
    56    49    50   ar
    57    50    51   ar
    58    51    52   ar
    59    52    53   ar
    60    53    48   ar
    61    54    55   ar
    62    55    56   ar
    63    56    57   ar
    64    57    58   ar
    65    58    59   ar
    66    59    54   ar
    67    60    64   ar
    68    61    47   ar
    69    62    61   ar
    70    63    62   ar
    71    64    63   ar
    72    65    41    1
    73    47    65    1
    74    48    65    1
    75    54    65    1
@<TRIPOS>SUBSTRUCTURE
     1 RES1        1 GROUP             0 ****  ****    0  
     2 RES2       41 GROUP             0 ****  ****    0  
@<TRIPOS>CRYSIN
   14.8230   17.4170   18.3720   90.0000   95.3310   90.0000   231     1
