@<TRIPOS>MOLECULE
WOVLEY01
   130   138    10     0     0
SMALL
USER_CHARGES
****
Generated from the CSD

@<TRIPOS>ATOM
     1 Fe1      8.0554   4.6817   9.4522   Fe        1 RES1   2.0000
     2 N1       7.4870   6.2080  10.5729   N.ar      1 RES1   0.0000
     3 N2       7.5761   5.9173   7.9845   N.ar      1 RES1   0.0000
     4 N3       8.6396   3.6072  11.0031   N.ar      1 RES1   0.0000
     5 N4       9.9459   5.2435   9.4488   N.ar      1 RES1   0.0000
     6 N5       6.2364   3.8898   9.4545   N.ar      1 RES1   0.0000
     7 N6       8.4463   3.1389   8.2643   N.ar      1 RES1   0.0000
     8 C1       7.4991   6.3586  11.8977   C.ar      1 RES1   0.0000
     9 H1       7.8776   5.6883  12.4198   H         1 RES1   0.0000
    10 C2       6.9653   7.4853  12.5306   C.ar      1 RES1   0.0000
    11 H2       6.9919   7.5478  13.4587   H         1 RES1   0.0000
    12 C3       6.4086   8.4866  11.8062   C.ar      1 RES1   0.0000
    13 H3       6.0340   9.2240  12.2298   H         1 RES1   0.0000
    14 C4       6.4062   8.3913  10.4054   C.ar      1 RES1   0.0000
    15 C5       5.9005   9.4015   9.5230   C.ar      1 RES1   0.0000
    16 H4       5.4955  10.1576   9.8800   H         1 RES1   0.0000
    17 C6       6.0016   9.2767   8.1885   C.ar      1 RES1   0.0000
    18 H5       5.6846   9.9608   7.6436   H         1 RES1   0.0000
    19 C7       6.5853   8.1149   7.5854   C.ar      1 RES1   0.0000
    20 C8       6.7725   7.9247   6.2024   C.ar      1 RES1   0.0000
    21 H6       6.5033   8.5778   5.5972   H         1 RES1   0.0000
    22 C9       7.3539   6.7710   5.7619   C.ar      1 RES1   0.0000
    23 H7       7.5013   6.6451   4.8529   H         1 RES1   0.0000
    24 C10      7.7289   5.7786   6.6685   C.ar      1 RES1   0.0000
    25 H8       8.0999   4.9901   6.3415   H         1 RES1   0.0000
    26 C11      7.0255   7.0827   8.4289   C.ar      1 RES1   0.0000
    27 C12      6.9589   7.2376   9.8418   C.ar      1 RES1   0.0000
    28 C13      7.9321   2.8104  11.8194   C.ar      1 RES1   0.0000
    29 H9       7.0206   2.7101  11.6667   H         1 RES1   0.0000
    30 C14      8.5137   2.1255  12.8913   C.ar      1 RES1   0.0000
    31 H10      7.9879   1.5952  13.4465   H         1 RES1   0.0000
    32 C15      9.8509   2.2364  13.1205   C.ar      1 RES1   0.0000
    33 H11     10.2422   1.7823  13.8299   H         1 RES1   0.0000
    34 C16     10.6367   3.0426  12.2772   C.ar      1 RES1   0.0000
    35 C17     12.0585   3.2240  12.4070   C.ar      1 RES1   0.0000
    36 H12     12.5149   2.7757  13.0821   H         1 RES1   0.0000
    37 C18     12.7412   4.0301  11.5695   C.ar      1 RES1   0.0000
    38 H13     13.6624   4.1105  11.6667   H         1 RES1   0.0000
    39 C19     12.0815   4.7630  10.5351   C.ar      1 RES1   0.0000
    40 C20     12.7169   5.6494   9.6614   C.ar      1 RES1   0.0000
    41 H14     13.6367   5.7828   9.7075   H         1 RES1   0.0000
    42 C21     11.9615   6.3170   8.7360   C.ar      1 RES1   0.0000
    43 H15     12.3685   6.9228   8.1596   H         1 RES1   0.0000
    44 C22     10.5880   6.0976   8.6478   C.ar      1 RES1   0.0000
    45 H16     10.1004   6.5640   8.0079   H         1 RES1   0.0000
    46 C23     10.6936   4.6006  10.3867   C.ar      1 RES1   0.0000
    47 C24      9.9769   3.7149  11.2479   C.ar      1 RES1   0.0000
    48 C25      5.1124   4.3111  10.0348   C.ar      1 RES1   0.0000
    49 H17      5.1322   5.1058  10.5180   H         1 RES1   0.0000
    50 C26      3.9072   3.6107   9.9478   C.ar      1 RES1   0.0000
    51 H18      3.1464   3.9407  10.3681   H         1 RES1   0.0000
    52 C27      3.8493   2.4458   9.2474   C.ar      1 RES1   0.0000
    53 H19      3.0479   1.9771   9.1880   H         1 RES1   0.0000
    54 C28      4.9970   1.9573   8.6177   C.ar      1 RES1   0.0000
    55 C29      5.0540   0.7567   7.8402   C.ar      1 RES1   0.0000
    56 H20      4.2910   0.2334   7.7517   H         1 RES1   0.0000
    57 C30      6.1924   0.3729   7.2341   C.ar      1 RES1   0.0000
    58 H21      6.1958  -0.4089   6.7319   H         1 RES1   0.0000
    59 C31      7.3983   1.1344   7.3406   C.ar      1 RES1   0.0000
    60 C32      8.6144   0.8051   6.7257   C.ar      1 RES1   0.0000
    61 H22      8.6867   0.0328   6.2125   H         1 RES1   0.0000
    62 C33      9.6871   1.6237   6.8867   C.ar      1 RES1   0.0000
    63 H23     10.4959   1.4139   6.4792   H         1 RES1   0.0000
    64 C34      9.5779   2.7755   7.6584   C.ar      1 RES1   0.0000
    65 H24     10.3272   3.3177   7.7569   H         1 RES1   0.0000
    66 C35      7.3635   2.3131   8.1045   C.ar      1 RES1   0.0000
    67 C36      6.1665   2.7224   8.7439   C.ar      1 RES1   0.0000
    68 S1       3.9935   1.2121  13.6715   S.o2      2 RES2   0.0000
    69 O1       2.6574   1.7468  13.8017   O.2       2 RES2   0.0000
    70 O2       4.3982   0.8969  12.3279   O.2       2 RES2   0.0000
    71 C37      5.1589   2.3099  14.4170   C.ar      2 RES2   0.0000
    72 C38      5.4681   3.6211  14.1289   C.ar      2 RES2   0.0000
    73 H25      5.0527   4.0777  13.4342   H         2 RES2   0.0000
    74 C39      6.4264   4.2253  14.9225   C.ar      2 RES2   0.0000
    75 H26      6.6587   5.1116  14.7660   H         2 RES2   0.0000
    76 C40      7.0429   3.5299  15.9468   C.ar      2 RES2   0.0000
    77 H27      7.6953   3.9542  16.4568   H         2 RES2   0.0000
    78 C41      6.7125   2.2279  16.2271   C.ar      2 RES2   0.0000
    79 H28      7.1310   1.7669  16.9188   H         2 RES2   0.0000
    80 C42      5.7413   1.6201  15.4556   C.ar      2 RES2   0.0000
    81 C43      5.1259   0.2619  15.6058   C.2       2 RES2   0.0000
    82 O3       5.4630  -0.4961  16.5339   O.2       2 RES2   0.0000
    83 N7       4.2021  -0.0197  14.6710   N.am      2 RES2  -1.0000
    84 S2      13.4754   2.1808   7.9668   S.o2      3 RES3   0.0000
    85 O4      12.6152   1.6143   8.9696   O.2       3 RES3   0.0000
    86 O5      12.8001   2.9113   6.9242   O.2       3 RES3   0.0000
    87 C44     14.5039   0.9467   7.2367   C.ar      3 RES3   0.0000
    88 C45     14.1901  -0.1865   6.5165   C.ar      3 RES3   0.0000
    89 H29     13.3093  -0.4186   6.3328   H         3 RES3   0.0000
    90 C46     15.2496  -0.9610   6.0812   C.ar      3 RES3   0.0000
    91 H30     15.0773  -1.7360   5.5972   H         3 RES3   0.0000
    92 C47     16.5611  -0.6130   6.3464   C.ar      3 RES3   0.0000
    93 H31     17.2521  -1.1573   6.0417   H         3 RES3   0.0000
    94 C48     16.8581   0.5328   7.0588   C.ar      3 RES3   0.0000
    95 H32     17.7403   0.7735   7.2287   H         3 RES3   0.0000
    96 C49     15.8134   1.3126   7.5120   C.ar      3 RES3   0.0000
    97 C50     15.8469   2.5759   8.3241   C.2       3 RES3   0.0000
    98 O6      16.9297   3.1017   8.6638   O.2       3 RES3   0.0000
    99 N8      14.6459   3.0697   8.6290   N.am      3 RES3   0.0000
   100 S3       3.4331   1.4966   3.9335   S.o2      4 RES4   0.0000
   101 O7       2.5659   2.0099   2.9244   O.2       4 RES4   0.0000
   102 O8       3.0731   0.2496   4.5220   O.2       4 RES4   0.0000
   103 C51      5.1070   1.4829   3.4125   C.ar      4 RES4   0.0000
   104 C52      5.6704   0.7532   2.3867   C.ar      4 RES4   0.0000
   105 H33      5.1594   0.1852   1.8564   H         4 RES4   0.0000
   106 C53      7.0262   0.9064   2.1841   C.ar      4 RES4   0.0000
   107 H34      7.4435   0.4205   1.5095   H         4 RES4   0.0000
   108 C54      7.7777   1.7646   2.9610   C.ar      4 RES4   0.0000
   109 H35      8.6907   1.8460   2.7995   H         4 RES4   0.0000
   110 C55      7.2004   2.5022   3.9708   C.ar      4 RES4   0.0000
   111 H36      7.7088   3.0843   4.4868   H         4 RES4   0.0000
   112 C56      5.8444   2.3540   4.1966   C.ar      4 RES4   0.0000
   113 C57      5.0071   3.0592   5.1962   C.2       4 RES4   0.0000
   114 O9       5.3861   3.9006   5.9840   O.2       4 RES4   0.0000
   115 N9       3.7097   2.6316   5.0826   N.am      4 RES4   0.0000
   116 H37      3.0819   2.9396   5.5815   H         4 RES4   0.0000
   117 O10     11.3051   3.5631  15.7793   O.3       5 RES5   0.0000
   118 H38     11.1043   3.4026  16.7096   H         5 RES5   0.0000
   119 O11     11.2143   2.9755   0.9413   O.3       6 RES6   0.0000
   120 H39     10.3816   3.2618   0.5892   H         6 RES6   0.0000
   121 O12      9.0408   4.6018   1.9139   O.3       7 RES7   0.0000
   122 H40      8.8038   5.2466   1.2707   H         7 RES7   0.0000
   123 H41      8.6239   5.0151   2.7245   H         7 RES7   0.0000
   124 O13      1.8305   4.0069   6.3479   O.3       8 RES8   0.0000
   125 H42      2.2529   4.8685   6.4844   H         8 RES8   0.0000
   126 H43      1.6319   3.7228   7.2270   H         8 RES8   0.0000
   127 O14      1.5336   4.4428  13.1745   O.3       9 RES9   0.0000
   128 H44      2.0780   5.2389  13.2477   H         9 RES9   0.0000
   129 H45      2.0717   3.7189  13.3872   H         9 RES9   0.0000
   130 O15     12.0479   3.2020   4.0196   O.3      10 RES10   0.0000
@<TRIPOS>BOND
     1     1     2    1
     2     2     8   ar
     3     3     1    1
     4     4     1    1
     5     5     1    1
     6     6     1    1
     7     7     1    1
     8     8     9    1
     9    10     8   ar
    10    11    10    1
    11    12    10   ar
    12    13    12    1
    13    14    12   ar
    14    15    14   ar
    15    16    15    1
    16    17    15   ar
    17    18    17    1
    18    19    17   ar
    19    20    19   ar
    20    21    20    1
    21    22    20   ar
    22    23    22    1
    23    24     3   ar
    24    25    24    1
    25    26     3   ar
    26    27     2   ar
    27    28     4   ar
    28    29    28    1
    29    30    28   ar
    30    31    30    1
    31    32    30   ar
    32    33    32    1
    33    34    32   ar
    34    35    34   ar
    35    36    35    1
    36    37    35   ar
    37    38    37    1
    38    39    37   ar
    39    40    39   ar
    40    41    40    1
    41    42    40   ar
    42    43    42    1
    43    44     5   ar
    44    45    44    1
    45    46     5   ar
    46    47     4   ar
    47    48     6   ar
    48    49    48    1
    49    50    48   ar
    50    51    50    1
    51    52    50   ar
    52    53    52    1
    53    54    52   ar
    54    55    54   ar
    55    56    55    1
    56    57    55   ar
    57    58    57    1
    58    59    57   ar
    59    60    59   ar
    60    61    60    1
    61    62    60   ar
    62    63    62    1
    63    64     7   ar
    64    65    64    1
    65    66     7   ar
    66    67     6   ar
    67    14    27   ar
    68    19    26   ar
    69    22    24   ar
    70    26    27   ar
    71    34    47   ar
    72    39    46   ar
    73    42    44   ar
    74    46    47   ar
    75    54    67   ar
    76    59    66   ar
    77    62    64   ar
    78    66    67   ar
    79    68    69    2
    80    70    68    2
    81    71    68    1
    82    72    71   ar
    83    73    72    1
    84    74    72   ar
    85    75    74    1
    86    76    74   ar
    87    77    76    1
    88    78    76   ar
    89    79    78    1
    90    80    71   ar
    91    81    80    1
    92    82    81    2
    93    83    68    1
    94    78    80   ar
    95    81    83   am
    96    84    85    2
    97    86    84    2
    98    87    84    1
    99    88    87   ar
   100    89    88    1
   101    90    88   ar
   102    91    90    1
   103    92    90   ar
   104    93    92    1
   105    94    92   ar
   106    95    94    1
   107    96    87   ar
   108    97    96    1
   109    98    97    2
   110    99    84    1
   111    94    96   ar
   112    97    99   am
   113   100   101    2
   114   102   100    2
   115   103   100    1
   116   104   103   ar
   117   105   104    1
   118   106   104   ar
   119   107   106    1
   120   108   106   ar
   121   109   108    1
   122   110   108   ar
   123   111   110    1
   124   112   103   ar
   125   113   112    1
   126   114   113    2
   127   115   100    1
   128   116   115    1
   129   110   112   ar
   130   113   115   am
   131   117   118    1
   132   119   120    1
   133   121   122    1
   134   123   121    1
   135   124   125    1
   136   126   124    1
   137   127   128    1
   138   129   127    1
@<TRIPOS>SUBSTRUCTURE
     1 RES1        1 GROUP             0 ****  ****    0  
     2 RES2       68 GROUP             0 ****  ****    0  
     3 RES3       84 GROUP             0 ****  ****    0  
     4 RES4      100 GROUP             0 ****  ****    0  
     5 RES5      117 GROUP             0 ****  ****    0  
     6 RES6      119 GROUP             0 ****  ****    0  
     7 RES7      121 GROUP             0 ****  ****    0  
     8 RES8      124 GROUP             0 ****  ****    0  
     9 RES9      127 GROUP             0 ****  ****    0  
    10 RES10     130 GROUP             0 ****  ****    0  
@<TRIPOS>CRYSIN
   16.3190   19.2890   17.4490   90.0000   92.5860   90.0000   231     1
