@<TRIPOS>MOLECULE
WOYCEU
   125   134     3     0     0
SMALL
NO_CHARGES
****
Generated from the CSD

@<TRIPOS>ATOM
     1 Fe1      4.2254   2.2004  11.0202   Fe        1 RES1   0.0000
     2 S1      -0.0869   0.1693  10.7705   S.2       1 RES1   0.0000
     3 O1      -1.5505   2.1684  14.0835   O.3       1 RES1   0.0000
     4 N1       2.3869   1.4740  10.9044   N.2       1 RES1   0.0000
     5 C1       1.3663   0.9306  10.8560   C.1       1 RES1   0.0000
     6 S2       8.4945   4.3260  11.3418   S.2       1 RES1   0.0000
     7 O2      -1.9970   3.9418   9.9065   O.3       1 RES1   0.0000
     8 N2       6.0692   2.9339  11.1369   N.2       1 RES1   0.0000
     9 C2       7.0689   3.5098  11.2376   C.1       1 RES1   0.0000
    10 O3       9.9243   2.4248   8.0217   O.3       1 RES1   0.0000
    11 N3       3.8908   2.9673  12.8896   N.ar      1 RES1   0.0000
    12 C3       4.7248   2.6943  13.9290   C.ar      1 RES1   0.0000
    13 H1       5.4906   2.1535  13.7700   H         1 RES1   0.0000
    14 O4      10.4517   0.4583  12.0997   O.3       1 RES1   0.0000
    15 N4       3.6459   4.0462  10.3127   N.ar      1 RES1   0.0000
    16 C4       4.5081   3.1657  15.1909   C.ar      1 RES1   0.0000
    17 H2       5.1065   2.9392  15.8937   H         1 RES1   0.0000
    18 N5       4.7941   0.3468  11.7165   N.ar      1 RES1   0.0000
    19 C5       3.3955   3.9883  15.4494   C.ar      1 RES1   0.0000
    20 H3       3.2237   4.3158  16.3245   H         1 RES1   0.0000
    21 N6       4.5444   1.4152   9.1341   N.ar      1 RES1   0.0000
    22 C6       2.5498   4.3122  14.3874   C.ar      1 RES1   0.0000
    23 H4       1.7971   4.8802  14.5130   H         1 RES1   0.0000
    24 N7       2.0285   4.1200  12.0141   N.pl3     1 RES1   0.0000
    25 C7       2.8434   3.7750  13.1364   C.ar      1 RES1   0.0000
    26 N8       0.2606   3.1332  13.0920   N.ar      1 RES1   0.0000
    27 C8       4.2903   4.6379   9.2796   C.ar      1 RES1   0.0000
    28 H5       5.0139   4.1806   8.8698   H         1 RES1   0.0000
    29 N9      -0.0014   4.0173  10.8920   N.ar      1 RES1   0.0000
    30 C9       3.9312   5.8793   8.8028   C.ar      1 RES1   0.0000
    31 H6       4.3966   6.2603   8.0694   H         1 RES1   0.0000
    32 N10     -1.8804   3.0779  12.0353   N.ar      1 RES1   0.0000
    33 C10      2.8945   6.5641   9.3926   C.ar      1 RES1   0.0000
    34 H7       2.6270   7.4139   9.0632   H         1 RES1   0.0000
    35 N11      3.0519   1.2545  18.9031   N.1       1 RES1   0.0000
    36 C11      2.2460   5.9899  10.4804   C.ar      1 RES1   0.0000
    37 H8       1.5467   6.4473  10.9322   H         1 RES1   0.0000
    38 N12     -8.1670   1.5741   8.6483   N.1       1 RES1   0.0000
    39 C12      2.6500   4.7380  10.8826   C.ar      1 RES1   0.0000
    40 N13      6.4121   0.2932  10.0170   N.pl3     1 RES1   0.0000
    41 C13      0.7085   3.7521  12.0014   C.ar      1 RES1   0.0000
    42 N14      8.4424   0.4152  11.1372   N.ar      1 RES1   0.0000
    43 C14     -1.0148   2.8154  13.0319   C.ar      1 RES1   0.0000
    44 N15      8.1361   1.3853   8.9920   N.ar      1 RES1   0.0000
    45 C15     -1.2823   3.6415  11.0122   C.ar      1 RES1   0.0000
    46 N16     10.2974   1.4011   9.9937   N.ar      1 RES1   0.0000
    47 C16     -0.6382   1.8919  15.1260   C.ar      1 RES1   0.0000
    48 N17      5.6820   5.6229   3.8758   N.1       1 RES1   0.0000
    49 C17      0.2233   0.8147  15.0006   C.ar      1 RES1   0.0000
    50 H9       0.1646   0.2309  14.2526   H         1 RES1   0.0000
    51 N18     16.6801   2.5924  13.4652   N.1       1 RES1   0.0000
    52 C18      1.1767   0.6031  15.9894   C.ar      1 RES1   0.0000
    53 H10      1.8039  -0.1062  15.9147   H         1 RES1   0.0000
    54 C19      1.1935   1.4617  17.1025   C.ar      1 RES1   0.0000
    55 C20      0.2798   2.4932  17.2268   C.ar      1 RES1   0.0000
    56 H11      0.2881   3.0463  17.9981   H         1 RES1   0.0000
    57 C21     -0.6513   2.7180  16.2198   C.ar      1 RES1   0.0000
    58 H12     -1.2792   3.4264  16.2881   H         1 RES1   0.0000
    59 C22      2.2237   1.3151  18.1107   C.1       1 RES1   0.0000
    60 C23     -3.2844   3.3852   9.7627   C.ar      1 RES1   0.0000
    61 C24     -4.3191   4.2947   9.6017   C.ar      1 RES1   0.0000
    62 H13     -4.1600   5.2297   9.6664   H         1 RES1   0.0000
    63 C25     -5.5894   3.8048   9.3441   C.ar      1 RES1   0.0000
    64 H14     -6.3206   4.4018   9.2451   H         1 RES1   0.0000
    65 C26     -5.7835   2.4265   9.2308   C.ar      1 RES1   0.0000
    66 C27     -4.7186   1.5337   9.4054   C.ar      1 RES1   0.0000
    67 H15     -4.8630   0.5970   9.3447   H         1 RES1   0.0000
    68 C28     -3.4631   2.0236   9.6662   C.ar      1 RES1   0.0000
    69 H16     -2.7299   1.4319   9.7794   H         1 RES1   0.0000
    70 C29     -7.1087   1.9305   8.9070   C.1       1 RES1   0.0000
    71 C30      4.1161  -0.2748  12.7077   C.ar      1 RES1   0.0000
    72 H17      3.4055   0.1879  13.1324   H         1 RES1   0.0000
    73 C31      4.4179  -1.5530  13.1247   C.ar      1 RES1   0.0000
    74 H18      3.9371  -1.9507  13.8390   H         1 RES1   0.0000
    75 C32      5.4399  -2.2571  12.4851   C.ar      1 RES1   0.0000
    76 H19      5.6587  -3.1429  12.7513   H         1 RES1   0.0000
    77 C33      6.1289  -1.6417  11.4595   C.ar      1 RES1   0.0000
    78 H20      6.8316  -2.0912  11.0030   H         1 RES1   0.0000
    79 C34      5.7691  -0.3538  11.1152   C.ar      1 RES1   0.0000
    80 C35      3.6819   1.6461   8.1134   C.ar      1 RES1   0.0000
    81 H21      2.9116   2.1772   8.2724   H         1 RES1   0.0000
    82 C36      3.8928   1.1316   6.8553   C.ar      1 RES1   0.0000
    83 H22      3.2752   1.3142   6.1583   H         1 RES1   0.0000
    84 C37      5.0098   0.3450   6.6026   C.ar      1 RES1   0.0000
    85 H23      5.1785   0.0053   5.7313   H         1 RES1   0.0000
    86 C38      5.8761   0.0658   7.6556   C.ar      1 RES1   0.0000
    87 H24      6.6395  -0.4881   7.5294   H         1 RES1   0.0000
    88 C39      5.5939   0.6172   8.8861   C.ar      1 RES1   0.0000
    89 C40      7.7153   0.6988  10.0569   C.ar      1 RES1   0.0000
    90 C41      9.4119   1.7101   9.0399   C.ar      1 RES1   0.0000
    91 C42      9.7110   0.7884  11.0237   C.ar      1 RES1   0.0000
    92 C43      8.9733   3.0279   7.1573   C.ar      1 RES1   0.0000
    93 C44      8.2771   4.1419   7.6305   C.ar      1 RES1   0.0000
    94 H25      8.3886   4.4448   8.5232   H         1 RES1   0.0000
    95 C45      7.4139   4.7968   6.7558   C.ar      1 RES1   0.0000
    96 H26      6.9276   5.5597   7.0449   H         1 RES1   0.0000
    97 C46      7.2678   4.3237   5.4485   C.ar      1 RES1   0.0000
    98 C47      7.9602   3.2114   5.0293   C.ar      1 RES1   0.0000
    99 H27      7.8433   2.8821   4.1458   H         1 RES1   0.0000
   100 C48      8.8375   2.5670   5.9027   C.ar      1 RES1   0.0000
   101 H28      9.3317   1.8094   5.6126   H         1 RES1   0.0000
   102 C49      6.3874   5.0321   4.5613   C.1       1 RES1   0.0000
   103 C50     11.7553   0.9455  12.2494   C.ar      1 RES1   0.0000
   104 C51     11.9888   2.3150  12.2864   C.ar      1 RES1   0.0000
   105 H29     11.2899   2.9331  12.1098   H         1 RES1   0.0000
   106 C52     13.2759   2.7575  12.5880   C.ar      1 RES1   0.0000
   107 H30     13.4608   3.6872  12.6403   H         1 RES1   0.0000
   108 C53     14.2914   1.8199  12.8118   C.ar      1 RES1   0.0000
   109 C54     14.0349   0.4565  12.7534   C.ar      1 RES1   0.0000
   110 H31     14.7366  -0.1686  12.9045   H         1 RES1   0.0000
   111 C55     12.7413   0.0061  12.4716   C.ar      1 RES1   0.0000
   112 H32     12.5451  -0.9227  12.4334   H         1 RES1   0.0000
   113 C56     15.6231   2.2702  13.1575   C.1       1 RES1   0.0000
   114 O5       9.6595   8.7623   4.2844   O.3       2 RES2   0.0000
   115 H33      9.4791   8.8036   3.4660   H         2 RES2   0.0000
   116 C57      8.9493   7.6878   4.8696   C.3       2 RES2   0.0000
   117 H34      9.2837   7.5315   5.7773   H         2 RES2   0.0000
   118 H35      9.0779   6.8792   4.3315   H         2 RES2   0.0000
   119 H36      7.9942   7.9081   4.9060   H         2 RES2   0.0000
   120 O6       1.0093   3.3764   8.1971   O.3       3 RES3   0.0000
   121 H37      0.8059   3.4616   9.0077   H         3 RES3   0.0000
   122 C58      0.1248   2.5134   7.5887   C.3       3 RES3   0.0000
   123 H38     -0.7819   2.8848   7.6366   H         3 RES3   0.0000
   124 H39      0.1475   1.6469   8.0464   H         3 RES3   0.0000
   125 H40      0.3772   2.3932   6.6504   H         3 RES3   0.0000
@<TRIPOS>BOND
     1     1     4    1
     2     2     5    2
     3     3    43    1
     4     4     5    2
     5     6     9    2
     6     7    45    1
     7     8     1    1
     8     9     8    2
     9    10    90    1
    10    11     1    1
    11    12    11   ar
    12    13    12    1
    13    14    91    1
    14    15     1    1
    15    16    12   ar
    16    17    16    1
    17    18     1    1
    18    19    16   ar
    19    20    19    1
    20    21     1    1
    21    22    19   ar
    22    23    22    1
    23    24    25    1
    24    25    11   ar
    25    26    41   ar
    26    27    15   ar
    27    28    27    1
    28    29    41   ar
    29    30    27   ar
    30    31    30    1
    31    32    43   ar
    32    33    30   ar
    33    34    33    1
    34    35    59    3
    35    36    33   ar
    36    37    36    1
    37    38    70    3
    38    39    15   ar
    39    40    79    1
    40    41    24    1
    41    42    89   ar
    42    43    26   ar
    43    44    89   ar
    44    45    29   ar
    45    46    90   ar
    46    47     3    1
    47    48   102    3
    48    49    47   ar
    49    50    49    1
    50    51   113    3
    51    52    49   ar
    52    53    52    1
    53    54    52   ar
    54    55    54   ar
    55    56    55    1
    56    57    47   ar
    57    58    57    1
    58    59    54    1
    59    60     7    1
    60    61    60   ar
    61    62    61    1
    62    63    61   ar
    63    64    63    1
    64    65    63   ar
    65    66    65   ar
    66    67    66    1
    67    68    60   ar
    68    69    68    1
    69    70    65    1
    70    71    18   ar
    71    72    71    1
    72    73    71   ar
    73    74    73    1
    74    75    73   ar
    75    76    75    1
    76    77    75   ar
    77    78    77    1
    78    79    18   ar
    79    80    21   ar
    80    81    80    1
    81    82    80   ar
    82    83    82    1
    83    84    82   ar
    84    85    84    1
    85    86    84   ar
    86    87    86    1
    87    88    21   ar
    88    89    40    1
    89    90    44   ar
    90    91    42   ar
    91    92    10    1
    92    93    92   ar
    93    94    93    1
    94    95    93   ar
    95    96    95    1
    96    97    95   ar
    97    98    97   ar
    98    99    98    1
    99   100    92   ar
   100   101   100    1
   101   102    97    1
   102   103    14    1
   103   104   103   ar
   104   105   104    1
   105   106   104   ar
   106   107   106    1
   107   108   106   ar
   108   109   108   ar
   109   110   109    1
   110   111   103   ar
   111   112   111    1
   112   113   108    1
   113    22    25   ar
   114    24    39    1
   115    32    45   ar
   116    36    39   ar
   117    40    88    1
   118    46    91   ar
   119    55    57   ar
   120    66    68   ar
   121    77    79   ar
   122    86    88   ar
   123    98   100   ar
   124   109   111   ar
   125   114   115    1
   126   116   114    1
   127   117   116    1
   128   118   116    1
   129   119   116    1
   130   120   121    1
   131   122   120    1
   132   123   122    1
   133   124   122    1
   134   125   122    1
@<TRIPOS>SUBSTRUCTURE
     1 RES1        1 GROUP             0 ****  ****    0  
     2 RES2      114 GROUP             0 ****  ****    0  
     3 RES3      120 GROUP             0 ****  ****    0  
@<TRIPOS>CRYSIN
   34.2950    8.7790   19.1490   90.0000   90.0000   90.0000    29     1
