@<TRIPOS>MOLECULE
WOYDEV
   177   192     1     0     0
SMALL
NO_CHARGES
****
Generated from the CSD

@<TRIPOS>ATOM
     1 Se1      4.3440   2.9478   6.3912   Se        1 RES1   0.0000
     2 Fe1      7.7512   0.0000   4.5107   Fe        1 RES1   0.0000
     3 N1       7.7581   2.8558   3.3440   N.pl3     1 RES1   0.0000
     4 N2       9.1117   1.4373   4.6458   N.ar      1 RES1   0.0000
     5 N3       5.1328   5.8311   4.2196   N.ar      1 RES1   0.0000
     6 N4       7.1646   4.6479   4.6944   N.ar      1 RES1   0.0000
     7 N5       7.4688   0.6163   2.6536   N.ar      1 RES1   0.0000
     8 C1       6.8566   3.8820   3.6509   C.ar      1 RES1   0.0000
     9 N6       5.7859   3.9556   2.8794   N.ar      1 RES1   0.0000
    10 C2      10.2878   1.2079   5.2780   C.ar      1 RES1   0.0000
    11 H1      10.4489   0.3406   5.6311   H         1 RES1   0.0000
    12 N7       3.8571   5.1075   2.4237   N.pl3     1 RES1   0.0000
    13 C3       9.8711   3.6866   4.2247   C.ar      1 RES1   0.0000
    14 H2       9.7044   4.5378   3.8395   H         1 RES1   0.0000
    15 C4       8.9284   2.6565   4.1107   C.ar      1 RES1   0.0000
    16 C5       4.9493   4.9685   3.2028   C.ar      1 RES1   0.0000
    17 C6       7.4544   1.9181   2.3199   C.ar      1 RES1   0.0000
    18 C7       7.2115   2.3570   1.0208   C.ar      1 RES1   0.0000
    19 H3       7.2377   3.2849   0.8119   H         1 RES1   0.0000
    20 C8       2.9074   2.1859   2.4583   C.ar      1 RES1   0.0000
    21 H4       3.6448   2.2787   3.0492   H         1 RES1   0.0000
    22 C9       2.0300   1.1112   2.6045   C.ar      1 RES1   0.0000
    23 H5       2.1841   0.4659   3.2856   H         1 RES1   0.0000
    24 C10      1.6101   2.9658   0.5990   C.ar      1 RES1   0.0000
    25 H6       1.4657   3.5942  -0.0992   H         1 RES1   0.0000
    26 C11      7.2591  -0.2897   1.6589   C.ar      1 RES1   0.0000
    27 H7       7.3216  -1.2137   1.8674   H         1 RES1   0.0000
    28 C12     11.2611   2.1687   5.4345   C.ar      1 RES1   0.0000
    29 H8      12.0672   1.9694   5.8946   H         1 RES1   0.0000
    30 C13      0.7220   1.8985   0.7551   C.ar      1 RES1   0.0000
    31 H9      -0.0231   1.8050   0.1741   H         1 RES1   0.0000
    32 C14      1.9307   8.0232   1.2206   C.ar      1 RES1   0.0000
    33 H10      1.0646   7.7797   1.5255   H         1 RES1   0.0000
    34 C15      2.0768   9.0718   0.3176   C.ar      1 RES1   0.0000
    35 H11      1.3104   9.5455   0.0171   H         1 RES1   0.0000
    36 C16      2.6997   3.1260   1.4434   C.ar      1 RES1   0.0000
    37 C17      2.8803   6.1658   2.6451   C.3       1 RES1   0.0000
    38 H12      2.9716   6.4994   3.5725   H         1 RES1   0.0000
    39 H13      1.9689   5.7907   2.5467   H         1 RES1   0.0000
    40 C18      6.9621   0.0720   0.3681   C.ar      1 RES1   0.0000
    41 H14      6.7818  -0.5912  -0.2887   H         1 RES1   0.0000
    42 C19      0.9384   0.9741   1.7655   C.ar      1 RES1   0.0000
    43 H15      0.3388   0.2467   1.8810   H         1 RES1   0.0000
    44 C20     11.0400   3.4427   4.9049   C.ar      1 RES1   0.0000
    45 H16     11.6878   4.1306   5.0123   H         1 RES1   0.0000
    46 C21      4.3056   7.7061   1.2125   C.ar      1 RES1   0.0000
    47 H17      5.0773   7.2472   1.5201   H         1 RES1   0.0000
    48 C22      3.3317   9.4269  -0.1470   C.ar      1 RES1   0.0000
    49 H18      3.4256  10.1367  -0.7731   H         1 RES1   0.0000
    50 C23      4.4446   8.7487   0.3040   C.ar      1 RES1   0.0000
    51 H19      5.3081   8.9934  -0.0072   H         1 RES1   0.0000
    52 N8       6.3700   1.1844   5.1703   N.2       1 RES1   0.0000
    53 N9       6.4485   6.3471   6.0581   N.pl3     1 RES1   0.0000
    54 C24      5.5637   1.8696   5.6444   C.1       1 RES1   0.0000
    55 C25      7.6639   6.1498   6.8256   C.3       1 RES1   0.0000
    56 H20      7.7980   5.1760   6.9546   H         1 RES1   0.0000
    57 H21      7.5393   6.5542   7.7196   H         1 RES1   0.0000
    58 C26      6.2222   5.5820   4.9503   C.ar      1 RES1   0.0000
    59 C27      3.6555   4.2763   1.2332   C.3       1 RES1   0.0000
    60 H22      4.5305   3.9153   0.9454   H         1 RES1   0.0000
    61 H23      3.3111   4.8471   0.5007   H         1 RES1   0.0000
    62 C28      6.9306   1.4209   0.0352   C.ar      1 RES1   0.0000
    63 H24      6.7191   1.6953  -0.8489   H         1 RES1   0.0000
    64 C29      5.5327   7.4042   6.4674   C.3       1 RES1   0.0000
    65 H25      4.8784   7.5526   5.7403   H         1 RES1   0.0000
    66 H26      6.0488   8.2417   6.5802   H         1 RES1   0.0000
    67 C30      3.0456   7.3267   1.6807   C.ar      1 RES1   0.0000
    68 C31      8.9260   6.7327   6.2040   C.ar      1 RES1   0.0000
    69 C32      8.8766   7.5503   5.0763   C.ar      1 RES1   0.0000
    70 H27      8.0420   7.7405   4.6631   H         1 RES1   0.0000
    71 C33      4.7874   5.8839   8.3718   C.ar      1 RES1   0.0000
    72 H28      5.2714   5.1682   7.9776   H         1 RES1   0.0000
    73 C34      4.7742   7.1266   7.7529   C.ar      1 RES1   0.0000
    74 C35      4.0973   5.6768   9.5671   C.ar      1 RES1   0.0000
    75 H29      4.1257   4.8236   9.9857   H         1 RES1   0.0000
    76 C36      4.0412   8.1587   8.3438   C.ar      1 RES1   0.0000
    77 H30      4.0180   9.0130   7.9307   H         1 RES1   0.0000
    78 C37      3.3444   7.9488   9.5274   C.ar      1 RES1   0.0000
    79 H31      2.8469   8.6606   9.9163   H         1 RES1   0.0000
    80 C38     10.1472   6.4536   6.7786   C.ar      1 RES1   0.0000
    81 H32     10.1916   5.8769   7.5337   H         1 RES1   0.0000
    82 C39     10.0523   8.0929   4.5531   C.ar      1 RES1   0.0000
    83 H33     10.0156   8.6450   3.7808   H         1 RES1   0.0000
    84 C40     11.2604   7.8306   5.1512   C.ar      1 RES1   0.0000
    85 H34     12.0557   8.2143   4.8021   H         1 RES1   0.0000
    86 C41     11.3204   7.0088   6.2617   C.ar      1 RES1   0.0000
    87 H35     12.1570   6.8205   6.6713   H         1 RES1   0.0000
    88 C42      3.3740   6.7026  10.1463   C.ar      1 RES1   0.0000
    89 H36      2.9024   6.5581  10.9582   H         1 RES1   0.0000
    90 Se1B    11.1584  -2.9478   2.6302   Se        1 RES1   0.0000
    91 N1B      7.7444  -2.8558   5.6773   N.pl3     1 RES1   0.0000
    92 N2B      6.3907  -1.4373   4.3755   N.ar      1 RES1   0.0000
    93 N3B     10.3697  -5.8311   4.8018   N.ar      1 RES1   0.0000
    94 N4B      8.3379  -4.6479   4.3269   N.ar      1 RES1   0.0000
    95 N5B      8.0336  -0.6163   6.3677   N.ar      1 RES1   0.0000
    96 C1B      8.6458  -3.8820   5.3704   C.ar      1 RES1   0.0000
    97 N6B      9.7165  -3.9556   6.1419   N.ar      1 RES1   0.0000
    98 C2B      5.2146  -1.2079   3.7433   C.ar      1 RES1   0.0000
    99 H1B      5.0535  -0.3406   3.3902   H         1 RES1   0.0000
   100 N7B     11.6453  -5.1075   6.5977   N.pl3     1 RES1   0.0000
   101 C3B      5.6313  -3.6866   4.7967   C.ar      1 RES1   0.0000
   102 H2B      5.7980  -4.5378   5.1819   H         1 RES1   0.0000
   103 C4B      6.5740  -2.6565   4.9107   C.ar      1 RES1   0.0000
   104 C5B     10.5531  -4.9685   5.8186   C.ar      1 RES1   0.0000
   105 C6B      8.0480  -1.9181   6.7014   C.ar      1 RES1   0.0000
   106 C7B      8.2909  -2.3570   8.0006   C.ar      1 RES1   0.0000
   107 H3B      8.2647  -3.2849   8.2094   H         1 RES1   0.0000
   108 C8B     12.5950  -2.1859   6.5630   C.ar      1 RES1   0.0000
   109 H4B     11.8576  -2.2787   5.9721   H         1 RES1   0.0000
   110 C9B     13.4724  -1.1112   6.4169   C.ar      1 RES1   0.0000
   111 H5B     13.3183  -0.4659   5.7358   H         1 RES1   0.0000
   112 C10B    13.8923  -2.9658   8.4223   C.ar      1 RES1   0.0000
   113 H6B     14.0368  -3.5942   9.1206   H         1 RES1   0.0000
   114 C11B     8.2433   0.2897   7.3624   C.ar      1 RES1   0.0000
   115 H7B      8.1808   1.2137   7.1539   H         1 RES1   0.0000
   116 C12B     4.2413  -2.1687   3.5869   C.ar      1 RES1   0.0000
   117 H8B      3.4352  -1.9694   3.1268   H         1 RES1   0.0000
   118 C13B    14.7805  -1.8985   8.2663   C.ar      1 RES1   0.0000
   119 H9B     15.5255  -1.8050   8.8472   H         1 RES1   0.0000
   120 C14B    13.5718  -8.0232   7.8008   C.ar      1 RES1   0.0000
   121 H10B    14.4379  -7.7797   7.4958   H         1 RES1   0.0000
   122 C15B    13.4256  -9.0718   8.7038   C.ar      1 RES1   0.0000
   123 H11B    14.1920  -9.5455   9.0042   H         1 RES1   0.0000
   124 C16B    12.8027  -3.1260   7.5779   C.ar      1 RES1   0.0000
   125 C17B    12.6221  -6.1658   6.3763   C.3       1 RES1   0.0000
   126 H12B    12.5308  -6.4994   5.4489   H         1 RES1   0.0000
   127 H13B    13.5335  -5.7907   6.4746   H         1 RES1   0.0000
   128 C18B     8.5404  -0.0720   8.6533   C.ar      1 RES1   0.0000
   129 H14B     8.7206   0.5912   9.3100   H         1 RES1   0.0000
   130 C19B    14.5640  -0.9741   7.2559   C.ar      1 RES1   0.0000
   131 H15B    15.1636  -0.2467   7.1404   H         1 RES1   0.0000
   132 C20B     4.4624  -3.4427   4.1164   C.ar      1 RES1   0.0000
   133 H16B     3.8146  -4.1306   4.0091   H         1 RES1   0.0000
   134 C21B    11.1968  -7.7061   7.8089   C.ar      1 RES1   0.0000
   135 H17B    10.4252  -7.2472   7.5013   H         1 RES1   0.0000
   136 C22B    12.1707  -9.4269   9.1684   C.ar      1 RES1   0.0000
   137 H18B    12.0769 -10.1367   9.7945   H         1 RES1   0.0000
   138 C23B    11.0579  -8.7487   8.7173   C.ar      1 RES1   0.0000
   139 H19B    10.1944  -8.9934   9.0286   H         1 RES1   0.0000
   140 N8B      9.1324  -1.1844   3.8510   N.2       1 RES1   0.0000
   141 N9B      9.0540  -6.3471   2.9632   N.pl3     1 RES1   0.0000
   142 C24B     9.9387  -1.8696   3.3770   C.1       1 RES1   0.0000
   143 C25B     7.8385  -6.1498   2.1958   C.3       1 RES1   0.0000
   144 H20B     7.7044  -5.1760   2.0668   H         1 RES1   0.0000
   145 H21B     7.9632  -6.5542   1.3018   H         1 RES1   0.0000
   146 C26B     9.2803  -5.5820   4.0711   C.ar      1 RES1   0.0000
   147 C27B    11.8469  -4.2763   7.7881   C.3       1 RES1   0.0000
   148 H22B    10.9720  -3.9153   8.0759   H         1 RES1   0.0000
   149 H23B    12.1914  -4.8471   8.5207   H         1 RES1   0.0000
   150 C28B     8.5718  -1.4209   8.9862   C.ar      1 RES1   0.0000
   151 H24B     8.7833  -1.6953   9.8703   H         1 RES1   0.0000
   152 C29B     9.9697  -7.4042   2.5539   C.3       1 RES1   0.0000
   153 H25B    10.6240  -7.5526   3.2811   H         1 RES1   0.0000
   154 H26B     9.4536  -8.2417   2.4412   H         1 RES1   0.0000
   155 C30B    12.4568  -7.3267   7.3407   C.ar      1 RES1   0.0000
   156 C31B     6.5765  -6.7327   2.8174   C.ar      1 RES1   0.0000
   157 C32B     6.6258  -7.5503   3.9450   C.ar      1 RES1   0.0000
   158 H27B     7.4604  -7.7405   4.3582   H         1 RES1   0.0000
   159 C33B    10.7150  -5.8839   0.6495   C.ar      1 RES1   0.0000
   160 H28B    10.2310  -5.1682   1.0438   H         1 RES1   0.0000
   161 C34B    10.7282  -7.1266   1.2684   C.ar      1 RES1   0.0000
   162 C35B    11.4051  -5.6768  -0.5458   C.ar      1 RES1   0.0000
   163 H29B    11.3767  -4.8236  -0.9644   H         1 RES1   0.0000
   164 C36B    11.4612  -8.1587   0.6775   C.ar      1 RES1   0.0000
   165 H30B    11.4844  -9.0130   1.0907   H         1 RES1   0.0000
   166 C37B    12.1581  -7.9488  -0.5061   C.ar      1 RES1   0.0000
   167 H31B    12.6555  -8.6606  -0.8949   H         1 RES1   0.0000
   168 C38B     5.3552  -6.4536   2.2427   C.ar      1 RES1   0.0000
   169 H32B     5.3108  -5.8769   1.4876   H         1 RES1   0.0000
   170 C39B     5.4501  -8.0929   4.4683   C.ar      1 RES1   0.0000
   171 H33B     5.4869  -8.6450   5.2405   H         1 RES1   0.0000
   172 C40B     4.2421  -7.8306   3.8702   C.ar      1 RES1   0.0000
   173 H34B     3.4468  -8.2143   4.2193   H         1 RES1   0.0000
   174 C41B     4.1820  -7.0088   2.7596   C.ar      1 RES1   0.0000
   175 H35B     3.3454  -6.8205   2.3501   H         1 RES1   0.0000
   176 C42B    12.1284  -6.7026  -1.1250   C.ar      1 RES1   0.0000
   177 H36B    12.6001  -6.5581  -1.9369   H         1 RES1   0.0000
@<TRIPOS>BOND
     1     1    54    2
     2     2     4    1
     3     3     8    1
     4     4    10   ar
     5     5    16   ar
     6     6     8   ar
     7     7     2    1
     8     8     9   ar
     9     9    16   ar
    10    10    11    1
    11    12    16    1
    12    13    14    1
    13    15     3    1
    14    17     3    1
    15    18    17   ar
    16    19    18    1
    17    20    21    1
    18    22    20   ar
    19    23    22    1
    20    24    25    1
    21    26     7   ar
    22    27    26    1
    23    28    10   ar
    24    29    28    1
    25    30    24   ar
    26    31    30    1
    27    32    33    1
    28    34    32   ar
    29    35    34    1
    30    36    20   ar
    31    37    12    1
    32    38    37    1
    33    39    37    1
    34    40    26   ar
    35    41    40    1
    36    42    22   ar
    37    43    42    1
    38    44    13   ar
    39    45    44    1
    40    46    47    1
    41    48    34   ar
    42    49    48    1
    43    50    46   ar
    44    51    50    1
    45    52     2    1
    46    53    55    1
    47    54    52    2
    48    55    56    1
    49    57    55    1
    50    58     5   ar
    51    59    12    1
    52    60    59    1
    53    61    59    1
    54    62    18   ar
    55    63    62    1
    56    64    53    1
    57    65    64    1
    58    66    64    1
    59    67    32   ar
    60    68    55    1
    61    69    68   ar
    62    70    69    1
    63    71    72    1
    64    73    64    1
    65    74    71   ar
    66    75    74    1
    67    76    73   ar
    68    77    76    1
    69    78    76   ar
    70    79    78    1
    71    80    68   ar
    72    81    80    1
    73    82    69   ar
    74    83    82    1
    75    84    82   ar
    76    85    84    1
    77    86    80   ar
    78    87    86    1
    79    88    74   ar
    80    89    88    1
    81    90   142    2
    82    91    96    1
    83    92     2    1
    84    93   104   ar
    85    94    96   ar
    86    95     2    1
    87    96    97   ar
    88    97   104   ar
    89    98    92   ar
    90    99    98    1
    91   100   104    1
    92   101   102    1
    93   103    91    1
    94   105    91    1
    95   106   105   ar
    96   107   106    1
    97   108   109    1
    98   110   108   ar
    99   111   110    1
   100   112   113    1
   101   114    95   ar
   102   115   114    1
   103   116    98   ar
   104   117   116    1
   105   118   112   ar
   106   119   118    1
   107   120   121    1
   108   122   120   ar
   109   123   122    1
   110   124   108   ar
   111   125   100    1
   112   126   125    1
   113   127   125    1
   114   128   114   ar
   115   129   128    1
   116   130   110   ar
   117   131   130    1
   118   132   101   ar
   119   133   132    1
   120   134   135    1
   121   136   122   ar
   122   137   136    1
   123   138   134   ar
   124   139   138    1
   125   140     2    1
   126   141   143    1
   127   142   140    2
   128   143   144    1
   129   145   143    1
   130   146    93   ar
   131   147   100    1
   132   148   147    1
   133   149   147    1
   134   150   106   ar
   135   151   150    1
   136   152   141    1
   137   153   152    1
   138   154   152    1
   139   155   120   ar
   140   156   143    1
   141   157   156   ar
   142   158   157    1
   143   159   160    1
   144   161   152    1
   145   162   159   ar
   146   163   162    1
   147   164   161   ar
   148   165   164    1
   149   166   164   ar
   150   167   166    1
   151   168   156   ar
   152   169   168    1
   153   170   157   ar
   154   171   170    1
   155   172   170   ar
   156   173   172    1
   157   174   168   ar
   158   175   174    1
   159   176   162   ar
   160   177   176    1
   161     4    15   ar
   162     6    58   ar
   163     7    17   ar
   164    13    15   ar
   165    24    36   ar
   166    28    44   ar
   167    30    42   ar
   168    36    59    1
   169    37    67    1
   170    40    62   ar
   171    46    67   ar
   172    48    50   ar
   173    53    58    1
   174    71    73   ar
   175    78    88   ar
   176    84    86   ar
   177    92   103   ar
   178    94   146   ar
   179    95   105   ar
   180   101   103   ar
   181   112   124   ar
   182   116   132   ar
   183   118   130   ar
   184   124   147    1
   185   125   155    1
   186   128   150   ar
   187   134   155   ar
   188   136   138   ar
   189   141   146    1
   190   159   161   ar
   191   166   176   ar
   192   172   174   ar
@<TRIPOS>SUBSTRUCTURE
     1 RES1        1 GROUP             0 ****  ****    0  
@<TRIPOS>CRYSIN
   10.2970   39.1530   10.3590   90.0000  119.4400   90.0000   231     1
