@<TRIPOS>MOLECULE
WUGROF
    93    92     7     0     0
SMALL
USER_CHARGES
****
Generated from the CSD

@<TRIPOS>ATOM
     1 Fe1      7.6538   0.0000   0.0000   Fe        1 RES1   0.0000
     2 C1       5.9904  -0.8363   0.4410   C.1       1 RES1   0.0000
     3 N1       5.0253  -1.4113   0.7566   N.1       1 RES1  -1.0000
     4 C2       6.8774   1.1324  -1.3339   C.1       1 RES1   0.0000
     5 N2       6.4901   1.8062  -2.2122   N.1       1 RES1  -1.0000
     6 C3       7.3595   1.2740   1.3990   C.1       1 RES1   0.0000
     7 N3       7.2128   1.9894   2.3092   N.1       1 RES1   0.0000
     8 C1A      9.3172   0.8363  -0.4410   C.1       1 RES1   0.0000
     9 N1A     10.2823   1.4113  -0.7566   N.1       1 RES1  -1.0000
    10 C2A      8.4302  -1.1324   1.3339   C.1       1 RES1   0.0000
    11 N2A      8.8175  -1.8062   2.2122   N.1       1 RES1  -1.0000
    12 C3A      7.9481  -1.2740  -1.3990   C.1       1 RES1   0.0000
    13 N3A      8.0948  -1.9894  -2.3092   N.1       1 RES1   0.0000
    14 C4       4.2930   4.4740   1.0011   C.ar      2 RES2   0.0000
    15 C5       4.6942   4.1527  -0.2936   C.ar      2 RES2   0.0000
    16 C6       3.8641   5.7722   1.2934   C.ar      2 RES2   0.0000
    17 C7       4.2468   3.4130   2.0341   C.2       2 RES2   0.0000
    18 N4       4.4868   3.7278   3.2943   N.pl3     2 RES2   1.0000
    19 C8       4.3998   2.7354   4.3740   C.3       2 RES2   0.0000
    20 C9       3.4200   1.6436   3.9834   C.3       2 RES2   0.0000
    21 C10      3.7866   1.0976   2.6224   C.3       2 RES2   0.0000
    22 N5       3.9181   2.2041   1.6729   N.pl3     2 RES2   0.0000
    23 H1       4.9995   3.2762  -0.4950   H         2 RES2   0.0000
    24 H2       3.6036   5.9954   2.1790   H         2 RES2   0.0000
    25 H3       4.1007   3.1582   5.1699   H         2 RES2   0.0000
    26 H4       5.2567   2.3522   4.5214   H         2 RES2   0.0000
    27 H5       2.5403   2.0033   3.9527   H         2 RES2   0.0000
    28 H6       3.4532   0.9437   4.6246   H         2 RES2   0.0000
    29 H7       3.1066   0.5032   2.3239   H         2 RES2   0.0000
    30 H8       4.6118   0.6297   2.6802   H         2 RES2   0.0000
    31 H17      4.7222   4.6232   3.5093   H         2 RES2   0.0000
    32 H18      3.7569   2.0332   0.7529   H         2 RES2   0.0000
    33 C6A      4.6467   5.1217  -1.2934   C.ar      2 RES2   0.0000
    34 C4A      4.2178   6.4200  -1.0011   C.ar      2 RES2   0.0000
    35 C5A      3.8166   6.7413   0.2936   C.ar      2 RES2   0.0000
    36 H1A      3.5113   7.6178   0.4950   H         2 RES2   0.0000
    37 C7A      4.2640   7.4809  -2.0341   C.2       2 RES2   0.0000
    38 N4A      4.0239   7.1662  -3.2943   N.pl3     2 RES2   0.0000
    39 C8A      4.1110   8.1585  -4.3740   C.3       2 RES2   0.0000
    40 C9A      5.0908   9.2503  -3.9834   C.3       2 RES2   0.0000
    41 C10A     4.7242   9.7963  -2.6224   C.3       2 RES2   0.0000
    42 N5A      4.5927   8.6899  -1.6729   N.pl3     2 RES2   1.0000
    43 H18A     4.7539   8.8608  -0.7529   H         2 RES2   0.0000
    44 H7A      5.4041  10.3908  -2.3239   H         2 RES2   0.0000
    45 H8A      3.8990  10.2642  -2.6802   H         2 RES2   0.0000
    46 H5A      5.9704   8.8906  -3.9527   H         2 RES2   0.0000
    47 H6A      5.0576   9.9502  -4.6246   H         2 RES2   0.0000
    48 H3A      4.4101   7.7357  -5.1699   H         2 RES2   0.0000
    49 H4A      3.2540   8.5417  -4.5214   H         2 RES2   0.0000
    50 H17A     3.7885   6.2708  -3.5093   H         2 RES2   0.0000
    51 H2A      4.9072   4.8986  -2.1790   H         2 RES2   0.0000
    52 C11      0.4909   5.4662   1.3843   C.ar      3 RES3   0.0000
    53 C12      0.9553   4.3555   0.6866   C.ar      3 RES3   0.0000
    54 C13     -0.0344   6.5606   0.6964   C.ar      3 RES3   0.0000
    55 C14      0.5850   5.5064   2.8533   C.2       3 RES3   0.0000
    56 N6       0.8852   6.6538   3.4343   N.pl3     3 RES3   1.0000
    57 C15      0.9751   6.7759   4.8886   C.3       3 RES3   0.0000
    58 C16      1.4101   5.4494   5.4856   C.3       3 RES3   0.0000
    59 C17      0.4976   4.3471   4.9992   C.3       3 RES3   0.0000
    60 N7       0.3775   4.4019   3.5338   N.pl3     3 RES3   0.0000
    61 H9       1.3147   3.6127   1.1583   H         3 RES3   0.0000
    62 H10     -0.3477   7.3187   1.1767   H         3 RES3   0.0000
    63 H11      0.1257   7.0169   5.2387   H         3 RES3   0.0000
    64 H12      1.6110   7.4462   5.1110   H         3 RES3   0.0000
    65 H13      1.3658   5.4990   6.4326   H         3 RES3   0.0000
    66 H14      2.3016   5.2605   5.2191   H         3 RES3   0.0000
    67 H15     -0.3618   4.4562   5.3898   H         3 RES3   0.0000
    68 H16      0.8567   3.5055   5.2535   H         3 RES3   0.0000
    69 H19      1.0469   7.4187   2.8951   H         3 RES3   0.0000
    70 H20      0.1419   3.6112   3.0634   H         3 RES3   0.0000
    71 C13A     0.8914   4.3334  -0.6964   C.ar      3 RES3   0.0000
    72 C11A     0.3661   5.4277  -1.3843   C.ar      3 RES3   0.0000
    73 C12A    -0.0983   6.5385  -0.6866   C.ar      3 RES3   0.0000
    74 H9A     -0.4577   7.2812  -1.1583   H         3 RES3   0.0000
    75 C14A     0.2720   5.3875  -2.8533   C.2       3 RES3   0.0000
    76 N6A     -0.0282   4.2402  -3.4343   N.pl3     3 RES3   0.0000
    77 C15A    -0.1181   4.1180  -4.8886   C.3       3 RES3   0.0000
    78 C16A    -0.5531   5.4445  -5.4856   C.3       3 RES3   0.0000
    79 C17A     0.3594   6.5469  -4.9992   C.3       3 RES3   0.0000
    80 N7A      0.4795   6.4921  -3.5338   N.pl3     3 RES3   1.0000
    81 H20A     0.7151   7.2827  -3.0634   H         3 RES3   0.0000
    82 H15A     1.2188   6.4377  -5.3898   H         3 RES3   0.0000
    83 H16A     0.0003   7.3884  -5.2535   H         3 RES3   0.0000
    84 H13A    -0.5088   5.3949  -6.4326   H         3 RES3   0.0000
    85 H14A    -1.4447   5.6335  -5.2191   H         3 RES3   0.0000
    86 H11A     0.7313   3.8770  -5.2387   H         3 RES3   0.0000
    87 H12A    -0.7540   3.4477  -5.1110   H         3 RES3   0.0000
    88 H19A    -0.1899   3.4752  -2.8951   H         3 RES3   0.0000
    89 H10A     1.2047   3.5752  -1.1767   H         3 RES3   0.0000
    90 O1      -1.9582   5.6149   6.9829   O.3       4 RES4   0.0000
    91 O2       7.6784   0.0095   4.3764   O.3       5 RES5   0.0000
    92 O3      -2.5402   6.1965   4.3617   O.3       6 RES6   0.0000
    93 O4      -2.9750   8.6648   3.1690   O.3       7 RES7   0.0000
@<TRIPOS>BOND
     1     1     2    1
     2     2     3    3
     3     4     1    1
     4     5     4    3
     5     6     1    1
     6     7     6    3
     7     8     1    1
     8     9     8    3
     9    10     1    1
    10    11    10    3
    11    12     1    1
    12    13    12    3
    13    14    15   ar
    14    15    23    1
    15    16    14   ar
    16    17    14    1
    17    18    17   un
    18    19    18    1
    19    20    19    1
    20    21    20    1
    21    22    17   un
    22    24    16    1
    23    25    19    1
    24    26    19    1
    25    27    20    1
    26    28    20    1
    27    29    21    1
    28    30    21    1
    29    31    18    1
    30    32    22    1
    31    33    15   ar
    32    34    33   ar
    33    35    16   ar
    34    36    35    1
    35    37    34    1
    36    38    37   un
    37    39    38    1
    38    40    39    1
    39    41    40    1
    40    42    37   un
    41    43    42    1
    42    44    41    1
    43    45    41    1
    44    46    40    1
    45    47    40    1
    46    48    39    1
    47    49    39    1
    48    50    38    1
    49    51    33    1
    50    21    22    1
    51    34    35   ar
    52    41    42    1
    53    52    53   ar
    54    53    61    1
    55    54    52   ar
    56    55    52    1
    57    56    55   un
    58    57    56    1
    59    58    57    1
    60    59    58    1
    61    60    55   un
    62    62    54    1
    63    63    57    1
    64    64    57    1
    65    65    58    1
    66    66    58    1
    67    67    59    1
    68    68    59    1
    69    69    56    1
    70    70    60    1
    71    71    53   ar
    72    72    71   ar
    73    73    54   ar
    74    74    73    1
    75    75    72    1
    76    76    75   un
    77    77    76    1
    78    78    77    1
    79    79    78    1
    80    80    75   un
    81    81    80    1
    82    82    79    1
    83    83    79    1
    84    84    78    1
    85    85    78    1
    86    86    77    1
    87    87    77    1
    88    88    76    1
    89    89    71    1
    90    59    60    1
    91    72    73   ar
    92    79    80    1
@<TRIPOS>SUBSTRUCTURE
     1 RES1        1 GROUP             0 ****  ****    0  
     2 RES2       14 GROUP             0 ****  ****    0  
     3 RES3       52 GROUP             0 ****  ****    0  
     4 RES4       90 GROUP             0 ****  ****    0  
     5 RES5       91 GROUP             0 ****  ****    0  
     6 RES6       92 GROUP             0 ****  ****    0  
     7 RES7       93 GROUP             0 ****  ****    0  
@<TRIPOS>CRYSIN
    7.6538   10.9276   13.4639   70.2600   75.0850   85.5020     2     1
