@<TRIPOS>MOLECULE
WUJZOR
   119   129     3     0     0
SMALL
NO_CHARGES
****
Generated from the CSD

@<TRIPOS>ATOM
     1 Fe1      7.1852   9.9114  22.7319   Fe        1 RES1   0.0000
     2 F1       4.3641   6.7853  23.7336   F         1 RES1   0.0000
     3 F2      10.0539  13.0160  21.7391   F         1 RES1   0.0000
     4 B1       5.2318   7.7819  23.4101   B         1 RES1   0.0000
     5 B2       9.1462  12.0236  22.0201   B         1 RES1   0.0000
     6 O1       4.7785   8.3710  22.1412   O.3       1 RES1   0.0000
     7 O2       8.7814  11.3640  20.7743   O.3       1 RES1   0.0000
     8 O3       6.5746   7.1266  23.2505   O.3       1 RES1   0.0000
     9 O4       9.7849  11.1119  22.9706   O.3       1 RES1   0.0000
    10 O5       5.2378   8.7657  24.5004   O.3       1 RES1   0.0000
    11 O6       7.9695  12.6876  22.6530   O.3       1 RES1   0.0000
    12 O7       5.0354   8.9601  19.3656   O.3       1 RES1   0.0000
    13 O8       6.9296  10.7288  18.6928   O.3       1 RES1   0.0000
    14 N1       5.6862   9.2741  21.6245   N.2       1 RES1   0.0000
    15 N2       7.7065  10.4767  20.9851   N.2       1 RES1   0.0000
    16 N3       7.5513   8.0988  23.1147   N.2       1 RES1   0.0000
    17 N4       9.0250   9.9813  23.1879   N.2       1 RES1   0.0000
    18 N5       5.9686   9.8877  24.1904   N.2       1 RES1   0.0000
    19 N6       7.0836  11.7399  23.1784   N.2       1 RES1   0.0000
    20 C1       5.7541   9.4613  20.3917   C.2       1 RES1   0.0000
    21 C2       6.9151  10.2506  19.9555   C.2       1 RES1   0.0000
    22 C3       8.7523   7.7431  23.5781   C.2       1 RES1   0.0000
    23 C4       9.6637   8.8766  23.5130   C.2       1 RES1   0.0000
    24 C5       5.6050  10.9981  24.7432   C.2       1 RES1   0.0000
    25 C6       6.3988  12.1533  24.2338   C.2       1 RES1   0.0000
    26 C7       3.7460   8.4603  19.5219   C.3       1 RES1   0.0000
    27 H1       3.7654   7.7027  20.1587   H         1 RES1   0.0000
    28 H2       3.4236   8.1175  18.6495   H         1 RES1   0.0000
    29 C8       2.7474   9.5434  20.0449   C.3       1 RES1   0.0000
    30 H3       2.8771   9.6673  21.0176   H         1 RES1   0.0000
    31 H4       2.9340  10.4062  19.5978   H         1 RES1   0.0000
    32 C9       1.2834   9.1301  19.7712   C.3       1 RES1   0.0000
    33 H5       1.1343   9.0624  18.7931   H         1 RES1   0.0000
    34 H6       1.1089   8.2414  20.1722   H         1 RES1   0.0000
    35 C10      0.3163  10.1700  20.3727   C.3       1 RES1   0.0000
    36 H7      -0.5999   9.9654  20.0909   H         1 RES1   0.0000
    37 H8       0.5623  11.0658  20.0584   H         1 RES1   0.0000
    38 H9       0.3721  10.1397  21.3509   H         1 RES1   0.0000
    39 C11      8.1088  11.2142  18.1347   C.3       1 RES1   0.0000
    40 H10      8.4748  11.9070  18.7416   H         1 RES1   0.0000
    41 H11      7.8846  11.6592  17.2812   H         1 RES1   0.0000
    42 C12      9.1535  10.2420  17.8800   C.3       1 RES1   0.0000
    43 H12      8.8154   9.5622  17.2433   H         1 RES1   0.0000
    44 H13      9.3825   9.7796  18.7254   H         1 RES1   0.0000
    45 C13     10.4272  10.8930  17.2947   C.3       1 RES1   0.0000
    46 H14     10.7496  11.6117  17.8962   H         1 RES1   0.0000
    47 H15     11.1446  10.2175  17.2026   H         1 RES1   0.0000
    48 C14     10.0769  11.4691  15.9346   C.3       1 RES1   0.0000
    49 H16     10.8913  11.8004  15.5010   H         1 RES1   0.0000
    50 H17      9.4419  12.2080  16.0457   H         1 RES1   0.0000
    51 H18      9.6722  10.7706  15.3791   H         1 RES1   0.0000
    52 C15      9.0723   6.4252  24.1601   C.ar      1 RES1   0.0000
    53 C16      8.7439   5.2614  23.4756   C.ar      1 RES1   0.0000
    54 H19      8.3136   5.3133  22.6297   H         1 RES1   0.0000
    55 C17      9.0444   4.0213  24.0287   C.ar      1 RES1   0.0000
    56 H20      8.8190   3.2263  23.5618   H         1 RES1   0.0000
    57 C18      9.6734   3.9464  25.2658   C.ar      1 RES1   0.0000
    58 H21      9.8782   3.0995  25.6427   H         1 RES1   0.0000
    59 C19     10.0018   5.1116  25.9502   C.ar      1 RES1   0.0000
    60 H22     10.4320   5.0598  26.7970   H         1 RES1   0.0000
    61 C20      9.7013   6.3503  25.3972   C.ar      1 RES1   0.0000
    62 H23      9.9267   7.1468  25.8649   H         1 RES1   0.0000
    63 C21      6.4655  13.4553  24.8542   C.ar      1 RES1   0.0000
    64 C22      6.6485  13.5345  26.2299   C.ar      1 RES1   0.0000
    65 H24      6.6921  12.7395  26.7482   H         1 RES1   0.0000
    66 C23      6.7697  14.7746  26.8452   C.ar      1 RES1   0.0000
    67 H25      6.8957  14.8279  27.7859   H         1 RES1   0.0000
    68 C24      6.7054  15.9369  26.0844   C.ar      1 RES1   0.0000
    69 H26      6.7879  16.7853  26.5070   H         1 RES1   0.0000
    70 C25      6.5224  15.8591  24.7096   C.ar      1 RES1   0.0000
    71 H27      6.4788  16.6527  24.1904   H         1 RES1   0.0000
    72 C26      6.4013  14.6176  24.0942   C.ar      1 RES1   0.0000
    73 H28      6.2764  14.5643  23.1554   H         1 RES1   0.0000
    74 C27     11.1289   8.7815  23.6813   C.ar      1 RES1   0.0000
    75 C28     11.8051   9.7595  24.4009   C.ar      1 RES1   0.0000
    76 H29     11.3240  10.4825  24.7865   H         1 RES1   0.0000
    77 C29     13.1843   9.6803  24.5557   C.ar      1 RES1   0.0000
    78 H30     13.6460  10.3486  25.0466   H         1 RES1   0.0000
    79 C30     13.8872   8.6231  23.9907   C.ar      1 RES1   0.0000
    80 H31     14.8300   8.5683  24.0956   H         1 RES1   0.0000
    81 C31     13.2109   7.6437  23.2714   C.ar      1 RES1   0.0000
    82 H32     13.6920   6.9206  22.8844   H         1 RES1   0.0000
    83 C32     11.8318   7.7229  23.1166   C.ar      1 RES1   0.0000
    84 H33     11.3700   7.0546  22.6243   H         1 RES1   0.0000
    85 C33      4.5034  11.1825  25.7259   C.ar      1 RES1   0.0000
    86 C34      4.3010  10.2621  26.7482   C.ar      1 RES1   0.0000
    87 H34      4.8585   9.4959  26.8132   H         1 RES1   0.0000
    88 C35      3.2842  10.4638  27.6735   C.ar      1 RES1   0.0000
    89 H35      3.1449   9.8358  28.3712   H         1 RES1   0.0000
    90 C36      2.4686  11.5858  27.5767   C.ar      1 RES1   0.0000
    91 H36      1.7730  11.7240  28.2086   H         1 RES1   0.0000
    92 C37      2.6710  12.5061  26.5545   C.ar      1 RES1   0.0000
    93 H37      2.1136  13.2724  26.4881   H         1 RES1   0.0000
    94 C38      3.6878  12.3045  25.6289   C.ar      1 RES1   0.0000
    95 H38      3.8272  12.9325  24.9301   H         1 RES1   0.0000
    96 C39     11.6524   1.0615  27.2868   C.ar      2 RES2   0.0000
    97 H39     11.7809   1.3481  28.1842   H         2 RES2   0.0000
    98 C40     12.6995   1.1335  26.3770   C.ar      2 RES2   0.0000
    99 H40     13.5454   1.4691  26.6506   H         2 RES2   0.0000
   100 C41     12.5104   0.7144  25.0656   C.ar      2 RES2   0.0000
   101 H41     13.2267   0.7634  24.4424   H         2 RES2   0.0000
   102 C42     11.2743   0.2232  24.6632   C.ar      2 RES2   0.0000
   103 H42     11.1446  -0.0634  23.7677   H         2 RES2   0.0000
   104 C43     10.2260   0.1512  25.5750   C.ar      2 RES2   0.0000
   105 H43      9.3801  -0.1844  25.2986   H         2 RES2   0.0000
   106 C44     10.4151   0.5704  26.8864   C.ar      2 RES2   0.0000
   107 H44      9.6988   0.5214  27.5068   H         2 RES2   0.0000
   108 C45      9.3801   7.2894  20.0151   C.ar      3 RES3   0.0000
   109 H45      9.5716   8.0556  20.5407   H         3 RES3   0.0000
   110 C46      8.1052   6.7363  20.0308   C.ar      3 RES3   0.0000
   111 H46      7.4253   7.1237  20.5705   H         3 RES3   0.0000
   112 C47      7.8240   5.6143  19.2591   C.ar      3 RES3   0.0000
   113 H47      6.9527   5.2369  19.2700   H         3 RES3   0.0000
   114 C48      8.8178   5.0483  18.4680   C.ar      3 RES3   0.0000
   115 H48      8.6263   4.2820  17.9423   H         3 RES3   0.0000
   116 C49     10.0927   5.6013  18.4517   C.ar      3 RES3   0.0000
   117 H49     10.7726   5.2139  17.9125   H         3 RES3   0.0000
   118 C50     10.3739   6.7233  19.2239   C.ar      3 RES3   0.0000
   119 H50     11.2452   7.1021  19.2131   H         3 RES3   0.0000
@<TRIPOS>BOND
     1     1    14    1
     2     2     4    1
     3     3     5    1
     4     4     6    1
     5     5     7    1
     6     6    14    1
     7     7    15    1
     8     8     4    1
     9     9     5    1
    10    10     4    1
    11    11     5    1
    12    12    20    1
    13    13    21    1
    14    14    20    2
    15    15     1    1
    16    16     1    1
    17    17     1    1
    18    18     1    1
    19    19     1    1
    20    20    21    1
    21    21    15    2
    22    22    16    2
    23    23    17    2
    24    24    18    2
    25    25    19    2
    26    26    12    1
    27    27    26    1
    28    28    26    1
    29    29    26    1
    30    30    29    1
    31    31    29    1
    32    32    29    1
    33    33    32    1
    34    34    32    1
    35    35    32    1
    36    36    35    1
    37    37    35    1
    38    38    35    1
    39    39    13    1
    40    40    39    1
    41    41    39    1
    42    42    39    1
    43    43    42    1
    44    44    42    1
    45    45    42    1
    46    46    45    1
    47    47    45    1
    48    48    45    1
    49    49    48    1
    50    50    48    1
    51    51    48    1
    52    52    22    1
    53    53    52   ar
    54    54    53    1
    55    55    53   ar
    56    56    55    1
    57    57    55   ar
    58    58    57    1
    59    59    57   ar
    60    60    59    1
    61    61    52   ar
    62    62    61    1
    63    63    25    1
    64    64    63   ar
    65    65    64    1
    66    66    64   ar
    67    67    66    1
    68    68    66   ar
    69    69    68    1
    70    70    68   ar
    71    71    70    1
    72    72    63   ar
    73    73    72    1
    74    74    23    1
    75    75    74   ar
    76    76    75    1
    77    77    75   ar
    78    78    77    1
    79    79    77   ar
    80    80    79    1
    81    81    79   ar
    82    82    81    1
    83    83    74   ar
    84    84    83    1
    85    85    24    1
    86    86    85   ar
    87    87    86    1
    88    88    86   ar
    89    89    88    1
    90    90    88   ar
    91    91    90    1
    92    92    90   ar
    93    93    92    1
    94    94    85   ar
    95    95    94    1
    96     8    16    1
    97     9    17    1
    98    10    18    1
    99    11    19    1
   100    22    23    1
   101    24    25    1
   102    59    61   ar
   103    70    72   ar
   104    81    83   ar
   105    92    94   ar
   106    96    97    1
   107    98    96   ar
   108    99    98    1
   109   100    98   ar
   110   101   100    1
   111   102   100   ar
   112   103   102    1
   113   104   102   ar
   114   105   104    1
   115   106    96   ar
   116   107   106    1
   117   104   106   ar
   118   108   109    1
   119   110   108   ar
   120   111   110    1
   121   112   110   ar
   122   113   112    1
   123   114   112   ar
   124   115   114    1
   125   116   114   ar
   126   117   116    1
   127   118   108   ar
   128   119   118    1
   129   116   118   ar
@<TRIPOS>SUBSTRUCTURE
     1 RES1        1 GROUP             0 ****  ****    0  
     2 RES2       96 GROUP             0 ****  ****    0  
     3 RES3      108 GROUP             0 ****  ****    0  
@<TRIPOS>CRYSIN
   12.1190   14.4030   27.0950   90.0000   90.0000   90.0000    19     1
