@<TRIPOS>MOLECULE
XADSIG
   148   149     2     0     0
SMALL
NO_CHARGES
****
Generated from the CSD

@<TRIPOS>ATOM
     1 Fe1      1.9872   4.1030  11.7544   Fe        1 RES1   0.0000
     2 S1       1.8264   5.8775  10.1185   S.2       1 RES1   0.0000
     3 S2       3.6030   5.5131  12.8683   S.2       1 RES1   0.0000
     4 S3       0.3861   5.2890  13.1149   S.2       1 RES1   0.0000
     5 O1       3.2576   3.2282  10.5031   O.2       1 RES1   0.0000
     6 O2       2.4229   2.7382  13.1197   O.2       1 RES1   0.0000
     7 O3       0.4407   3.0871  11.0701   O.2       1 RES1   0.0000
     8 N1       2.6419   6.1443   7.5979   N.pl3     1 RES1   0.0000
     9 N2       3.9141   4.6796   8.7784   N.2       1 RES1   0.0000
    10 N3       5.3802   3.2141   9.7461   N.pl3     1 RES1   0.0000
    11 N4       5.1984   5.2017  14.9611   N.pl3     1 RES1   0.0000
    12 N5       3.4585   3.7334  14.9754   N.2       1 RES1   0.0000
    13 N6       1.8388   2.1265  15.2018   N.pl3     1 RES1   0.0000
    14 N7      -2.2108   5.0248  13.5677   N.pl3     1 RES1   0.0000
    15 N8      -1.5874   4.1472  11.5647   N.2       1 RES1   0.0000
    16 N9      -1.2508   3.0297   9.5927   N.pl3     1 RES1   0.0000
    17 C1       2.8597   5.4922   8.7730   C.2       1 RES1   0.0000
    18 C2       1.5507   7.1273   7.4478   C.3       1 RES1   0.0000
    19 H1       1.1182   7.2253   8.3442   H         1 RES1   0.0000
    20 C3       2.0719   8.5006   7.0514   C.3       1 RES1   0.0000
    21 H2       2.7848   8.7690   7.6678   H         1 RES1   0.0000
    22 H3       1.3410   9.1527   7.0935   H         1 RES1   0.0000
    23 H4       2.4258   8.4645   6.1388   H         1 RES1   0.0000
    24 C4       0.4736   6.6500   6.4829   C.3       1 RES1   0.0000
    25 H5       0.8571   6.5539   5.5875   H         1 RES1   0.0000
    26 H6      -0.2558   7.3045   6.4579   H         1 RES1   0.0000
    27 H7       0.1248   5.7851   6.7846   H         1 RES1   0.0000
    28 C5       3.4657   5.9049   6.3852   C.3       1 RES1   0.0000
    29 H8       3.0358   6.4352   5.6539   H         1 RES1   0.0000
    30 C6       3.4429   4.4485   5.9127   C.3       1 RES1   0.0000
    31 H9       3.9875   3.9004   6.5166   H         1 RES1   0.0000
    32 H10      3.8072   4.3936   5.0030   H         1 RES1   0.0000
    33 H11      2.5196   4.1181   5.9168   H         1 RES1   0.0000
    34 C7       4.8745   6.4455   6.5128   C.3       1 RES1   0.0000
    35 H12      4.8412   7.4171   6.6391   H         1 RES1   0.0000
    36 H13      5.3780   6.2388   5.6972   H         1 RES1   0.0000
    37 H14      5.3156   6.0302   7.2824   H         1 RES1   0.0000
    38 C8       4.1326   3.7335   9.7241   C.2       1 RES1   0.0000
    39 C9       6.4639   3.7854   8.9456   C.3       1 RES1   0.0000
    40 H15      6.0958   4.5976   8.4948   H         1 RES1   0.0000
    41 C10      6.9257   2.8378   7.8444   C.3       1 RES1   0.0000
    42 H16      7.2984   2.0263   8.2472   H         1 RES1   0.0000
    43 H17      7.6133   3.2777   7.3028   H         1 RES1   0.0000
    44 H18      6.1637   2.6018   7.2773   H         1 RES1   0.0000
    45 C11      7.6203   4.2505   9.8226   C.3       1 RES1   0.0000
    46 H19      7.2903   4.8915  10.4858   H         1 RES1   0.0000
    47 H20      8.3026   4.6799   9.2631   H         1 RES1   0.0000
    48 H21      8.0129   3.4787  10.2816   H         1 RES1   0.0000
    49 C12      5.7032   2.0123  10.5596   C.3       1 RES1   0.0000
    50 H22      6.6495   1.7782  10.3352   H         1 RES1   0.0000
    51 C13      4.8754   0.7980  10.1797   C.3       1 RES1   0.0000
    52 H23      3.9494   0.9302  10.4705   H         1 RES1   0.0000
    53 H24      5.2433   0.0015  10.6160   H         1 RES1   0.0000
    54 H25      4.8994   0.6775   9.2070   H         1 RES1   0.0000
    55 C14      5.6882   2.2803  12.0564   C.3       1 RES1   0.0000
    56 H26      6.2271   3.0752  12.2521   H         1 RES1   0.0000
    57 H27      6.0618   1.5072  12.5304   H         1 RES1   0.0000
    58 H28      4.7662   2.4313  12.3517   H         1 RES1   0.0000
    59 C15      4.0895   4.7147  14.3450   C.2       1 RES1   0.0000
    60 C16      5.9120   6.4111  14.4830   C.3       1 RES1   0.0000
    61 H29      5.3943   6.7579  13.7020   H         1 RES1   0.0000
    62 C17      7.3017   6.0806  13.9720   C.3       1 RES1   0.0000
    63 H30      7.8494   5.7394  14.7102   H         1 RES1   0.0000
    64 H31      7.7154   6.8889  13.6050   H         1 RES1   0.0000
    65 H32      7.2382   5.3984  13.2706   H         1 RES1   0.0000
    66 C18      5.9067   7.5123  15.5329   C.3       1 RES1   0.0000
    67 H33      4.9897   7.6622  15.8435   H         1 RES1   0.0000
    68 H34      6.2579   8.3397  15.1416   H         1 RES1   0.0000
    69 H35      6.4696   7.2451  16.2902   H         1 RES1   0.0000
    70 C19      5.8111   4.5232  16.1325   C.3       1 RES1   0.0000
    71 H36      6.6624   5.0178  16.3081   H         1 RES1   0.0000
    72 C20      6.2317   3.0979  15.8203   C.3       1 RES1   0.0000
    73 H37      5.4370   2.5272  15.7644   H         1 RES1   0.0000
    74 H38      6.8225   2.7692  16.5302   H         1 RES1   0.0000
    75 H39      6.7077   3.0783  14.9629   H         1 RES1   0.0000
    76 C21      4.9972   4.6550  17.4116   C.3       1 RES1   0.0000
    77 H40      4.7704   5.5963  17.5588   H         1 RES1   0.0000
    78 H41      5.5228   4.3236  18.1689   H         1 RES1   0.0000
    79 H42      4.1736   4.1287  17.3317   H         1 RES1   0.0000
    80 C22      2.5661   2.9099  14.3817   C.2       1 RES1   0.0000
    81 C23      1.8885   2.2844  16.6718   C.3       1 RES1   0.0000
    82 H43      2.4301   3.1027  16.8595   H         1 RES1   0.0000
    83 C24      2.6102   1.1075  17.3322   C.3       1 RES1   0.0000
    84 H44      2.1001   0.2847  17.1811   H         1 RES1   0.0000
    85 H45      2.6874   1.2712  18.2965   H         1 RES1   0.0000
    86 H46      3.5052   1.0139  16.9437   H         1 RES1   0.0000
    87 C25      0.5066   2.5174  17.2686   C.3       1 RES1   0.0000
    88 H47      0.0900   3.2914  16.8339   H         1 RES1   0.0000
    89 H48      0.5905   2.6870  18.2302   H         1 RES1   0.0000
    90 H49     -0.0497   1.7234  17.1249   H         1 RES1   0.0000
    91 C26      1.0273   1.0080  14.6816   C.3       1 RES1   0.0000
    92 H50      0.7021   0.5100  15.4862   H         1 RES1   0.0000
    93 C27      1.8605   0.0047  13.8753   C.3       1 RES1   0.0000
    94 H51      2.1518   0.4217  13.0383   H         1 RES1   0.0000
    95 H52      1.3164  -0.7856  13.6739   H         1 RES1   0.0000
    96 H53      2.6439  -0.2634  14.3988   H         1 RES1   0.0000
    97 C28     -0.2232   1.4574  13.9348   C.3       1 RES1   0.0000
    98 H54     -0.7309   2.0826  14.4933   H         1 RES1   0.0000
    99 H55     -0.7787   0.6775  13.7301   H         1 RES1   0.0000
   100 H56      0.0360   1.9015  13.0996   H         1 RES1   0.0000
   101 C29     -1.2185   4.7403  12.6976   C.2       1 RES1   0.0000
   102 C30     -1.9447   5.5437  14.9287   C.3       1 RES1   0.0000
   103 H57     -0.9694   5.4076  15.1033   H         1 RES1   0.0000
   104 C31     -2.2023   7.0476  15.0158   C.3       1 RES1   0.0000
   105 H58     -1.6654   7.5115  14.3401   H         1 RES1   0.0000
   106 H59     -1.9551   7.3699  15.9074   H         1 RES1   0.0000
   107 H60     -3.1527   7.2253  14.8557   H         1 RES1   0.0000
   108 C32     -2.6954   4.7653  16.0051   C.3       1 RES1   0.0000
   109 H61     -3.6497   4.9828  15.9610   H         1 RES1   0.0000
   110 H62     -2.3461   5.0087  16.8875   H         1 RES1   0.0000
   111 H63     -2.5728   3.8045  15.8589   H         1 RES1   0.0000
   112 C33     -3.6465   4.9519  13.1882   C.3       1 RES1   0.0000
   113 H64     -4.1540   5.2980  13.9776   H         1 RES1   0.0000
   114 C34     -3.9795   5.8912  12.0339   C.3       1 RES1   0.0000
   115 H65     -3.7751   6.8143  12.2930   H         1 RES1   0.0000
   116 H66     -4.9314   5.8171  11.8157   H         1 RES1   0.0000
   117 H67     -3.4449   5.6466  11.2490   H         1 RES1   0.0000
   118 C35     -4.1423   3.5132  12.9709   C.3       1 RES1   0.0000
   119 H68     -3.7326   3.1453  12.1602   H         1 RES1   0.0000
   120 H69     -5.1169   3.5152  12.8724   H         1 RES1   0.0000
   121 H70     -3.8920   2.9611  13.7403   H         1 RES1   0.0000
   122 C36     -0.7507   3.4600  10.7783   C.2       1 RES1   0.0000
   123 C37     -2.5888   3.4472   9.1370   C.3       1 RES1   0.0000
   124 H71     -3.0056   3.9643   9.8834   H         1 RES1   0.0000
   125 C38     -2.4856   4.3927   7.9396   C.3       1 RES1   0.0000
   126 H72     -1.9239   5.1609   8.1758   H         1 RES1   0.0000
   127 H73     -3.3807   4.7057   7.6933   H         1 RES1   0.0000
   128 H74     -2.0848   3.9171   7.1828   H         1 RES1   0.0000
   129 C39     -3.4960   2.2749   8.8486   C.3       1 RES1   0.0000
   130 H75     -3.1271   1.7508   8.1068   H         1 RES1   0.0000
   131 H76     -4.3869   2.6033   8.6046   H         1 RES1   0.0000
   132 H77     -3.5638   1.7097   9.6460   H         1 RES1   0.0000
   133 C40     -0.4899   2.0901   8.7386   C.3       1 RES1   0.0000
   134 H78     -1.0638   1.9121   7.9384   H         1 RES1   0.0000
   135 C41      0.8128   2.6586   8.2074   C.3       1 RES1   0.0000
   136 H79      0.6646   3.5731   7.8899   H         1 RES1   0.0000
   137 H80      1.1336   2.1040   7.4661   H         1 RES1   0.0000
   138 H81      1.4816   2.6657   8.9236   H         1 RES1   0.0000
   139 C42     -0.2897   0.7378   9.4336   C.3       1 RES1   0.0000
   140 H82      0.2634   0.8602  10.2331   H         1 RES1   0.0000
   141 H83      0.1567   0.1172   8.8190   H         1 RES1   0.0000
   142 H84     -1.1603   0.3715   9.6920   H         1 RES1   0.0000
   143 N10      2.6104   7.8662  18.2817   N.1       2 RES2   0.0000
   144 C43      2.2083   7.3684  17.3250   C.1       2 RES2   0.0000
   145 C44      1.7477   6.7640  16.1486   C.3       2 RES2   0.0000
   146 H85      2.1886   7.1766  15.3764   H         2 RES2   0.0000
   147 H86      0.7787   6.8858  16.0758   H         2 RES2   0.0000
   148 H87      1.9558   5.8064  16.1703   H         2 RES2   0.0000
@<TRIPOS>BOND
     1     1     2    1
     2     2    17   un
     3     3     1    1
     4     4     1    1
     5     5     1    1
     6     6     1    1
     7     7     1    1
     8     8    17    1
     9     9    17   un
    10    10    38    1
    11    11    59    1
    12    12    59   un
    13    13    80    1
    14    14   101    1
    15    15   101   un
    16    16   122    1
    17    18     8    1
    18    19    18    1
    19    20    18    1
    20    21    20    1
    21    22    20    1
    22    23    20    1
    23    24    18    1
    24    25    24    1
    25    26    24    1
    26    27    24    1
    27    28     8    1
    28    29    28    1
    29    30    28    1
    30    31    30    1
    31    32    30    1
    32    33    30    1
    33    34    28    1
    34    35    34    1
    35    36    34    1
    36    37    34    1
    37    38     5   un
    38    39    10    1
    39    40    39    1
    40    41    39    1
    41    42    41    1
    42    43    41    1
    43    44    41    1
    44    45    39    1
    45    46    45    1
    46    47    45    1
    47    48    45    1
    48    49    10    1
    49    50    49    1
    50    51    49    1
    51    52    51    1
    52    53    51    1
    53    54    51    1
    54    55    49    1
    55    56    55    1
    56    57    55    1
    57    58    55    1
    58    59     3   un
    59    60    11    1
    60    61    60    1
    61    62    60    1
    62    63    62    1
    63    64    62    1
    64    65    62    1
    65    66    60    1
    66    67    66    1
    67    68    66    1
    68    69    66    1
    69    70    11    1
    70    71    70    1
    71    72    70    1
    72    73    72    1
    73    74    72    1
    74    75    72    1
    75    76    70    1
    76    77    76    1
    77    78    76    1
    78    79    76    1
    79    80     6   un
    80    81    13    1
    81    82    81    1
    82    83    81    1
    83    84    83    1
    84    85    83    1
    85    86    83    1
    86    87    81    1
    87    88    87    1
    88    89    87    1
    89    90    87    1
    90    91    13    1
    91    92    91    1
    92    93    91    1
    93    94    93    1
    94    95    93    1
    95    96    93    1
    96    97    91    1
    97    98    97    1
    98    99    97    1
    99   100    97    1
   100   101     4   un
   101   102    14    1
   102   103   102    1
   103   104   102    1
   104   105   104    1
   105   106   104    1
   106   107   104    1
   107   108   102    1
   108   109   108    1
   109   110   108    1
   110   111   108    1
   111   112    14    1
   112   113   112    1
   113   114   112    1
   114   115   114    1
   115   116   114    1
   116   117   114    1
   117   118   112    1
   118   119   118    1
   119   120   118    1
   120   121   118    1
   121   122     7   un
   122   123    16    1
   123   124   123    1
   124   125   123    1
   125   126   125    1
   126   127   125    1
   127   128   125    1
   128   129   123    1
   129   130   129    1
   130   131   129    1
   131   132   129    1
   132   133    16    1
   133   134   133    1
   134   135   133    1
   135   136   135    1
   136   137   135    1
   137   138   135    1
   138   139   133    1
   139   140   139    1
   140   141   139    1
   141   142   139    1
   142     9    38   un
   143    12    80   un
   144    15   122   un
   145   143   144    3
   146   144   145    1
   147   145   146    1
   148   147   145    1
   149   148   145    1
@<TRIPOS>SUBSTRUCTURE
     1 RES1        1 GROUP             0 ****  ****    0  
     2 RES2      143 GROUP             0 ****  ****    0  
@<TRIPOS>CRYSIN
   14.3410   15.2240   25.7250   90.0000   97.1440   90.0000   231     1
