@<TRIPOS>MOLECULE
XAGLIC
   112   126     2     0     0
SMALL
NO_CHARGES
****
Generated from the CSD

@<TRIPOS>ATOM
     1 Fe1      6.4916   7.1917   4.8819   Fe        1 RES1   0.0000
     2 Ca1      4.5607  11.2254   7.7638   Ca        1 RES1   0.0000
     3 Ca2      8.6015   3.3249   1.8838   Ca        1 RES1   0.0000
     4 C1       7.4106  11.9531   6.0124   C.ar      1 RES1   0.0000
     5 H1       7.2507  11.0748   5.6853   H         1 RES1   0.0000
     6 C2       8.4571  12.6860   5.4471   C.ar      1 RES1   0.0000
     7 H2       9.0059  12.3074   4.7714   H         1 RES1   0.0000
     8 C3       8.6727  13.9572   5.8858   C.ar      1 RES1   0.0000
     9 H3       9.3596  14.4834   5.4949   H         1 RES1   0.0000
    10 C4       7.8748  14.4919   6.9211   C.ar      1 RES1   0.0000
    11 C5       6.8711  13.6670   7.4596   C.ar      1 RES1   0.0000
    12 C6       6.0653  14.1663   8.5490   C.ar      1 RES1   0.0000
    13 C7       6.3264  15.4520   9.0648   C.ar      1 RES1   0.0000
    14 C8       7.3465  16.2613   8.4809   C.ar      1 RES1   0.0000
    15 H4       7.5115  17.1311   8.8272   H         1 RES1   0.0000
    16 C9       8.0795  15.8074   7.4477   C.ar      1 RES1   0.0000
    17 H5       8.7418  16.3671   7.0610   H         1 RES1   0.0000
    18 C10      5.5446  15.8885  10.1412   C.ar      1 RES1   0.0000
    19 H6       5.7103  16.7375  10.5337   H         1 RES1   0.0000
    20 C11      4.5519  15.1036  10.6299   C.ar      1 RES1   0.0000
    21 H7       4.0069  15.3996  11.3495   H         1 RES1   0.0000
    22 C12      4.3495  13.8537  10.0495   C.ar      1 RES1   0.0000
    23 H8       3.6423  13.3163  10.3856   H         1 RES1   0.0000
    24 C13      3.9335  10.5429  11.1569   C.ar      1 RES1   0.0000
    25 H9       4.8342  10.8381  11.2264   H         1 RES1   0.0000
    26 C14      3.2876  10.0959  12.3244   C.ar      1 RES1   0.0000
    27 H10      3.7502  10.0681  13.1542   H         1 RES1   0.0000
    28 C15      1.9886   9.7027  12.2416   C.ar      1 RES1   0.0000
    29 H11      1.5300   9.4179  13.0233   H         1 RES1   0.0000
    30 C16      1.3316   9.7181  11.0184   C.ar      1 RES1   0.0000
    31 C17      2.0633  10.1443   9.8907   C.ar      1 RES1   0.0000
    32 C18      1.4301  10.1133   8.5940   C.ar      1 RES1   0.0000
    33 C19      0.0735   9.7268   8.4705   C.ar      1 RES1   0.0000
    34 C20     -0.6332   9.3419   9.6468   C.ar      1 RES1   0.0000
    35 H12     -1.5461   9.0890   9.5756   H         1 RES1   0.0000
    36 C21     -0.0480   9.3256  10.8531   C.ar      1 RES1   0.0000
    37 H13     -0.5493   9.0510  11.6111   H         1 RES1   0.0000
    38 C22      1.5814  10.4378   6.3210   C.ar      1 RES1   0.0000
    39 H14      2.1018  10.6667   5.5603   H         1 RES1   0.0000
    40 C23      0.2425  10.1016   6.1240   C.ar      1 RES1   0.0000
    41 H15     -0.1423  10.1280   5.2563   H         1 RES1   0.0000
    42 C24     -0.4972   9.7371   7.1976   C.ar      1 RES1   0.0000
    43 H16     -1.4072   9.4852   7.0821   H         1 RES1   0.0000
    44 C25      5.4324   8.7285   5.4379   C.1       1 RES1   0.0000
    45 C26      7.5675   5.6800   4.2931   C.1       1 RES1   0.0000
    46 C27      5.0464   5.9558   5.3077   C.1       1 RES1   0.0000
    47 C28      7.9614   8.3890   4.5044   C.1       1 RES1   0.0000
    48 C29      5.9446   7.2925   3.0214   C.1       1 RES1   0.0000
    49 C30      7.0658   7.0910   6.7345   C.1       1 RES1   0.0000
    50 C31      9.3552   3.4084  -1.5271   C.ar      1 RES1   0.0000
    51 H17      8.4657   3.0786  -1.5757   H         1 RES1   0.0000
    52 C32     10.0673   3.5671  -2.7180   C.ar      1 RES1   0.0000
    53 H18      9.6591   3.3658  -3.5516   H         1 RES1   0.0000
    54 C33     11.3545   4.0121  -2.6705   C.ar      1 RES1   0.0000
    55 H19     11.8645   4.0915  -3.4689   H         1 RES1   0.0000
    56 C34     11.9184   4.3527  -1.4366   C.ar      1 RES1   0.0000
    57 C35     11.1238   4.1734  -0.2853   C.ar      1 RES1   0.0000
    58 C36     11.6727   4.5259   1.0010   C.ar      1 RES1   0.0000
    59 C37     12.9840   5.0268   1.0947   C.ar      1 RES1   0.0000
    60 C38     13.7484   5.1877  -0.1039   C.ar      1 RES1   0.0000
    61 H20     14.6332   5.5260  -0.0443   H         1 RES1   0.0000
    62 C39     13.2514   4.8744  -1.3083   C.ar      1 RES1   0.0000
    63 H21     13.7858   4.9986  -2.0837   H         1 RES1   0.0000
    64 C40     13.4757   5.3287   2.3665   C.ar      1 RES1   0.0000
    65 H22     14.3626   5.6531   2.4685   H         1 RES1   0.0000
    66 C41     12.6883   5.1581   3.4497   C.ar      1 RES1   0.0000
    67 H23     13.0154   5.3529   4.3193   H         1 RES1   0.0000
    68 C42     11.3910   4.6917   3.2729   C.ar      1 RES1   0.0000
    69 H24     10.8387   4.6010   4.0403   H         1 RES1   0.0000
    70 C43      9.0802   0.4222   0.0154   C.ar      1 RES1   0.0000
    71 H25      9.8333   0.9180  -0.2847   H         1 RES1   0.0000
    72 C44      8.9510  -0.8893  -0.4175   C.ar      1 RES1   0.0000
    73 H26      9.5866  -1.2672  -1.0159   H         1 RES1   0.0000
    74 C45      7.9018  -1.6195   0.0250   C.ar      1 RES1   0.0000
    75 H27      7.7961  -2.5202  -0.2578   H         1 RES1   0.0000
    76 C46      6.9735  -1.0490   0.9039   C.ar      1 RES1   0.0000
    77 C47      7.1673   0.2979   1.2769   C.ar      1 RES1   0.0000
    78 C48      6.2099   0.9293   2.1523   C.ar      1 RES1   0.0000
    79 C49      5.1030   0.1977   2.6133   C.ar      1 RES1   0.0000
    80 C50      4.9716  -1.1858   2.2453   C.ar      1 RES1   0.0000
    81 H28      4.2463  -1.6930   2.5877   H         1 RES1   0.0000
    82 C51      5.8523  -1.7698   1.4295   C.ar      1 RES1   0.0000
    83 H29      5.7340  -2.6833   1.1948   H         1 RES1   0.0000
    84 C52      4.1682   0.8551   3.4131   C.ar      1 RES1   0.0000
    85 H30      3.4061   0.3890   3.7363   H         1 RES1   0.0000
    86 C53      4.3526   2.1710   3.7267   C.ar      1 RES1   0.0000
    87 H31      3.7135   2.6381   4.2520   H         1 RES1   0.0000
    88 C54      5.4938   2.8141   3.2625   C.ar      1 RES1   0.0000
    89 H32      5.6233   3.7229   3.5055   H         1 RES1   0.0000
    90 Cl1     10.6656   0.9386   3.8325   Cl        1 RES1   0.0000
    91 N1       6.6250  12.4167   6.9850   N.ar      1 RES1   0.0000
    92 N2       5.0878  13.3673   9.0540   N.ar      1 RES1   0.0000
    93 N3       3.3510  10.5734   9.9648   N.ar      1 RES1   0.0000
    94 N4       2.1721  10.4570   7.5092   N.ar      1 RES1   0.0000
    95 N5       4.8776   9.6508   5.8573   N.1       1 RES1   0.0000
    96 N6       8.1405   4.7940   3.8360   N.1       1 RES1   0.0000
    97 N7       4.2192   5.2094   5.5909   N.1       1 RES1   0.0000
    98 N8       8.8297   9.1023   4.2804   N.1       1 RES1   0.0000
    99 N9       5.6799   7.2868   1.9040   N.1       1 RES1   0.0000
   100 N10      7.3636   7.0930   7.8459   N.1       1 RES1   0.0000
   101 N11      9.8536   3.6940  -0.3353   N.ar      1 RES1   0.0000
   102 N12     10.8797   4.3674   2.0944   N.ar      1 RES1   0.0000
   103 N13      8.2192   1.0313   0.8248   N.ar      1 RES1   0.0000
   104 N14      6.4147   2.2335   2.5008   N.ar      1 RES1   0.0000
   105 O1       3.5593  12.9981   6.4734   O.3       1 RES1   0.0000
   106 O2       6.2030   9.7819   8.7344   O.3       1 RES1   0.0000
   107 O3       7.1459   4.8581   0.8223   O.3       1 RES1   0.0000
   108 O4       9.6182   1.8262   3.4566   O.3       1 RES1   0.0000
   109 O5      10.4157  -0.3242   3.2900   O.2       1 RES1   0.0000
   110 O6      11.9307   1.5927   3.5420   O.2       1 RES1   0.0000
   111 O7      10.6391   0.7413   5.2122   O.2       1 RES1   0.0000
   112 O8       2.4535   3.2171   6.7474   O.3       2 RES2   0.0000
@<TRIPOS>BOND
     1     1    44    1
     2     2    91    1
     3     3    96    1
     4     4     5    1
     5     6     4   ar
     6     7     6    1
     7     8     6   ar
     8     9     8    1
     9    10     8   ar
    10    11    10   ar
    11    12    11   ar
    12    13    12   ar
    13    14    13   ar
    14    15    14    1
    15    16    10   ar
    16    17    16    1
    17    18    13   ar
    18    19    18    1
    19    20    18   ar
    20    21    20    1
    21    22    20   ar
    22    23    22    1
    23    24    25    1
    24    26    24   ar
    25    27    26    1
    26    28    26   ar
    27    29    28    1
    28    30    28   ar
    29    31    30   ar
    30    32    31   ar
    31    33    32   ar
    32    34    33   ar
    33    35    34    1
    34    36    30   ar
    35    37    36    1
    36    38    39    1
    37    40    38   ar
    38    41    40    1
    39    42    33   ar
    40    43    42    1
    41    44    95    3
    42    45     1    1
    43    46     1    1
    44    47     1    1
    45    48     1    1
    46    49     1    1
    47    50    51    1
    48    52    50   ar
    49    53    52    1
    50    54    52   ar
    51    55    54    1
    52    56    54   ar
    53    57    56   ar
    54    58    57   ar
    55    59    58   ar
    56    60    59   ar
    57    61    60    1
    58    62    56   ar
    59    63    62    1
    60    64    59   ar
    61    65    64    1
    62    66    64   ar
    63    67    66    1
    64    68    66   ar
    65    69    68    1
    66    70    71    1
    67    72    70   ar
    68    73    72    1
    69    74    72   ar
    70    75    74    1
    71    76    74   ar
    72    77    76   ar
    73    78    77   ar
    74    79    78   ar
    75    80    79   ar
    76    81    80    1
    77    82    76   ar
    78    83    82    1
    79    84    79   ar
    80    85    84    1
    81    86    84   ar
    82    87    86    1
    83    88    86   ar
    84    89    88    1
    85    90   108    1
    86    91     4   ar
    87    92     2    1
    88    93     2    1
    89    94     2    1
    90    95     2    1
    91    96    45    3
    92    97    46    3
    93    98    47    3
    94    99    48    3
    95   100    49    3
    96   101     3    1
    97   102     3    1
    98   103     3    1
    99   104     3    1
   100   105     2    1
   101   106     2    1
   102   107     3    1
   103   108     3    1
   104   109    90    2
   105   110    90    2
   106   111    90    2
   107    11    91   ar
   108    12    92   ar
   109    14    16   ar
   110    22    92   ar
   111    24    93   ar
   112    31    93   ar
   113    32    94   ar
   114    34    36   ar
   115    38    94   ar
   116    40    42   ar
   117    50   101   ar
   118    57   101   ar
   119    58   102   ar
   120    60    62   ar
   121    68   102   ar
   122    70   103   ar
   123    77   103   ar
   124    78   104   ar
   125    80    82   ar
   126    88   104   ar
@<TRIPOS>SUBSTRUCTURE
     1 RES1        1 GROUP             0 ****  ****    0  
     2 RES2      112 GROUP             0 ****  ****    0  
@<TRIPOS>CRYSIN
   10.9850   12.6160   19.7440   77.9600   83.9860   83.9350     2     1
