@<TRIPOS>MOLECULE
XAWDIL
   134   142     3     0     0
SMALL
USER_CHARGES
****
Generated from the CSD

@<TRIPOS>ATOM
     1 C1       9.6840  -1.0734   5.9137   C.ar      1 RES1   0.0000
     2 C2      10.2051  -1.8874   6.9260   C.ar      1 RES1   0.0000
     3 H1      11.0503  -2.3053   6.8103   H         1 RES1   0.0000
     4 C3       9.4848  -2.0818   8.0987   C.ar      1 RES1   0.0000
     5 H2       9.8364  -2.6237   8.7953   H         1 RES1   0.0000
     6 C4       8.2582  -1.4805   8.2388   C.ar      1 RES1   0.0000
     7 H3       7.7573  -1.6169   9.0343   H         1 RES1   0.0000
     8 C5       7.7399  -0.6786   7.2360   C.ar      1 RES1   0.0000
     9 H4       6.8880  -0.2769   7.3555   H         1 RES1   0.0000
    10 C6       8.4480  -0.4474   6.0469   C.ar      1 RES1   0.0000
    11 C7       7.8004   0.4438   5.0441   C.ar      1 RES1   0.0000
    12 C8       7.0267   1.5076   5.5078   C.ar      1 RES1   0.0000
    13 H5       7.0406   1.7392   6.4293   H         1 RES1   0.0000
    14 C9       6.2312   2.2293   4.6165   C.ar      1 RES1   0.0000
    15 H6       5.7322   2.9789   4.9224   H         1 RES1   0.0000
    16 C10      6.1706   1.8550   3.3030   C.ar      1 RES1   0.0000
    17 H7       5.5930   2.2967   2.6927   H         1 RES1   0.0000
    18 C11      6.9829   0.8039   2.8896   C.ar      1 RES1   0.0000
    19 C12      7.7176  -0.8209   1.3236   C.2       1 RES1   0.0000
    20 C13     11.5325  -2.1616   1.5389   C.ar      1 RES1   0.0000
    21 H8      11.9323  -1.4382   2.0074   H         1 RES1   0.0000
    22 C14     12.3566  -2.9968   0.7843   C.ar      1 RES1   0.0000
    23 H9      13.2929  -2.8398   0.7339   H         1 RES1   0.0000
    24 C15     11.7811  -4.0598   0.1128   C.ar      1 RES1   0.0000
    25 H10     12.3169  -4.6615  -0.3903   H         1 RES1   0.0000
    26 C16     10.4135  -4.2303   0.1869   C.ar      1 RES1   0.0000
    27 H11      9.9979  -4.9449  -0.2801   H         1 RES1   0.0000
    28 C17      9.6444  -3.3513   0.9499   C.ar      1 RES1   0.0000
    29 H12      8.7046  -3.4798   0.9860   H         1 RES1   0.0000
    30 C18      8.7799  -3.6451   4.1351   C.ar      1 RES1   0.0000
    31 H13      9.7152  -3.7009   3.9812   H         1 RES1   0.0000
    32 C19      8.1771  -4.6176   4.9112   C.ar      1 RES1   0.0000
    33 H14      8.6915  -5.3250   5.2828   H         1 RES1   0.0000
    34 C20      6.8182  -4.5460   5.1408   C.ar      1 RES1   0.0000
    35 H15      6.3838  -5.1969   5.6768   H         1 RES1   0.0000
    36 C21      6.1041  -3.5157   4.5788   C.ar      1 RES1   0.0000
    37 H16      5.1684  -3.4416   4.7244   H         1 RES1   0.0000
    38 C22      6.7689  -2.5857   3.7943   C.ar      1 RES1   0.0000
    39 H17      6.2641  -1.8922   3.3855   H         1 RES1   0.0000
    40 C23      9.8395   0.2828   1.8375   C.1       1 RES1   0.0000
    41 C24     11.2726   0.7263   4.5526   C.3       1 RES1   0.0000
    42 H18     10.5168   1.3485   4.5937   H         1 RES1   0.0000
    43 H19     11.8224   0.9320   3.7683   H         1 RES1   0.0000
    44 H20     11.8154   0.8174   5.3649   H         1 RES1   0.0000
    45 N1       7.8538   0.1584   3.7121   N.ar      1 RES1   0.0000
    46 N2       6.9366   0.3027   1.6177   N.am      1 RES1   0.0000
    47 H21      6.4312   0.6766   1.0028   H         1 RES1   0.0000
    48 N3       8.0948  -2.6211   3.5857   N.ar      1 RES1   0.0000
    49 N4      10.1856  -2.3264   1.6381   N.ar      1 RES1   0.0000
    50 O1       7.5085  -1.4141   0.2626   O.2       1 RES1   0.0000
    51 O2      10.3482   1.1065   1.2222   O.2       1 RES1   0.0000
    52 S1      10.6511  -0.9729   4.4283   S.3       1 RES1   0.0000
    53 Fe1      9.0563  -1.0537   2.6972   Fe        1 RES1   1.0000
    54 C25      2.2594   5.4933   3.7749   C.ar      2 RES2   0.0000
    55 C26      1.6274   6.6089   3.2135   C.ar      2 RES2   0.0000
    56 H22      0.7452   6.8261   3.4901   H         2 RES2   0.0000
    57 C27      2.2519   7.4104   2.2619   C.ar      2 RES2   0.0000
    58 C28      3.5561   7.1747   1.8614   C.ar      2 RES2   0.0000
    59 H23      3.9898   7.7381   1.2306   H         2 RES2   0.0000
    60 C29      4.2076   6.0803   2.4199   C.ar      2 RES2   0.0000
    61 C30      3.5670   5.2614   3.3394   C.ar      2 RES2   0.0000
    62 H24      4.0362   4.5128   3.6880   H         2 RES2   0.0000
    63 C31      1.4992   8.5674   1.6732   C.3       2 RES2   0.0000
    64 C32      5.6155   5.7407   2.0410   C.3       2 RES2   0.0000
    65 C33      2.3064   5.2800   6.3276   C.ar      2 RES2   0.0000
    66 C34      1.7172   6.3393   7.0403   C.ar      2 RES2   0.0000
    67 H25      0.8410   6.6222   6.8065   H         2 RES2   0.0000
    68 C35      2.3780   6.9827   8.0758   C.ar      2 RES2   0.0000
    69 C36      3.6783   6.6397   8.4384   C.ar      2 RES2   0.0000
    70 H26      4.1335   7.0939   9.1370   H         2 RES2   0.0000
    71 C37      4.2811   5.6055   7.7372   C.ar      2 RES2   0.0000
    72 C38      3.6056   4.9408   6.7259   C.ar      2 RES2   0.0000
    73 H27      4.0430   4.2230   6.2837   H         2 RES2   0.0000
    74 C39      5.7056   5.2526   8.0203   C.3       2 RES2   0.0000
    75 C40      1.7096   8.1059   8.8139   C.3       2 RES2   0.0000
    76 C41      2.0532   3.0091   4.8710   C.ar      2 RES2   0.0000
    77 C42      2.0691   2.1947   6.0116   C.ar      2 RES2   0.0000
    78 H28      1.9761   2.5968   6.8663   H         2 RES2   0.0000
    79 C43      2.2147   0.8173   5.9274   C.ar      2 RES2   0.0000
    80 C44      2.3885   0.1875   4.7058   C.ar      2 RES2   0.0000
    81 H29      2.5111  -0.7536   4.6516   H         2 RES2   0.0000
    82 C45      2.3786   0.9714   3.5620   C.ar      2 RES2   0.0000
    83 C46      2.2044   2.3558   3.6436   C.ar      2 RES2   0.0000
    84 H30      2.1885   2.8662   2.8440   H         2 RES2   0.0000
    85 C47      2.1058  -0.0367   7.1632   C.3       2 RES2   0.0000
    86 C48      2.5497   0.2865   2.2390   C.3       2 RES2   0.0000
    87 C49      0.0194   4.5396   5.0314   C.ar      2 RES2   0.0000
    88 C50     -0.7463   4.5678   3.8608   C.ar      2 RES2   0.0000
    89 H31     -0.3209   4.7705   3.0363   H         2 RES2   0.0000
    90 C51     -2.1171   4.3071   3.8692   C.ar      2 RES2   0.0000
    91 C52     -2.7692   3.9799   5.0520   C.ar      2 RES2   0.0000
    92 H32     -3.7021   3.7982   5.0606   H         2 RES2   0.0000
    93 C53     -2.0245   3.9270   6.2164   C.ar      2 RES2   0.0000
    94 C54     -0.6682   4.2186   6.2163   C.ar      2 RES2   0.0000
    95 H33     -0.1914   4.2003   7.0381   H         2 RES2   0.0000
    96 C55     -2.6843   3.4600   7.4825   C.3       2 RES2   0.0000
    97 C56     -2.8715   4.3859   2.5788   C.3       2 RES2   0.0000
    98 B1       1.6457   4.5967   5.0028   B         2 RES2  -1.0000
    99 F1       6.2223   6.7207   1.3630   F         2 RES2   0.0000
   100 F2       5.6706   4.6522   1.2502   F         2 RES2   0.0000
   101 F3       6.3740   5.4532   3.1077   F         2 RES2   0.0000
   102 F4       2.0598   9.0770   0.5972   F         2 RES2   0.0000
   103 F5       1.3425   9.5634   2.5460   F         2 RES2   0.0000
   104 F6       0.2562   8.2330   1.3227   F         2 RES2   0.0000
   105 F7       6.5374   5.8784   7.1856   F         2 RES2   0.0000
   106 F8       5.9508   3.9429   7.8743   F         2 RES2   0.0000
   107 F9       6.0955   5.5647   9.2571   F         2 RES2   0.0000
   108 F10      2.2946   8.3859   9.9932   F         2 RES2   0.0000
   109 F11      1.6941   9.2347   8.1113   F         2 RES2   0.0000
   110 F12      0.4262   7.8304   9.1131   F         2 RES2   0.0000
   111 F13      2.1196   0.6530   8.2926   F         2 RES2   0.0000
   112 F14      3.0666  -0.9413   7.2413   F         2 RES2   0.0000
   113 F15      0.9409  -0.7334   7.1750   F         2 RES2   0.0000
   114 F16      1.7539  -0.7750   2.1206   F         2 RES2   0.0000
   115 F17      2.4111   1.0773   1.2082   F         2 RES2   0.0000
   116 F18      3.7882  -0.2622   2.0944   F         2 RES2   0.0000
   117 F19     -2.8818   2.1265   7.4693   F         2 RES2   0.0000
   118 F20     -3.8609   3.9969   7.6840   F         2 RES2   0.0000
   119 F21     -1.9471   3.6798   8.5805   F         2 RES2   0.0000
   120 F22     -2.1058   4.0798   1.5202   F         2 RES2   0.0000
   121 F23     -3.9205   3.5516   2.5426   F         2 RES2   0.0000
   122 F24     -3.3614   5.6094   2.3452   F         2 RES2   0.0000
   123 C57     -1.4174   9.0213   5.2940   C.ar      3 RES3   0.0000
   124 C58     -2.3149   8.2458   4.4966   C.ar      3 RES3   0.0000
   125 H34     -2.3286   8.2797   3.5480   H         3 RES3   0.0000
   126 C59     -3.1858   7.4210   5.2585   C.ar      3 RES3   0.0000
   127 H35     -3.8300   6.8758   4.8215   H         3 RES3   0.0000
   128 C60     -3.0972   7.4121   6.6198   C.ar      3 RES3   0.0000
   129 H36     -3.6756   6.8378   7.1053   H         3 RES3   0.0000
   130 C61     -2.2387   8.1703   7.2995   C.ar      3 RES3   0.0000
   131 H37     -2.2267   8.1439   8.2500   H         3 RES3   0.0000
   132 C62     -1.3846   8.9737   6.6329   C.ar      3 RES3   0.0000
   133 H38     -0.7617   9.5071   7.1128   H         3 RES3   0.0000
   134 F25     -0.5648   9.8390   4.6684   F         3 RES3   0.0000
@<TRIPOS>BOND
     1     1     2   ar
     2     2     3    1
     3     4     2   ar
     4     5     4    1
     5     6     4   ar
     6     7     6    1
     7     8     6   ar
     8     9     8    1
     9    10     1   ar
    10    11    10    1
    11    12    11   ar
    12    13    12    1
    13    14    12   ar
    14    15    14    1
    15    16    14   ar
    16    17    16    1
    17    18    16   ar
    18    19    46   am
    19    20    21    1
    20    22    20   ar
    21    23    22    1
    22    24    22   ar
    23    25    24    1
    24    26    24   ar
    25    27    26    1
    26    28    26   ar
    27    29    28    1
    28    30    31    1
    29    32    30   ar
    30    33    32    1
    31    34    32   ar
    32    35    34    1
    33    36    34   ar
    34    37    36    1
    35    38    36   ar
    36    39    38    1
    37    40    51    3
    38    41    42    1
    39    43    41    1
    40    44    41    1
    41    45    11   ar
    42    46    18    1
    43    47    46    1
    44    48    30   ar
    45    49    20   ar
    46    50    19    2
    47    52     1    1
    48    53    19    1
    49     8    10   ar
    50    18    45   ar
    51    28    49   ar
    52    38    48   ar
    53    40    53    1
    54    41    52    1
    55    45    53    1
    56    48    53    1
    57    49    53    1
    58    52    53    1
    59    54    55   ar
    60    55    56    1
    61    57    55   ar
    62    58    57   ar
    63    59    58    1
    64    60    58   ar
    65    61    54   ar
    66    62    61    1
    67    63    57    1
    68    64    60    1
    69    65    66   ar
    70    66    67    1
    71    68    66   ar
    72    69    68   ar
    73    70    69    1
    74    71    69   ar
    75    72    65   ar
    76    73    72    1
    77    74    71    1
    78    75    68    1
    79    76    77   ar
    80    77    78    1
    81    79    77   ar
    82    80    79   ar
    83    81    80    1
    84    82    80   ar
    85    83    76   ar
    86    84    83    1
    87    85    79    1
    88    86    82    1
    89    87    88   ar
    90    88    89    1
    91    90    88   ar
    92    91    90   ar
    93    92    91    1
    94    93    91   ar
    95    94    87   ar
    96    95    94    1
    97    96    93    1
    98    97    90    1
    99    98    54    1
   100    99    64    1
   101   100    64    1
   102   101    64    1
   103   102    63    1
   104   103    63    1
   105   104    63    1
   106   105    74    1
   107   106    74    1
   108   107    74    1
   109   108    75    1
   110   109    75    1
   111   110    75    1
   112   111    85    1
   113   112    85    1
   114   113    85    1
   115   114    86    1
   116   115    86    1
   117   116    86    1
   118   117    96    1
   119   118    96    1
   120   119    96    1
   121   120    97    1
   122   121    97    1
   123   122    97    1
   124    60    61   ar
   125    65    98    1
   126    71    72   ar
   127    76    98    1
   128    82    83   ar
   129    87    98    1
   130    93    94   ar
   131   123   124   ar
   132   124   125    1
   133   126   124   ar
   134   127   126    1
   135   128   126   ar
   136   129   128    1
   137   130   128   ar
   138   131   130    1
   139   132   123   ar
   140   133   132    1
   141   134   123    1
   142   130   132   ar
@<TRIPOS>SUBSTRUCTURE
     1 RES1        1 GROUP             0 ****  ****    0  
     2 RES2       54 GROUP             0 ****  ****    0  
     3 RES3      123 GROUP             0 ****  ****    0  
@<TRIPOS>CRYSIN
   12.6230   13.1564   19.2160   98.6350   98.8150   99.9640     2     1
