@<TRIPOS>MOLECULE
XAXVAW
   106   111     2     0     0
SMALL
NO_CHARGES
****
Generated from the CSD

@<TRIPOS>ATOM
     1 Fe1     18.8166  10.2777  11.1540   Fe        1 RES1   0.0000
     2 P1      18.4525  12.4686  11.0675   P.3       1 RES1   0.0000
     3 P2      18.6496   8.1495  11.7962   P.3       1 RES1   0.0000
     4 O1      18.6448  10.0517   8.2194   O.2       1 RES1   0.0000
     5 O2      21.7229  10.4305  11.2305   O.2       1 RES1   0.0000
     6 N1      16.9149  10.2747  11.6977   N.2       1 RES1   0.0000
     7 C1      17.2476   7.1085   9.6153   C.3       1 RES1   0.0000
     8 H1      16.4384   7.1164  10.1860   H         1 RES1   0.0000
     9 H2      17.3263   7.9963   9.1858   H         1 RES1   0.0000
    10 C2      18.4880   6.8506  10.4884   C.3       1 RES1   0.0000
    11 H3      18.3512   5.9743  10.9509   H         1 RES1   0.0000
    12 C3      20.5359  13.0682   9.2297   C.3       1 RES1   0.0000
    13 H4      21.1251  13.3626   9.9694   H         1 RES1   0.0000
    14 H5      20.6403  12.0894   9.1266   H         1 RES1   0.0000
    15 C4      16.2563   9.2717  12.3657   C.2       1 RES1   0.0000
    16 C5      18.8498  13.5139  12.5401   C.3       1 RES1   0.0000
    17 H6      18.4850  14.4293  12.3657   H         1 RES1   0.0000
    18 C6      19.7586   6.7270   9.6358   C.3       1 RES1   0.0000
    19 H7      19.9685   7.6046   9.2281   H         1 RES1   0.0000
    20 H8      20.5202   6.4691  10.2147   H         1 RES1   0.0000
    21 C7      19.9318   7.5027  12.9631   C.3       1 RES1   0.0000
    22 H9      20.8159   7.5899  12.5027   H         1 RES1   0.0000
    23 C8      16.0650  11.3439  11.6068   C.2       1 RES1   0.0000
    24 C9      19.9961  13.9707  15.2450   C.3       1 RES1   0.0000
    25 H10     20.1763  14.5686  16.0126   H         1 RES1   0.0000
    26 H11     20.3673  13.0775  15.4541   H         1 RES1   0.0000
    27 C10     20.5758  10.3568  11.1760   C.1       1 RES1   0.0000
    28 C11     18.1647  12.9800  13.8072   C.3       1 RES1   0.0000
    29 H12     17.1847  12.9595  13.6687   H         1 RES1   0.0000
    30 H13     18.4699  12.0550  13.9835   H         1 RES1   0.0000
    31 C12     19.7616   6.0198  13.3272   C.3       1 RES1   0.0000
    32 H14     18.8730   5.8841  13.7398   H         1 RES1   0.0000
    33 H15     19.8034   5.4729  12.5027   H         1 RES1   0.0000
    34 C13     16.6068  12.5710  10.9350   C.3       1 RES1   0.0000
    35 H16     16.2717  13.3872  11.3841   H         1 RES1   0.0000
    36 H17     16.3297  12.5958   9.9846   H         1 RES1   0.0000
    37 C14     18.6499  10.1009   9.3722   C.1       1 RES1   0.0000
    38 C15     17.0361   8.0377  12.6969   C.3       1 RES1   0.0000
    39 H18     16.5377   7.2311  12.4114   H         1 RES1   0.0000
    40 H19     17.1914   7.9815  13.6721   H         1 RES1   0.0000
    41 C16     14.9787   9.6971  12.6779   C.2       1 RES1   0.0000
    42 H20     14.3088   9.1957  13.1272   H         1 RES1   0.0000
    43 C17     19.0764  13.3915   9.5786   C.3       1 RES1   0.0000
    44 H21     18.5349  13.0546   8.8084   H         1 RES1   0.0000
    45 C18     20.6614  14.5247  13.9943   C.3       1 RES1   0.0000
    46 H22     21.6409  14.5686  14.1358   H         1 RES1   0.0000
    47 H23     20.3349  15.4453  13.8295   H         1 RES1   0.0000
    48 C19     20.3652  13.6558  12.7742   C.3       1 RES1   0.0000
    49 H24     20.7614  12.7580  12.9055   H         1 RES1   0.0000
    50 H25     20.7838  14.0607  11.9731   H         1 RES1   0.0000
    51 C20     18.4915  13.8642  15.0165   C.3       1 RES1   0.0000
    52 H26     18.1173  14.7702  14.8703   H         1 RES1   0.0000
    53 H27     18.0647  13.4839  15.8247   H         1 RES1   0.0000
    54 C21     20.8728   6.3980  15.5653   C.3       1 RES1   0.0000
    55 H28     21.6048   6.0922  16.1598   H         1 RES1   0.0000
    56 H29     20.0174   6.2954  16.0498   H         1 RES1   0.0000
    57 C22     17.0978   6.0346   8.5384   C.3       1 RES1   0.0000
    58 H30     16.9413   5.1550   8.9658   H         1 RES1   0.0000
    59 H31     16.3159   6.2430   7.9691   H         1 RES1   0.0000
    60 C23     19.5833   5.6811   8.5314   C.3       1 RES1   0.0000
    61 H32     20.3875   5.6760   7.9555   H         1 RES1   0.0000
    62 H33     19.4969   4.7847   8.9421   H         1 RES1   0.0000
    63 C24     18.3504   5.9661   7.6749   C.3       1 RES1   0.0000
    64 H34     18.4709   6.8263   7.1991   H         1 RES1   0.0000
    65 H35     18.2457   5.2516   6.9977   H         1 RES1   0.0000
    66 C25     18.8282  14.9044   9.6275   C.3       1 RES1   0.0000
    67 H36     19.3386  15.2994  10.3772   H         1 RES1   0.0000
    68 H37     17.8666  15.0766   9.7866   H         1 RES1   0.0000
    69 C26     20.0034   8.3576  14.2304   C.3       1 RES1   0.0000
    70 H38     19.1252   8.3371  14.6858   H         1 RES1   0.0000
    71 H39     20.1944   9.2957  13.9801   H         1 RES1   0.0000
    72 C27     14.8608  11.0245  12.2005   C.2       1 RES1   0.0000
    73 H40     14.1000  11.5880  12.2743   H         1 RES1   0.0000
    74 C28     21.0849   7.8632  15.1974   C.3       1 RES1   0.0000
    75 H41     21.9757   7.9701  14.7772   H         1 RES1   0.0000
    76 H42     21.0663   8.4141  16.0194   H         1 RES1   0.0000
    77 C29     20.9639  13.7637   7.9325   C.3       1 RES1   0.0000
    78 H43     21.9247  13.5937   7.7711   H         1 RES1   0.0000
    79 H44     20.4538  13.3839   7.1737   H         1 RES1   0.0000
    80 C30     19.2580  15.5632   8.3085   C.3       1 RES1   0.0000
    81 H45     18.6908  15.2257   7.5714   H         1 RES1   0.0000
    82 H46     19.1289  16.5431   8.3718   H         1 RES1   0.0000
    83 C31     20.8516   5.5543  14.3015   C.3       1 RES1   0.0000
    84 H47     20.6921   4.6077  14.5437   H         1 RES1   0.0000
    85 H48     21.7340   5.6105  13.8566   H         1 RES1   0.0000
    86 C32     20.7213  15.2635   8.0014   C.3       1 RES1   0.0000
    87 H49     20.9696  15.6779   7.1364   H         1 RES1   0.0000
    88 H50     21.2950  15.6583   8.7052   H         1 RES1   0.0000
    89 H51     18.9846  10.4214  12.5061   H         1 RES1   0.0000
    90 C33     11.6638  10.5213  14.6638   C.3       2 RES2   0.0000
    91 H52     12.3524  11.0162  14.1747   H         2 RES2   0.0000
    92 H53     12.0869   9.9495  15.3374   H         2 RES2   0.0000
    93 H54     11.0604  11.1538  15.1055   H         2 RES2   0.0000
    94 C34     10.1169  10.3738  12.6923   C.3       2 RES2   0.0000
    95 H55     10.7493  10.9670  12.2134   H         2 RES2   0.0000
    96 C35     10.8955   9.6840  13.7212   C.3       2 RES2   0.0000
    97 H56     11.5309   9.0745  13.2660   H         2 RES2   0.0000
    98 H57     10.2745   9.1220  14.2475   H         2 RES2   0.0000
    99 H55A     9.4846  10.9670  13.1712   H         2 RES2   0.0000
   100 C33A     8.5701  10.5213  10.7207   C.3       2 RES2   0.0000
   101 H52A     7.8815  11.0162  11.2098   H         2 RES2   0.0000
   102 H53A     8.1470   9.9495  10.0472   H         2 RES2   0.0000
   103 H54A     9.1735  11.1538  10.2791   H         2 RES2   0.0000
   104 C35A     9.3384   9.6840  11.6634   C.3       2 RES2   0.0000
   105 H56A     8.7030   9.0745  12.1186   H         2 RES2   0.0000
   106 H57A     9.9594   9.1220  11.1371   H         2 RES2   0.0000
@<TRIPOS>BOND
     1     1     2    1
     2     2    16    1
     3     3     1    1
     4     4    37    3
     5     5    27    3
     6     6     1    1
     7     7     8    1
     8     9     7    1
     9    10     3    1
    10    11    10    1
    11    12    13    1
    12    14    12    1
    13    15     6    1
    14    16    17    1
    15    18    10    1
    16    19    18    1
    17    20    18    1
    18    21     3    1
    19    22    21    1
    20    23     6    1
    21    24    25    1
    22    26    24    1
    23    27     1    1
    24    28    16    1
    25    29    28    1
    26    30    28    1
    27    31    21    1
    28    32    31    1
    29    33    31    1
    30    34     2    1
    31    35    34    1
    32    36    34    1
    33    37     1    1
    34    38     3    1
    35    39    38    1
    36    40    38    1
    37    41    15    2
    38    42    41    1
    39    43     2    1
    40    44    43    1
    41    45    24    1
    42    46    45    1
    43    47    45    1
    44    48    16    1
    45    49    48    1
    46    50    48    1
    47    51    24    1
    48    52    51    1
    49    53    51    1
    50    54    55    1
    51    56    54    1
    52    57     7    1
    53    58    57    1
    54    59    57    1
    55    60    18    1
    56    61    60    1
    57    62    60    1
    58    63    57    1
    59    64    63    1
    60    65    63    1
    61    66    43    1
    62    67    66    1
    63    68    66    1
    64    69    21    1
    65    70    69    1
    66    71    69    1
    67    72    23    2
    68    73    72    1
    69    74    54    1
    70    75    74    1
    71    76    74    1
    72    77    12    1
    73    78    77    1
    74    79    77    1
    75    80    66    1
    76    81    80    1
    77    82    80    1
    78    83    31    1
    79    84    83    1
    80    85    83    1
    81    86    77    1
    82    87    86    1
    83    88    86    1
    84    89     1    1
    85     7    10    1
    86    12    43    1
    87    15    38    1
    88    23    34    1
    89    28    51    1
    90    41    72    1
    91    45    48    1
    92    54    83    1
    93    60    63    1
    94    69    74    1
    95    80    86    1
    96    90    91    1
    97    92    90    1
    98    93    90    1
    99    94    95    1
   100    96    90    1
   101    97    96    1
   102    98    96    1
   103    99    94    1
   104   100   101    1
   105   102   100    1
   106   103   100    1
   107   104    94    1
   108   105   104    1
   109   106   104    1
   110    94    96    1
   111   100   104    1
@<TRIPOS>SUBSTRUCTURE
     1 RES1        1 GROUP             0 ****  ****    0  
     2 RES2       90 GROUP             0 ****  ****    0  
@<TRIPOS>CRYSIN
   24.2803   16.3858   17.1367   90.0000   99.0570   90.0000    15     1
