@<TRIPOS>MOLECULE
XEDHIB
   112   115     5     0     0
SMALL
USER_CHARGES
****
Generated from the CSD

@<TRIPOS>ATOM
     1 C1       5.1123   6.9561  10.8816   C.ar      1 RES1   0.0000
     2 H1       4.1806   7.0855  10.7489   H         1 RES1   0.0000
     3 C2       5.7092   7.5205  11.9860   C.ar      1 RES1   0.0000
     4 H2       5.1912   8.0042  12.6189   H         1 RES1   0.0000
     5 C3       7.0662   7.3753  12.1609   C.ar      1 RES1   0.0000
     6 H3       7.5025   7.7857  12.8982   H         1 RES1   0.0000
     7 C4       7.7929   6.6183  11.2437   C.ar      1 RES1   0.0000
     8 H4       8.7288   6.4955  11.3496   H         1 RES1   0.0000
     9 C5       7.1240   6.0528  10.1790   C.ar      1 RES1   0.0000
    10 C6       7.8129   5.1547   9.1842   C.3       1 RES1   0.0000
    11 H5       8.7435   5.4641   9.0492   H         1 RES1   0.0000
    12 H6       7.8448   4.2312   9.5394   H         1 RES1   0.0000
    13 C7       7.6464   4.0466   7.0701   C.3       1 RES1   0.0000
    14 H7       7.4485   3.1916   7.5071   H         1 RES1   0.0000
    15 H8       8.6167   4.1515   6.9828   H         1 RES1   0.0000
    16 H9       7.2347   4.0614   6.1809   H         1 RES1   0.0000
    17 C8       7.3259   6.4689   7.2015   C.3       1 RES1   0.0000
    18 H10      8.2349   6.4870   6.8100   H         1 RES1   0.0000
    19 H11      7.2551   7.2085   7.8555   H         1 RES1   0.0000
    20 C9       6.2962   6.6502   6.1115   C.3       1 RES1   0.0000
    21 H12      6.4208   7.5316   5.6791   H         1 RES1   0.0000
    22 H13      6.4144   5.9489   5.4222   H         1 RES1   0.0000
    23 C10      3.9874   6.0467   5.6540   C.3       1 RES1   0.0000
    24 H14      4.1509   6.5101   4.7943   H         1 RES1   0.0000
    25 H15      3.0514   6.2194   5.9265   H         1 RES1   0.0000
    26 C11      4.2071   4.5698   5.4878   C.ar      1 RES1   0.0000
    27 C12      4.1281   3.9364   4.2607   C.ar      1 RES1   0.0000
    28 H16      3.9290   4.4345   3.4769   H         1 RES1   0.0000
    29 C13      4.3421   2.5676   4.1836   C.ar      1 RES1   0.0000
    30 H17      4.3062   2.1207   3.3461   H         1 RES1   0.0000
    31 C14      4.6092   1.8631   5.3473   C.ar      1 RES1   0.0000
    32 H18      4.7411   0.9225   5.3245   H         1 RES1   0.0000
    33 C15      4.6798   2.5563   6.5413   C.ar      1 RES1   0.0000
    34 H19      4.8669   2.0736   7.3380   H         1 RES1   0.0000
    35 C16      4.4961   7.9108   7.1918   C.3       1 RES1   0.0000
    36 H20      4.5884   8.5649   6.4545   H         1 RES1   0.0000
    37 H21      5.1170   8.1843   7.9127   H         1 RES1   0.0000
    38 C17      3.0779   7.9819   7.7245   C.ar      1 RES1   0.0000
    39 C18      2.3465   9.1344   7.4677   C.ar      1 RES1   0.0000
    40 H22      2.7258   9.8112   6.9190   H         1 RES1   0.0000
    41 C19      1.0699   9.3239   7.9956   C.ar      1 RES1   0.0000
    42 C20      0.5628   8.2960   8.8001   C.ar      1 RES1   0.0000
    43 H23     -0.3018   8.4127   9.1760   H         1 RES1   0.0000
    44 C21      1.2413   7.1126   9.0863   C.ar      1 RES1   0.0000
    45 C22      2.5278   6.9561   8.5130   C.ar      1 RES1   0.0000
    46 C23      0.2206  10.5659   7.7247   C.3       1 RES1   0.0000
    47 C24      0.9359  11.5897   6.8430   C.3       1 RES1   0.0000
    48 H24      1.1689  11.1764   5.9854   H         1 RES1   0.0000
    49 H25      1.7531  11.8931   7.2916   H         1 RES1   0.0000
    50 H26      0.3457  12.3561   6.6866   H         1 RES1   0.0000
    51 C25     -1.0847  10.1560   7.0297   C.3       1 RES1   0.0000
    52 H27     -0.8760   9.6783   6.1999   H         1 RES1   0.0000
    53 H28     -1.6095  10.9571   6.8225   H         1 RES1   0.0000
    54 H29     -1.6005   9.5713   7.6228   H         1 RES1   0.0000
    55 C26     -0.1392  11.2508   9.0493   C.3       1 RES1   0.0000
    56 H30     -0.7540  11.9940   8.8763   H         1 RES1   0.0000
    57 H31      0.6756  11.5918   9.4728   H         1 RES1   0.0000
    58 H32     -0.5705  10.6025   9.6451   H         1 RES1   0.0000
    59 C27      0.6249   6.0261   9.9826   C.3       1 RES1   0.0000
    60 C28     -0.7339   6.4689  10.5557   C.3       1 RES1   0.0000
    61 H33     -1.3469   6.6764   9.8199   H         1 RES1   0.0000
    62 H34     -0.6092   7.2669  11.1115   H         1 RES1   0.0000
    63 H35     -1.1100   5.7470  11.1009   H         1 RES1   0.0000
    64 C29      1.5442   5.7253  11.1748   C.3       1 RES1   0.0000
    65 H36      1.6901   6.5464  11.6897   H         1 RES1   0.0000
    66 H37      2.4042   5.3882  10.8473   H         1 RES1   0.0000
    67 H38      1.1256   5.0501  11.7483   H         1 RES1   0.0000
    68 C30      0.3949   4.7448   9.1676   C.3       1 RES1   0.0000
    69 H39      1.2472   4.4381   8.7935   H         1 RES1   0.0000
    70 H40     -0.2339   4.9298   8.4390   H         1 RES1   0.0000
    71 H41      0.0245   4.0491   9.7500   H         1 RES1   0.0000
    72 N1       5.8037   6.2238   9.9780   N.ar      1 RES1   0.0000
    73 N2       7.0979   5.1609   7.8900   N.3       1 RES1   0.0000
    74 N3       4.9158   6.5617   6.6875   N.3       1 RES1   0.0000
    75 N4       4.4933   3.8921   6.6206   N.ar      1 RES1   0.0000
    76 O1       3.2239   5.8235   8.7230   O.3       1 RES1   0.0000
    77 O2       4.8459   3.5172   9.5253   O.3       1 RES1   0.0000
    78 H42      5.4818   2.8529   9.5032   H         1 RES1   0.0000
    79 H43      4.5940   3.6253  10.4328   H         1 RES1   0.0000
    80 Fe1      4.8996   5.1553   8.3414   Fe        1 RES1   2.0000
    81 C31      8.4964  -0.1854   9.6317   C.3       2 RES2   0.0000
    82 O3       6.7067   1.6443   9.5086   O.3       2 RES2  -1.0000
    83 O4       5.9604  -0.6694   9.5463   O.2       2 RES2   0.0000
    84 O5       7.0247   0.2462   7.5553   O.2       2 RES2   0.0000
    85 F1       9.4231   0.7050   9.2786   F         2 RES2   0.0000
    86 F2       8.8641  -1.3714   9.1535   F         2 RES2   0.0000
    87 F3       8.4882  -0.2505  10.9568   F         2 RES2   0.0000
    88 S1       6.8555   0.2952   8.9814   S.o2      2 RES2   0.0000
    89 C32      1.6951   6.3196  15.3884   C.3       3 RES3   0.0000
    90 O6       3.7155   5.6182  13.9594   O.2       3 RES3   0.0000
    91 O7       3.4867   7.9633  14.5704   O.2       3 RES3   0.0000
    92 O8       4.1289   6.3239  16.2377   O.3       3 RES3  -1.0000
    93 F4       1.4666   5.0648  15.7631   F         3 RES3   0.0000
    94 F5       0.9176   6.5858  14.3422   F         3 RES3   0.0000
    95 F6       1.2987   7.1111  16.3879   F         3 RES3   0.0000
    96 S2       3.4627   6.5906  14.9888   S.o2      3 RES3   0.0000
    97 C33      3.6267   0.2997  12.3727   C.3       4 RES4   0.0000
    98 H44      4.0623  -0.2334  13.0840   H         4 RES4   0.0000
    99 H45      4.3146   0.5653  11.7121   H         4 RES4   0.0000
   100 C34      2.5449  -0.5057  11.7051   C.3       4 RES4   0.0000
   101 H46      2.7364  -1.4755  11.7525   H         4 RES4   0.0000
   102 H47      2.4317  -0.2413  10.7576   H         4 RES4   0.0000
   103 C35      1.3236  -0.1421  12.5299   C.3       4 RES4   0.0000
   104 H48      0.4891  -0.2606  12.0107   H         4 RES4   0.0000
   105 H49      1.2728  -0.6833  13.3574   H         4 RES4   0.0000
   106 C36      1.5777   1.3142  12.8392   C.3       4 RES4   0.0000
   107 H50      1.2172   1.8892  12.1184   H         4 RES4   0.0000
   108 H51      1.1446   1.5676  13.6927   H         4 RES4   0.0000
   109 O9       3.0007   1.4639  12.9353   O.3       4 RES4   0.0000
   110 O10      4.3041   3.6773  12.0546   O.3       5 RES5   0.0000
   111 H52      3.7668   2.9662  12.3602   H         5 RES5   0.0000
   112 H53      4.0879   4.4287  12.5671   H         5 RES5   0.0000
@<TRIPOS>BOND
     1     1     2    1
     2     3     1   ar
     3     4     3    1
     4     5     3   ar
     5     6     5    1
     6     7     5   ar
     7     8     7    1
     8     9     7   ar
     9    10     9    1
    10    11    10    1
    11    12    10    1
    12    13    14    1
    13    15    13    1
    14    16    13    1
    15    17    18    1
    16    19    17    1
    17    20    17    1
    18    21    20    1
    19    22    20    1
    20    23    24    1
    21    25    23    1
    22    26    23    1
    23    27    26   ar
    24    28    27    1
    25    29    27   ar
    26    30    29    1
    27    31    29   ar
    28    32    31    1
    29    33    31   ar
    30    34    33    1
    31    35    36    1
    32    37    35    1
    33    38    35    1
    34    39    38   ar
    35    40    39    1
    36    41    39   ar
    37    42    41   ar
    38    43    42    1
    39    44    42   ar
    40    45    38   ar
    41    46    41    1
    42    47    46    1
    43    48    47    1
    44    49    47    1
    45    50    47    1
    46    51    46    1
    47    52    51    1
    48    53    51    1
    49    54    51    1
    50    55    46    1
    51    56    55    1
    52    57    55    1
    53    58    55    1
    54    59    44    1
    55    60    59    1
    56    61    60    1
    57    62    60    1
    58    63    60    1
    59    64    59    1
    60    65    64    1
    61    66    64    1
    62    67    64    1
    63    68    59    1
    64    69    68    1
    65    70    68    1
    66    71    68    1
    67    72     1   ar
    68    73    10    1
    69    74    20    1
    70    75    26   ar
    71    76    45    1
    72    77    78    1
    73    79    77    1
    74    80    72    1
    75     9    72   ar
    76    13    73    1
    77    17    73    1
    78    23    74    1
    79    33    75   ar
    80    35    74    1
    81    44    45   ar
    82    73    80    1
    83    74    80    1
    84    75    80    1
    85    76    80    1
    86    77    80    1
    87    81    85    1
    88    82    88    1
    89    83    88    2
    90    84    88    2
    91    86    81    1
    92    87    81    1
    93    88    81    1
    94    89    93    1
    95    90    96    2
    96    91    96    2
    97    92    96    1
    98    94    89    1
    99    95    89    1
   100    96    89    1
   101    97    98    1
   102    99    97    1
   103   100    97    1
   104   101   100    1
   105   102   100    1
   106   103   100    1
   107   104   103    1
   108   105   103    1
   109   106   103    1
   110   107   106    1
   111   108   106    1
   112   109    97    1
   113   106   109    1
   114   110   111    1
   115   112   110    1
@<TRIPOS>SUBSTRUCTURE
     1 RES1        1 GROUP             0 ****  ****    0  
     2 RES2       81 GROUP             0 ****  ****    0  
     3 RES3       89 GROUP             0 ****  ****    0  
     4 RES4       97 GROUP             0 ****  ****    0  
     5 RES5      110 GROUP             0 ****  ****    0  
@<TRIPOS>CRYSIN
   17.1785   10.2992   24.4050   90.0000   94.3100   90.0000    14     1
