@<TRIPOS>MOLECULE
XEJPIP
   198   218     2     0     0
SMALL
USER_CHARGES
****
Generated from the CSD

@<TRIPOS>ATOM
     1 Fe1     10.6691   8.8156  12.7336   Fe        1 RES1   2.0000
     2 N1      10.5974  10.4804  13.7177   N.2       1 RES1   0.0000
     3 N2      11.0018  11.6686  13.3290   N.2       1 RES1   0.0000
     4 N3      10.6819  12.4999  14.3296   N.pl3     1 RES1   0.0000
     5 N4      11.1883   7.9926  14.4134   N.2       1 RES1   0.0000
     6 N5      12.0665   7.0211  14.5267   N.2       1 RES1   0.0000
     7 N6      11.9965   6.6223  15.7958   N.pl3     1 RES1   0.0000
     8 N7       8.8182   8.5159  13.3201   N.2       1 RES1   0.0000
     9 N8       7.8226   8.0122  12.6198   N.2       1 RES1   0.0000
    10 N9       6.8088   7.8660  13.4867   N.pl3     1 RES1   0.0000
    11 O1       7.1112  10.7747  20.5576   O.3       1 RES1   0.0000
    12 C1       9.4633   9.2792  15.5913   C.3       1 RES1   0.0000
    13 C2       8.8359   9.6584  16.9393   C.ar      1 RES1   0.0000
    14 C3       7.6284  10.3582  16.9471   C.ar      1 RES1   0.0000
    15 H1       7.2088  10.5642  16.1203   H         1 RES1   0.0000
    16 C4       7.0239  10.7613  18.1288   C.ar      1 RES1   0.0000
    17 H2       6.2037  11.2403  18.1100   H         1 RES1   0.0000
    18 C5       7.6331  10.4554  19.3426   C.ar      1 RES1   0.0000
    19 C6       8.8554   9.8145  19.3510   C.ar      1 RES1   0.0000
    20 H3       9.2864   9.6329  20.1777   H         1 RES1   0.0000
    21 C7       9.4601   9.4329  18.1609   C.ar      1 RES1   0.0000
    22 H4      10.3117   9.0124  18.1818   H         1 RES1   0.0000
    23 C8       5.8725  11.4819  20.5716   C.3       1 RES1   0.0000
    24 H5       5.9814  12.3408  20.1127   H         1 RES1   0.0000
    25 H6       5.5970  11.6394  21.4989   H         1 RES1   0.0000
    26 H7       5.1881  10.9509  20.1134   H         1 RES1   0.0000
    27 C9      10.0341  10.5418  14.9566   C.2       1 RES1   0.0000
    28 C10     10.0827  11.8502  15.3577   C.2       1 RES1   0.0000
    29 H8       9.7673  12.2199  16.1739   H         1 RES1   0.0000
    30 C11     10.9614  13.9266  14.1735   C.3       1 RES1   0.0000
    31 H9      10.1558  14.4371  14.4387   H         1 RES1   0.0000
    32 H10     11.1310  14.1122  13.2159   H         1 RES1   0.0000
    33 C12     12.1344  14.4288  14.9755   C.ar      1 RES1   0.0000
    34 C13     12.9359  13.6154  15.7471   C.ar      1 RES1   0.0000
    35 H11     12.7757  12.6794  15.7702   H         1 RES1   0.0000
    36 C14     13.9765  14.1563  16.4910   C.ar      1 RES1   0.0000
    37 H12     14.5193  13.5908  17.0278   H         1 RES1   0.0000
    38 C15     14.2236  15.5122  16.4526   C.ar      1 RES1   0.0000
    39 H13     14.9388  15.8789  16.9590   H         1 RES1   0.0000
    40 C16     13.4343  16.3352  15.6804   C.ar      1 RES1   0.0000
    41 H14     13.6061  17.2691  15.6527   H         1 RES1   0.0000
    42 C17     12.3926  15.8017  14.9462   C.ar      1 RES1   0.0000
    43 H15     11.8478  16.3727  14.4174   H         1 RES1   0.0000
    44 C18     10.5673   8.2275  15.6124   C.2       1 RES1   0.0000
    45 C19     11.0850   7.3269  16.5035   C.2       1 RES1   0.0000
    46 H16     10.8543   7.2201  17.4187   H         1 RES1   0.0000
    47 C20     12.8258   5.4937  16.2257   C.3       1 RES1   0.0000
    48 H17     12.8612   5.4710  17.2147   H         1 RES1   0.0000
    49 H18     13.7487   5.6187  15.8897   H         1 RES1   0.0000
    50 C21     12.2840   4.1869  15.7171   C.ar      1 RES1   0.0000
    51 C22     11.0058   3.7839  16.0153   C.ar      1 RES1   0.0000
    52 H19     10.4508   4.3412  16.5482   H         1 RES1   0.0000
    53 C23     10.5144   2.5742  15.5493   C.ar      1 RES1   0.0000
    54 H20      9.6290   2.3016  15.7598   H         1 RES1   0.0000
    55 C24     11.3246   1.7732  14.7779   C.ar      1 RES1   0.0000
    56 H21     10.9940   0.9467  14.4462   H         1 RES1   0.0000
    57 C25     12.6064   2.1612  14.4857   C.ar      1 RES1   0.0000
    58 H22     13.1657   1.5991  13.9626   H         1 RES1   0.0000
    59 C26     13.0844   3.3713  14.9523   C.ar      1 RES1   0.0000
    60 H23     13.9710   3.6410  14.7437   H         1 RES1   0.0000
    61 C27      8.4324   8.7090  14.6174   C.2       1 RES1   0.0000
    62 C28      7.1455   8.2717  14.7305   C.2       1 RES1   0.0000
    63 H24      6.6049   8.2561  15.5117   H         1 RES1   0.0000
    64 C29      5.4916   7.4318  13.0084   C.3       1 RES1   0.0000
    65 H25      5.3503   7.8054  12.1025   H         1 RES1   0.0000
    66 H26      4.8009   7.8215  13.6009   H         1 RES1   0.0000
    67 C30      5.2757   5.9349  12.9452   C.ar      1 RES1   0.0000
    68 C31      4.1236   5.3975  13.4991   C.ar      1 RES1   0.0000
    69 H27      3.5277   5.9586  13.9812   H         1 RES1   0.0000
    70 C32      3.8317   4.0439  13.3563   C.ar      1 RES1   0.0000
    71 H28      3.0400   3.6864  13.7406   H         1 RES1   0.0000
    72 C33      4.6765   3.2341  12.6687   C.ar      1 RES1   0.0000
    73 H29      4.4643   2.3159  12.5495   H         1 RES1   0.0000
    74 C34      5.8373   3.7452  12.1458   C.ar      1 RES1   0.0000
    75 H30      6.4408   3.1735  11.6861   H         1 RES1   0.0000
    76 C35      6.1337   5.0914  12.2856   C.ar      1 RES1   0.0000
    77 H31      6.9407   5.4347  11.9205   H         1 RES1   0.0000
    78 N1D     10.7408   7.1509  11.7495   N.2       1 RES1   0.0000
    79 N2D     10.3364   5.9627  12.1382   N.2       1 RES1   0.0000
    80 N3D     10.6563   5.1314  11.1376   N.pl3     1 RES1   0.0000
    81 N4D     10.1499   9.6387  11.0538   N.2       1 RES1   0.0000
    82 N5D      9.2717  10.6102  10.9405   N.2       1 RES1   0.0000
    83 N6D      9.3417  11.0090   9.6714   N.pl3     1 RES1   0.0000
    84 N7D     12.5200   9.1154  12.1471   N.2       1 RES1   0.0000
    85 N8D     13.5156   9.6191  12.8474   N.2       1 RES1   0.0000
    86 N9D     14.5294   9.7653  11.9805   N.pl3     1 RES1   0.0000
    87 O1D     14.2270   6.8566   4.9096   O.3       1 RES1   0.0000
    88 C1D     11.8749   8.3521   9.8759   C.3       1 RES1   0.0000
    89 C2D     12.5023   7.9729   8.5279   C.ar      1 RES1   0.0000
    90 C3D     13.7098   7.2731   8.5201   C.ar      1 RES1   0.0000
    91 H1D     14.1294   7.0671   9.3469   H         1 RES1   0.0000
    92 C4D     14.3143   6.8700   7.3384   C.ar      1 RES1   0.0000
    93 H2D     15.1345   6.3910   7.3572   H         1 RES1   0.0000
    94 C5D     13.7051   7.1759   6.1246   C.ar      1 RES1   0.0000
    95 C6D     12.4828   7.8168   6.1162   C.ar      1 RES1   0.0000
    96 H3D     12.0518   7.9984   5.2895   H         1 RES1   0.0000
    97 C7D     11.8781   8.1984   7.3063   C.ar      1 RES1   0.0000
    98 H4D     11.0265   8.6189   7.2854   H         1 RES1   0.0000
    99 C8D     15.4657   6.1494   4.8956   C.3       1 RES1   0.0000
   100 H5D     15.3568   5.2905   5.3545   H         1 RES1   0.0000
   101 H6D     15.7412   5.9919   3.9683   H         1 RES1   0.0000
   102 H7D     16.1501   6.6804   5.3538   H         1 RES1   0.0000
   103 C9D     11.3041   7.0895  10.5106   C.2       1 RES1   0.0000
   104 C10D    11.2555   5.7811  10.1095   C.2       1 RES1   0.0000
   105 H8D     11.5709   5.4114   9.2933   H         1 RES1   0.0000
   106 C11D    10.3768   3.7047  11.2937   C.3       1 RES1   0.0000
   107 H9D     11.1824   3.1942  11.0285   H         1 RES1   0.0000
   108 H10D    10.2072   3.5191  12.2513   H         1 RES1   0.0000
   109 C12D     9.2038   3.2025  10.4917   C.ar      1 RES1   0.0000
   110 C13D     8.4023   4.0159   9.7201   C.ar      1 RES1   0.0000
   111 H11D     8.5625   4.9519   9.6970   H         1 RES1   0.0000
   112 C14D     7.3617   3.4750   8.9762   C.ar      1 RES1   0.0000
   113 H12D     6.8189   4.0405   8.4394   H         1 RES1   0.0000
   114 C15D     7.1146   2.1191   9.0146   C.ar      1 RES1   0.0000
   115 H13D     6.3994   1.7524   8.5082   H         1 RES1   0.0000
   116 C16D     7.9039   1.2961   9.7868   C.ar      1 RES1   0.0000
   117 H14D     7.7321   0.3622   9.8145   H         1 RES1   0.0000
   118 C17D     8.9456   1.8296  10.5210   C.ar      1 RES1   0.0000
   119 H15D     9.4904   1.2586  11.0498   H         1 RES1   0.0000
   120 C18D    10.7709   9.4038   9.8548   C.2       1 RES1   0.0000
   121 C19D    10.2532  10.3044   8.9637   C.2       1 RES1   0.0000
   122 H16D    10.4839  10.4112   8.0485   H         1 RES1   0.0000
   123 C20D     8.5124  12.1376   9.2415   C.3       1 RES1   0.0000
   124 H17D     8.4770  12.1603   8.2525   H         1 RES1   0.0000
   125 H18D     7.5895  12.0126   9.5775   H         1 RES1   0.0000
   126 C21D     9.0542  13.4444   9.7501   C.ar      1 RES1   0.0000
   127 C22D    10.3324  13.8474   9.4519   C.ar      1 RES1   0.0000
   128 H19D    10.8874  13.2901   8.9190   H         1 RES1   0.0000
   129 C23D    10.8238  15.0571   9.9179   C.ar      1 RES1   0.0000
   130 H20D    11.7092  15.3297   9.7074   H         1 RES1   0.0000
   131 C24D    10.0136  15.8581  10.6893   C.ar      1 RES1   0.0000
   132 H21D    10.3442  16.6846  11.0210   H         1 RES1   0.0000
   133 C25D     8.7318  15.4701  10.9815   C.ar      1 RES1   0.0000
   134 H22D     8.1725  16.0322  11.5046   H         1 RES1   0.0000
   135 C26D     8.2538  14.2600  10.5149   C.ar      1 RES1   0.0000
   136 H23D     7.3672  13.9903  10.7235   H         1 RES1   0.0000
   137 C27D    12.9058   8.9223  10.8498   C.2       1 RES1   0.0000
   138 C28D    14.1927   9.3596  10.7367   C.2       1 RES1   0.0000
   139 H24D    14.7333   9.3752   9.9555   H         1 RES1   0.0000
   140 C29D    15.8466  10.1995  12.4588   C.3       1 RES1   0.0000
   141 H25D    15.9879   9.8259  13.3647   H         1 RES1   0.0000
   142 H26D    16.5373   9.8098  11.8663   H         1 RES1   0.0000
   143 C30D    16.0625  11.6964  12.5220   C.ar      1 RES1   0.0000
   144 C31D    17.2146  12.2338  11.9681   C.ar      1 RES1   0.0000
   145 H27D    17.8105  11.6727  11.4860   H         1 RES1   0.0000
   146 C32D    17.5065  13.5874  12.1109   C.ar      1 RES1   0.0000
   147 H28D    18.2982  13.9449  11.7266   H         1 RES1   0.0000
   148 C33D    16.6617  14.3972  12.7985   C.ar      1 RES1   0.0000
   149 H29D    16.8739  15.3154  12.9177   H         1 RES1   0.0000
   150 C34D    15.5009  13.8861  13.3214   C.ar      1 RES1   0.0000
   151 H30D    14.8974  14.4578  13.7811   H         1 RES1   0.0000
   152 C35D    15.2045  12.5399  13.1816   C.ar      1 RES1   0.0000
   153 H31D    14.3975  12.1966  13.5467   H         1 RES1   0.0000
   154 B1      13.9202   7.5691  20.4008   B         2 RES2  -1.0000
   155 C36     13.8954   8.5094  19.0484   C.ar      2 RES2   0.0000
   156 C37     13.2030   9.7275  18.9657   C.ar      2 RES2   0.0000
   157 H32     12.8526  10.1090  19.7620   H         2 RES2   0.0000
   158 C38     13.0101  10.3972  17.7626   C.ar      2 RES2   0.0000
   159 H33     12.5157  11.2081  17.7477   H         2 RES2   0.0000
   160 C39     13.5350   9.8887  16.5842   C.ar      2 RES2   0.0000
   161 H34     13.3999  10.3396  15.7592   H         2 RES2   0.0000
   162 C40     14.2567   8.7160  16.6344   C.ar      2 RES2   0.0000
   163 H35     14.6450   8.3668  15.8408   H         2 RES2   0.0000
   164 C41     14.4204   8.0406  17.8375   C.ar      2 RES2   0.0000
   165 H36     14.9093   7.2260  17.8387   H         2 RES2   0.0000
   166 C42     12.6239   6.5844  20.1703   C.ar      2 RES2   0.0000
   167 C43     12.6856   5.2418  19.7610   C.ar      2 RES2   0.0000
   168 H37     13.5356   4.8233  19.6906   H         2 RES2   0.0000
   169 C44     11.5467   4.5030  19.4552   C.ar      2 RES2   0.0000
   170 H38     11.6355   3.5995  19.1751   H         2 RES2   0.0000
   171 C45     10.2997   5.0609  19.5522   C.ar      2 RES2   0.0000
   172 H39      9.5253   4.5539  19.3381   H         2 RES2   0.0000
   173 C46     10.1869   6.3864  19.9706   C.ar      2 RES2   0.0000
   174 H40      9.3310   6.7906  20.0515   H         2 RES2   0.0000
   175 C47     11.3255   7.1072  20.2668   C.ar      2 RES2   0.0000
   176 H41     11.2245   8.0077  20.5518   H         2 RES2   0.0000
   177 C48     13.7546   8.4385  21.7780   C.ar      2 RES2   0.0000
   178 C49     14.5522   9.5641  22.0192   C.ar      2 RES2   0.0000
   179 H42     15.1318   9.8654  21.3294   H         2 RES2   0.0000
   180 C50     14.5337  10.2595  23.2210   C.ar      2 RES2   0.0000
   181 H43     15.1001  11.0125  23.3415   H         2 RES2   0.0000
   182 C51     13.6895   9.8570  24.2466   C.ar      2 RES2   0.0000
   183 H44     13.6631  10.3347  25.0673   H         2 RES2   0.0000
   184 C52     12.8942   8.7561  24.0522   C.ar      2 RES2   0.0000
   185 H45     12.3181   8.4609  24.7475   H         2 RES2   0.0000
   186 C53     12.9265   8.0706  22.8451   C.ar      2 RES2   0.0000
   187 H46     12.3595   7.3159  22.7383   H         2 RES2   0.0000
   188 C54     15.3217   6.7487  20.5856   C.ar      2 RES2   0.0000
   189 C55     15.3934   5.6110  21.4006   C.ar      2 RES2   0.0000
   190 H47     14.5917   5.2810  21.7893   H         2 RES2   0.0000
   191 C56     16.5764   4.9461  21.6657   C.ar      2 RES2   0.0000
   192 H48     16.5734   4.1787  22.2256   H         2 RES2   0.0000
   193 C57     17.7544   5.3915  21.1222   C.ar      2 RES2   0.0000
   194 H49     18.5660   4.9251  21.2843   H         2 RES2   0.0000
   195 C58     17.7444   6.5197  20.3414   C.ar      2 RES2   0.0000
   196 H50     18.5582   6.8511  19.9803   H         2 RES2   0.0000
   197 C59     16.5525   7.1800  20.0758   C.ar      2 RES2   0.0000
   198 H51     16.5726   7.9548  19.5263   H         2 RES2   0.0000
@<TRIPOS>BOND
     1     1     2    1
     2     2     3    2
     3     3     4    1
     4     4    28    1
     5     5     1    1
     6     6     5    2
     7     7     6    1
     8     8     1    1
     9     9     8    2
    10    10     9    1
    11    11    18    1
    12    12    13    1
    13    13    14   ar
    14    14    15    1
    15    16    14   ar
    16    17    16    1
    17    18    16   ar
    18    19    18   ar
    19    20    19    1
    20    21    13   ar
    21    22    21    1
    22    23    11    1
    23    24    23    1
    24    25    23    1
    25    26    23    1
    26    27     2    1
    27    28    27    2
    28    29    28    1
    29    30     4    1
    30    31    30    1
    31    32    30    1
    32    33    30    1
    33    34    33   ar
    34    35    34    1
    35    36    34   ar
    36    37    36    1
    37    38    36   ar
    38    39    38    1
    39    40    38   ar
    40    41    40    1
    41    42    33   ar
    42    43    42    1
    43    44     5    1
    44    45     7    1
    45    46    45    1
    46    47     7    1
    47    48    47    1
    48    49    47    1
    49    50    47    1
    50    51    50   ar
    51    52    51    1
    52    53    51   ar
    53    54    53    1
    54    55    53   ar
    55    56    55    1
    56    57    55   ar
    57    58    57    1
    58    59    50   ar
    59    60    59    1
    60    61     8    1
    61    62    10    1
    62    63    62    1
    63    64    10    1
    64    65    64    1
    65    66    64    1
    66    67    64    1
    67    68    67   ar
    68    69    68    1
    69    70    68   ar
    70    71    70    1
    71    72    70   ar
    72    73    72    1
    73    74    72   ar
    74    75    74    1
    75    76    67   ar
    76    77    76    1
    77    78     1    1
    78    79    78    2
    79    80    79    1
    80    81     1    1
    81    82    81    2
    82    83    82    1
    83    84     1    1
    84    85    84    2
    85    86    85    1
    86    87    94    1
    87    88    89    1
    88    89    90   ar
    89    90    91    1
    90    92    90   ar
    91    93    92    1
    92    94    92   ar
    93    95    94   ar
    94    96    95    1
    95    97    89   ar
    96    98    97    1
    97    99    87    1
    98   100    99    1
    99   101    99    1
   100   102    99    1
   101   103    78    1
   102   104    80    1
   103   105   104    1
   104   106    80    1
   105   107   106    1
   106   108   106    1
   107   109   106    1
   108   110   109   ar
   109   111   110    1
   110   112   110   ar
   111   113   112    1
   112   114   112   ar
   113   115   114    1
   114   116   114   ar
   115   117   116    1
   116   118   109   ar
   117   119   118    1
   118   120    81    1
   119   121    83    1
   120   122   121    1
   121   123    83    1
   122   124   123    1
   123   125   123    1
   124   126   123    1
   125   127   126   ar
   126   128   127    1
   127   129   127   ar
   128   130   129    1
   129   131   129   ar
   130   132   131    1
   131   133   131   ar
   132   134   133    1
   133   135   126   ar
   134   136   135    1
   135   137    84    1
   136   138    86    1
   137   139   138    1
   138   140    86    1
   139   141   140    1
   140   142   140    1
   141   143   140    1
   142   144   143   ar
   143   145   144    1
   144   146   144   ar
   145   147   146    1
   146   148   146   ar
   147   149   148    1
   148   150   148   ar
   149   151   150    1
   150   152   143   ar
   151   153   152    1
   152    12    27    1
   153    12    44    1
   154    12    61    1
   155    19    21   ar
   156    40    42   ar
   157    44    45    2
   158    57    59   ar
   159    61    62    2
   160    74    76   ar
   161    88   103    1
   162    88   120    1
   163    88   137    1
   164    95    97   ar
   165   103   104    2
   166   116   118   ar
   167   120   121    2
   168   133   135   ar
   169   137   138    2
   170   150   152   ar
   171   154   155    1
   172   155   156   ar
   173   156   157    1
   174   158   156   ar
   175   159   158    1
   176   160   158   ar
   177   161   160    1
   178   162   160   ar
   179   163   162    1
   180   164   155   ar
   181   165   164    1
   182   166   154    1
   183   167   166   ar
   184   168   167    1
   185   169   167   ar
   186   170   169    1
   187   171   169   ar
   188   172   171    1
   189   173   171   ar
   190   174   173    1
   191   175   166   ar
   192   176   175    1
   193   177   154    1
   194   178   177   ar
   195   179   178    1
   196   180   178   ar
   197   181   180    1
   198   182   180   ar
   199   183   182    1
   200   184   182   ar
   201   185   184    1
   202   186   177   ar
   203   187   186    1
   204   188   154    1
   205   189   188   ar
   206   190   189    1
   207   191   189   ar
   208   192   191    1
   209   193   191   ar
   210   194   193    1
   211   195   193   ar
   212   196   195    1
   213   197   188   ar
   214   198   197    1
   215   162   164   ar
   216   173   175   ar
   217   184   186   ar
   218   195   197   ar
@<TRIPOS>SUBSTRUCTURE
     1 RES1        1 GROUP             0 ****  ****    0  
     2 RES2      154 GROUP             0 ****  ****    0  
@<TRIPOS>CRYSIN
   21.3382   17.6313   25.4672   90.0000   90.0000   90.0000    61     1
