@<TRIPOS>MOLECULE
XEWHUE
   125   133     4     0     0
SMALL
USER_CHARGES
****
Generated from the CSD

@<TRIPOS>ATOM
     1 Fe1     14.6438  11.4112   5.9588   Fe        1 RES1   2.0000
     2 C1      15.0372  13.3766   3.7120   C.ar      1 RES1   0.0000
     3 H1      14.6151  14.0228   4.2296   H         1 RES1   0.0000
     4 C2      15.4662  13.7119   2.4370   C.ar      1 RES1   0.0000
     5 H2      15.3117  14.5700   2.1122   H         1 RES1   0.0000
     6 C3      16.1020  12.8121   1.6606   C.ar      1 RES1   0.0000
     7 H3      16.4042  13.0414   0.8129   H         1 RES1   0.0000
     8 C4      16.2913  11.5354   2.1660   C.ar      1 RES1   0.0000
     9 H4      16.7099  10.8858   1.6502   H         1 RES1   0.0000
    10 C5      15.8536  11.2367   3.4427   C.ar      1 RES1   0.0000
    11 C6      16.0134   9.9426   4.0611   C.2       1 RES1   0.0000
    12 H5      16.4407   9.2478   3.6147   H         1 RES1   0.0000
    13 C7      15.7049   8.4689   5.8936   C.3       1 RES1   0.0000
    14 H6      15.8883   8.6381   6.8420   H         1 RES1   0.0000
    15 C8      16.8697   7.6428   5.3465   C.3       1 RES1   0.0000
    16 H7      16.6648   7.3545   4.4537   H         1 RES1   0.0000
    17 H8      17.0070   6.8750   5.9058   H         1 RES1   0.0000
    18 H9      17.6653   8.1795   5.3361   H         1 RES1   0.0000
    19 C9      14.4258   7.6449   5.8228   C.ar      1 RES1   0.0000
    20 C10     13.6007   7.7331   4.7229   C.ar      1 RES1   0.0000
    21 H10     13.8248   8.3220   4.0403   H         1 RES1   0.0000
    22 C11     12.4456   6.9671   4.6013   C.ar      1 RES1   0.0000
    23 H11     11.9176   7.0383   3.8388   H         1 RES1   0.0000
    24 C12     12.0930   6.1160   5.6018   C.ar      1 RES1   0.0000
    25 H12     11.2888   5.6522   5.5462   H         1 RES1   0.0000
    26 C13     12.9337   5.9249   6.7274   C.ar      1 RES1   0.0000
    27 C14     12.6228   4.9470   7.6914   C.ar      1 RES1   0.0000
    28 H13     11.8342   4.4606   7.6272   H         1 RES1   0.0000
    29 C15     13.4895   4.7212   8.7232   C.ar      1 RES1   0.0000
    30 H14     13.2689   4.1011   9.3798   H         1 RES1   0.0000
    31 C16     14.7054   5.4160   8.8031   C.ar      1 RES1   0.0000
    32 H15     15.3099   5.2127   9.4788   H         1 RES1   0.0000
    33 C17     14.1322   6.6822   6.8195   C.ar      1 RES1   0.0000
    34 C18     15.0077   6.3800   7.9016   C.ar      1 RES1   0.0000
    35 H16     15.8015   6.8542   7.9919   H         1 RES1   0.0000
    36 N1      15.2177  12.1434   4.2214   N.ar      1 RES1   0.0000
    37 N2      15.5495   9.7837   5.2351   N.2       1 RES1   0.0000
    38 C1E     12.3970  11.0178   3.9934   C.ar      1 RES1   0.0000
    39 H1E     12.9146  11.4399   3.3472   H         1 RES1   0.0000
    40 C2E     11.1220  10.5888   3.6581   C.ar      1 RES1   0.0000
    41 H2E     10.7972  10.7433   2.8000   H         1 RES1   0.0000
    42 C3E     10.3456   9.9530   4.5579   C.ar      1 RES1   0.0000
    43 H3E      9.4979   9.6508   4.3286   H         1 RES1   0.0000
    44 C4E     10.8510   9.7637   5.8346   C.ar      1 RES1   0.0000
    45 H4E     10.3352   9.3451   6.4842   H         1 RES1   0.0000
    46 C5E     12.1277  10.2014   6.1333   C.ar      1 RES1   0.0000
    47 C6E     12.7461  10.0416   7.4274   C.2       1 RES1   0.0000
    48 H5E     12.2997   9.6143   8.1222   H         1 RES1   0.0000
    49 C7E     14.5786  10.3501   8.9011   C.3       1 RES1   0.0000
    50 H6E     15.5270  10.1667   8.7319   H         1 RES1   0.0000
    51 C8E     14.0315   9.1853   9.7272   C.3       1 RES1   0.0000
    52 H7E     13.1387   9.3902  10.0155   H         1 RES1   0.0000
    53 H8E     14.5908   9.0480  10.4950   H         1 RES1   0.0000
    54 H9E     14.0211   8.3897   9.1905   H         1 RES1   0.0000
    55 C9E     14.5078  11.6292   9.7251   C.ar      1 RES1   0.0000
    56 C10E    13.4079  12.4543   9.6369   C.ar      1 RES1   0.0000
    57 H10E    12.7253  12.2302   9.0480   H         1 RES1   0.0000
    58 C11E    13.2863  13.6094  10.4029   C.ar      1 RES1   0.0000
    59 H11E    12.5238  14.1374  10.3317   H         1 RES1   0.0000
    60 C12E    14.2868  13.9620  11.2540   C.ar      1 RES1   0.0000
    61 H12E    14.2312  14.7662  11.7178   H         1 RES1   0.0000
    62 C13E    15.4124  13.1213  11.4451   C.ar      1 RES1   0.0000
    63 C14E    16.3764  13.4322  12.4230   C.ar      1 RES1   0.0000
    64 H13E    16.3122  14.2208  12.9094   H         1 RES1   0.0000
    65 C15E    17.4082  12.5655  12.6488   C.ar      1 RES1   0.0000
    66 H14E    18.0648  12.7861  13.2689   H         1 RES1   0.0000
    67 C16E    17.4881  11.3496  11.9540   C.ar      1 RES1   0.0000
    68 H15E    18.1638  10.7451  12.1573   H         1 RES1   0.0000
    69 C17E    15.5045  11.9228  10.6878   C.ar      1 RES1   0.0000
    70 C18E    16.5866  11.0473  10.9900   C.ar      1 RES1   0.0000
    71 H16E    16.6769  10.2535  10.5158   H         1 RES1   0.0000
    72 N1E     12.9064  10.8373   5.2266   N.ar      1 RES1   0.0000
    73 N2E     13.9201  10.5055   7.5863   N.2       1 RES1   0.0000
    74 C1K     12.6784  13.6580   6.3522   C.ar      1 RES1   0.0000
    75 H1K     12.0322  13.1404   5.9301   H         1 RES1   0.0000
    76 C2K     12.3431  14.9330   6.7812   C.ar      1 RES1   0.0000
    77 H2K     11.4850  15.2578   6.6267   H         1 RES1   0.0000
    78 C3K     13.2429  15.7094   7.4170   C.ar      1 RES1   0.0000
    79 H3K     13.0136  16.5571   7.7192   H         1 RES1   0.0000
    80 C4K     14.5196  15.2040   7.6063   C.ar      1 RES1   0.0000
    81 H4K     15.1692  15.7199   8.0249   H         1 RES1   0.0000
    82 C5K     14.8183  13.9273   7.1686   C.ar      1 RES1   0.0000
    83 C6K     16.1124  13.3089   7.3284   C.2       1 RES1   0.0000
    84 H5K     16.8072  13.7553   7.7557   H         1 RES1   0.0000
    85 C7K     17.5861  11.4764   7.0199   C.3       1 RES1   0.0000
    86 H6K     17.4169  10.5280   7.2033   H         1 RES1   0.0000
    87 C8K     18.4122  12.0235   8.1847   C.3       1 RES1   0.0000
    88 H7K     18.7005  12.9163   7.9798   H         1 RES1   0.0000
    89 H8K     19.1800  11.4642   8.3220   H         1 RES1   0.0000
    90 H9K     17.8755  12.0339   8.9803   H         1 RES1   0.0000
    91 C9K     18.4101  11.5472   5.7408   C.ar      1 RES1   0.0000
    92 C10K    18.3219  12.6471   4.9157   C.ar      1 RES1   0.0000
    93 H10K    17.7330  13.3297   5.1398   H         1 RES1   0.0000
    94 C11K    19.0879  12.7687   3.7606   C.ar      1 RES1   0.0000
    95 H11K    19.0167  13.5312   3.2326   H         1 RES1   0.0000
    96 C12K    19.9390  11.7682   3.4080   C.ar      1 RES1   0.0000
    97 H12K    20.4028  11.8238   2.6038   H         1 RES1   0.0000
    98 C13K    20.1301  10.6426   4.2487   C.ar      1 RES1   0.0000
    99 C14K    21.1080   9.6786   3.9378   C.ar      1 RES1   0.0000
   100 H13K    21.5944   9.7428   3.1492   H         1 RES1   0.0000
   101 C15K    21.3338   8.6468   4.8045   C.ar      1 RES1   0.0000
   102 H14K    21.9539   7.9902   4.5839   H         1 RES1   0.0000
   103 C16K    20.6390   8.5669   6.0204   C.ar      1 RES1   0.0000
   104 H15K    20.8423   7.8912   6.6249   H         1 RES1   0.0000
   105 C17K    19.3728  10.5505   5.4472   C.ar      1 RES1   0.0000
   106 C18K    19.6750   9.4684   6.3227   C.ar      1 RES1   0.0000
   107 H16K    19.2008   9.3781   7.1165   H         1 RES1   0.0000
   108 N1K     13.9116  13.1486   6.5327   N.ar      1 RES1   0.0000
   109 N2K     16.2713  12.1349   6.8645   N.2       1 RES1   0.0000
   110 C19     16.0290   1.3410  10.0260   C.3       2 RES2   0.0000
   111 H17     15.8814   1.5581   9.1019   H         2 RES2   0.0000
   112 C20     15.1953   2.1747  10.8597   C.1       2 RES2   0.0000
   113 N3      14.5439   2.8261  11.5111   N.1       2 RES2   0.0000
   114 H17F    16.9531   1.4886  10.2431   H         2 RES2   0.0000
   115 H17I    15.8119   0.4169  10.1736   H         2 RES2   0.0000
   116 Cl1     16.5104   7.8254   0.8596   Cl        3 RES3   0.0000
   117 O1      16.9427   7.0192  -0.1928   O.2       3 RES3   0.0000
   118 O2      15.6721   6.9871   1.6979   O.3       3 RES3  -1.0000
   119 O1G     17.5628   8.2577   1.6658   O.2       3 RES3   0.0000
   120 O1J     15.7042   8.8778   0.4273   O.2       3 RES3   0.0000
   121 Cl2      1.1659   7.5191   9.8509   Cl        4 RES4   0.0000
   122 O3       0.4464   6.3731  10.2066   O.2       4 RES4   0.0000
   123 O4       0.3307   8.3543   9.0157   O.3       4 RES4  -1.0000
   124 O3E      1.5216   8.2386  10.9969   O.2       4 RES4   0.0000
   125 O3K      2.3119   7.1634   9.1314   O.2       4 RES4   0.0000
@<TRIPOS>BOND
     1     1    36    1
     2     2     3    1
     3     4     2   ar
     4     5     4    1
     5     6     4   ar
     6     7     6    1
     7     8     6   ar
     8     9     8    1
     9    10     8   ar
    10    11    10    1
    11    12    11    1
    12    13    14    1
    13    15    13    1
    14    16    15    1
    15    17    15    1
    16    18    15    1
    17    19    13    1
    18    20    19   ar
    19    21    20    1
    20    22    20   ar
    21    23    22    1
    22    24    22   ar
    23    25    24    1
    24    26    24   ar
    25    27    26   ar
    26    28    27    1
    27    29    27   ar
    28    30    29    1
    29    31    29   ar
    30    32    31    1
    31    33    19   ar
    32    34    31   ar
    33    35    34    1
    34    36     2   ar
    35    37     1    1
    36    38    39    1
    37    40    38   ar
    38    41    40    1
    39    42    40   ar
    40    43    42    1
    41    44    42   ar
    42    45    44    1
    43    46    44   ar
    44    47    46    1
    45    48    47    1
    46    49    50    1
    47    51    49    1
    48    52    51    1
    49    53    51    1
    50    54    51    1
    51    55    49    1
    52    56    55   ar
    53    57    56    1
    54    58    56   ar
    55    59    58    1
    56    60    58   ar
    57    61    60    1
    58    62    60   ar
    59    63    62   ar
    60    64    63    1
    61    65    63   ar
    62    66    65    1
    63    67    65   ar
    64    68    67    1
    65    69    55   ar
    66    70    67   ar
    67    71    70    1
    68    72     1    1
    69    73     1    1
    70    74    75    1
    71    76    74   ar
    72    77    76    1
    73    78    76   ar
    74    79    78    1
    75    80    78   ar
    76    81    80    1
    77    82    80   ar
    78    83    82    1
    79    84    83    1
    80    85    86    1
    81    87    85    1
    82    88    87    1
    83    89    87    1
    84    90    87    1
    85    91    85    1
    86    92    91   ar
    87    93    92    1
    88    94    92   ar
    89    95    94    1
    90    96    94   ar
    91    97    96    1
    92    98    96   ar
    93    99    98   ar
    94   100    99    1
    95   101    99   ar
    96   102   101    1
    97   103   101   ar
    98   104   103    1
    99   105    91   ar
   100   106   103   ar
   101   107   106    1
   102   108     1    1
   103   109     1    1
   104    10    36   ar
   105    11    37    2
   106    13    37    1
   107    26    33   ar
   108    33    34   ar
   109    38    72   ar
   110    46    72   ar
   111    47    73    2
   112    49    73    1
   113    62    69   ar
   114    69    70   ar
   115    74   108   ar
   116    82   108   ar
   117    83   109    2
   118    85   109    1
   119    98   105   ar
   120   105   106   ar
   121   110   111    1
   122   112   110    1
   123   113   112    3
   124   114   110    1
   125   115   110    1
   126   116   117    2
   127   118   116    1
   128   119   116    2
   129   120   116    2
   130   121   122    2
   131   123   121    1
   132   124   121    2
   133   125   121    2
@<TRIPOS>SUBSTRUCTURE
     1 RES1        1 GROUP             0 ****  ****    0  
     2 RES2      110 GROUP             0 ****  ****    0  
     3 RES3      116 GROUP             0 ****  ****    0  
     4 RES4      121 GROUP             0 ****  ****    0  
@<TRIPOS>CRYSIN
   17.3700   17.3700   17.3700   90.0000   90.0000   90.0000   198     1
