@<TRIPOS>MOLECULE
XEWHOY
   131   138     5     0     0
SMALL
USER_CHARGES
****
Generated from the CSD

@<TRIPOS>ATOM
     1 Fe1     -1.8629  -0.7063   8.0132   Fe        1 RES1   2.0000
     2 N1      -3.0581  -2.2602   7.8020   N.ar      1 RES1   0.0000
     3 N2      -2.9955  -0.0263   6.5460   N.2       1 RES1   0.0000
     4 N3      -0.9025  -1.4576   9.5822   N.ar      1 RES1   0.0000
     5 N4      -2.9698   0.0504   9.4336   N.2       1 RES1   0.0000
     6 N5      -0.5339  -1.4642   6.7390   N.ar      1 RES1   0.0000
     7 N6      -0.5722   0.8059   7.9052   N.2       1 RES1   0.0000
     8 C1      -3.0715  -3.4077   8.4635   C.ar      1 RES1   0.0000
     9 H1      -2.4475  -3.5268   9.1426   H         1 RES1   0.0000
    10 C2      -3.9790  -4.4646   8.1983   C.ar      1 RES1   0.0000
    11 H2      -3.9351  -5.2606   8.6782   H         1 RES1   0.0000
    12 C3      -4.9122  -4.2917   7.2292   C.ar      1 RES1   0.0000
    13 H3      -5.5218  -4.9606   7.0156   H         1 RES1   0.0000
    14 C4      -4.9190  -3.0315   6.5491   C.ar      1 RES1   0.0000
    15 H4      -5.5739  -2.8503   5.9144   H         1 RES1   0.0000
    16 C5      -3.9843  -2.1110   6.8236   C.ar      1 RES1   0.0000
    17 C6      -3.9072  -0.8497   6.1601   C.2       1 RES1   0.0000
    18 H5      -4.4948  -0.6298   5.4727   H         1 RES1   0.0000
    19 C7      -2.7892   1.2187   5.7700   C.3       1 RES1   0.0000
    20 H6      -2.4009   1.8857   6.3726   H         1 RES1   0.0000
    21 C8      -4.0844   1.7980   5.2034   C.3       1 RES1   0.0000
    22 H7      -4.3815   1.2593   4.4665   H         1 RES1   0.0000
    23 H8      -3.9283   2.6958   4.9000   H         1 RES1   0.0000
    24 H9      -4.7591   1.8055   5.8866   H         1 RES1   0.0000
    25 C9      -1.7899   0.9670   4.6492   C.ar      1 RES1   0.0000
    26 C10     -1.7927  -0.1677   3.9144   C.ar      1 RES1   0.0000
    27 H10     -2.4426  -0.8069   4.1012   H         1 RES1   0.0000
    28 C11     -0.8569  -0.4443   2.8669   C.ar      1 RES1   0.0000
    29 C12     -0.8503  -1.5407   2.1579   C.ar      1 RES1   0.0000
    30 H11     -1.5253  -2.1680   2.2869   H         1 RES1   0.0000
    31 C13      0.1227  -1.7914   1.2312   C.ar      1 RES1   0.0000
    32 H12      0.1003  -2.5864   0.7503   H         1 RES1   0.0000
    33 C14      1.1005  -0.9197   1.0010   C.ar      1 RES1   0.0000
    34 H13      1.7594  -1.1287   0.3787   H         1 RES1   0.0000
    35 C15      1.1584   0.2530   1.6471   C.ar      1 RES1   0.0000
    36 H14      1.8471   0.8480   1.4582   H         1 RES1   0.0000
    37 C16      0.1474   0.6096   2.6471   C.ar      1 RES1   0.0000
    38 C17      0.0958   1.7312   3.3530   C.ar      1 RES1   0.0000
    39 H15      0.7339   2.3892   3.1951   H         1 RES1   0.0000
    40 C18     -0.8646   1.9595   4.3055   C.ar      1 RES1   0.0000
    41 H16     -0.9011   2.7861   4.7297   H         1 RES1   0.0000
    42 C19      0.1806  -2.2429   9.5956   C.ar      1 RES1   0.0000
    43 H17      0.5160  -2.5873   8.7989   H         1 RES1   0.0000
    44 C20      0.8177  -2.5478  10.8247   C.ar      1 RES1   0.0000
    45 H18      1.6087  -3.0370  10.8154   H         1 RES1   0.0000
    46 C21      0.3205  -2.1600  11.9744   C.ar      1 RES1   0.0000
    47 H19      0.7252  -2.3909  12.7793   H         1 RES1   0.0000
    48 C22     -0.8217  -1.3987  11.9403   C.ar      1 RES1   0.0000
    49 H20     -1.2145  -1.1187  12.7350   H         1 RES1   0.0000
    50 C23     -1.3807  -1.0507  10.7556   C.ar      1 RES1   0.0000
    51 C24     -2.5585  -0.2059  10.6245   C.2       1 RES1   0.0000
    52 H21     -2.9951   0.1328  11.3717   H         1 RES1   0.0000
    53 C25     -4.2647   0.7748   9.3139   C.3       1 RES1   0.0000
    54 H22     -4.2071   1.3255   8.5048   H         1 RES1   0.0000
    55 C26     -4.6232   1.7171  10.4635   C.3       1 RES1   0.0000
    56 H23     -4.6635   1.2195  11.2840   H         1 RES1   0.0000
    57 H24     -5.4759   2.1212  10.2922   H         1 RES1   0.0000
    58 H25     -3.9527   2.3996  10.5378   H         1 RES1   0.0000
    59 C27     -5.3805  -0.2268   9.0817   C.ar      1 RES1   0.0000
    60 C28     -5.5226  -1.3340   9.8639   C.ar      1 RES1   0.0000
    61 H26     -4.9660  -1.4519  10.5997   H         1 RES1   0.0000
    62 C29     -6.5266  -2.3244   9.5657   C.ar      1 RES1   0.0000
    63 C30     -6.6509  -3.4801  10.3129   C.ar      1 RES1   0.0000
    64 H27     -6.1105  -3.6035  11.0600   H         1 RES1   0.0000
    65 C31     -7.5453  -4.4339   9.9733   C.ar      1 RES1   0.0000
    66 H28     -7.6156  -5.2086  10.4842   H         1 RES1   0.0000
    67 C32     -8.3779  -4.2551   8.8360   C.ar      1 RES1   0.0000
    68 H29     -8.9596  -4.9295   8.5677   H         1 RES1   0.0000
    69 C33     -8.3121  -3.0999   8.1539   C.ar      1 RES1   0.0000
    70 H30     -8.8938  -2.9658   7.4408   H         1 RES1   0.0000
    71 C34     -7.4065  -2.0995   8.4759   C.ar      1 RES1   0.0000
    72 C35     -7.2834  -0.9306   7.7628   C.ar      1 RES1   0.0000
    73 H31     -7.8722  -0.7795   7.0589   H         1 RES1   0.0000
    74 C36     -6.3180   0.0435   8.0455   C.ar      1 RES1   0.0000
    75 H32     -6.2892   0.8420   7.5698   H         1 RES1   0.0000
    76 C37     -0.5023  -2.6371   6.2044   C.ar      1 RES1   0.0000
    77 H33     -1.1771  -3.2331   6.4377   H         1 RES1   0.0000
    78 C38      0.4803  -3.0910   5.2901   C.ar      1 RES1   0.0000
    79 H34      0.4827  -3.9640   4.9701   H         1 RES1   0.0000
    80 C39      1.4253  -2.1799   4.9020   C.ar      1 RES1   0.0000
    81 H35      2.0727  -2.4150   4.2777   H         1 RES1   0.0000
    82 C40      1.4109  -0.9463   5.4273   C.ar      1 RES1   0.0000
    83 H36      2.0569  -0.3288   5.1704   H         1 RES1   0.0000
    84 C41      0.4200  -0.5733   6.3696   C.ar      1 RES1   0.0000
    85 C42      0.3228   0.6621   7.0517   C.2       1 RES1   0.0000
    86 H37      0.9166   1.3538   6.8659   H         1 RES1   0.0000
    87 C43     -0.6316   2.0532   8.7442   C.3       1 RES1   0.0000
    88 H38     -1.5721   2.2500   8.9341   H         1 RES1   0.0000
    89 C44     -0.0072   3.2853   8.1157   C.3       1 RES1   0.0000
    90 H39      0.9500   3.2250   8.1735   H         1 RES1   0.0000
    91 H40     -0.3069   4.0696   8.5811   H         1 RES1   0.0000
    92 H41     -0.2683   3.3414   7.1931   H         1 RES1   0.0000
    93 C45      0.0882   1.8086  10.0807   C.ar      1 RES1   0.0000
    94 C46      1.2858   1.1331  10.1498   C.ar      1 RES1   0.0000
    95 H42      1.6802   0.8284   9.3644   H         1 RES1   0.0000
    96 C47      1.9216   0.8968  11.3603   C.ar      1 RES1   0.0000
    97 C48      3.1329   0.2427  11.4697   C.ar      1 RES1   0.0000
    98 H43      3.5460  -0.0581  10.6926   H         1 RES1   0.0000
    99 C49      3.7634   0.0138  12.6813   C.ar      1 RES1   0.0000
   100 H44      4.6054  -0.3753  12.7360   H         1 RES1   0.0000
   101 C50      3.0892   0.3839  13.7546   C.ar      1 RES1   0.0000
   102 H45      3.4534   0.1538  14.5792   H         1 RES1   0.0000
   103 C51      1.9542   1.0441  13.7742   C.ar      1 RES1   0.0000
   104 H46      1.5827   1.3127  14.5833   H         1 RES1   0.0000
   105 C52      1.2855   1.3512  12.5358   C.ar      1 RES1   0.0000
   106 C53      0.0759   2.0671  12.4481   C.ar      1 RES1   0.0000
   107 H47     -0.3164   2.4048  13.2210   H         1 RES1   0.0000
   108 C54     -0.5254   2.2708  11.2468   C.ar      1 RES1   0.0000
   109 H48     -1.3417   2.7163  11.2014   H         1 RES1   0.0000
   110 Cl1     -4.0907   4.8575   8.0404   Cl        2 RES2   0.0000
   111 O1      -5.2161   3.9491   8.1797   O.3       2 RES2  -1.0000
   112 O2      -3.2383   3.8324   8.1219   O.2       2 RES2   0.0000
   113 O3      -4.1593   5.5612   6.9557   O.2       2 RES2   0.0000
   114 O4      -4.0210   5.9042   8.8959   O.2       2 RES2   0.0000
   115 Cl2      0.5225   5.9082   4.2715   Cl        3 RES3   0.0000
   116 O5       0.5093   5.5644   5.5089   O.3       3 RES3  -1.0000
   117 O6       1.5659   5.3752   3.7565   O.2       3 RES3   0.0000
   118 O7      -0.3665   5.4548   3.4717   O.2       3 RES3   0.0000
   119 O8       0.7984   7.1055   4.1693   O.2       3 RES3   0.0000
   120 N7       3.6623   1.2957   5.0775   N.1       4 RES4   0.0000
   121 C55      4.1511   3.7523   5.6451   C.3       4 RES4   0.0000
   122 H49      5.0926   3.8083   5.4996   H         4 RES4   0.0000
   123 H50      3.9475   4.0164   6.5512   H         4 RES4   0.0000
   124 H51      3.6911   4.3384   5.0383   H         4 RES4   0.0000
   125 C56      3.7676   2.3749   5.4139   C.1       4 RES4   0.0000
   126 N8       2.9781  10.2362   3.0651   N.1       5 RES5   0.0000
   127 C57      0.6771   9.7962   2.0743   C.3       5 RES5   0.0000
   128 H52     -0.0063   9.7401   2.7513   H         5 RES5   0.0000
   129 H53      0.8633   8.9219   1.7358   H         5 RES5   0.0000
   130 H54      0.3705  10.3615   1.3623   H         5 RES5   0.0000
   131 C58      1.9221  10.2240   2.6419   C.1       5 RES5   0.0000
@<TRIPOS>BOND
     1     1     2    1
     2     2     8   ar
     3     3     1    1
     4     4     1    1
     5     5     1    1
     6     6     1    1
     7     7     1    1
     8     8     9    1
     9    10     8   ar
    10    11    10    1
    11    12    10   ar
    12    13    12    1
    13    14    12   ar
    14    15    14    1
    15    16     2   ar
    16    17     3    2
    17    18    17    1
    18    19     3    1
    19    20    19    1
    20    21    19    1
    21    22    21    1
    22    23    21    1
    23    24    21    1
    24    25    19    1
    25    26    25   ar
    26    27    26    1
    27    28    26   ar
    28    29    28   ar
    29    30    29    1
    30    31    29   ar
    31    32    31    1
    32    33    31   ar
    33    34    33    1
    34    35    33   ar
    35    36    35    1
    36    37    28   ar
    37    38    37   ar
    38    39    38    1
    39    40    25   ar
    40    41    40    1
    41    42     4   ar
    42    43    42    1
    43    44    42   ar
    44    45    44    1
    45    46    44   ar
    46    47    46    1
    47    48    46   ar
    48    49    48    1
    49    50     4   ar
    50    51     5    2
    51    52    51    1
    52    53     5    1
    53    54    53    1
    54    55    53    1
    55    56    55    1
    56    57    55    1
    57    58    55    1
    58    59    53    1
    59    60    59   ar
    60    61    60    1
    61    62    60   ar
    62    63    62   ar
    63    64    63    1
    64    65    63   ar
    65    66    65    1
    66    67    65   ar
    67    68    67    1
    68    69    67   ar
    69    70    69    1
    70    71    62   ar
    71    72    71   ar
    72    73    72    1
    73    74    59   ar
    74    75    74    1
    75    76     6   ar
    76    77    76    1
    77    78    76   ar
    78    79    78    1
    79    80    78   ar
    80    81    80    1
    81    82    80   ar
    82    83    82    1
    83    84     6   ar
    84    85     7    2
    85    86    85    1
    86    87     7    1
    87    88    87    1
    88    89    87    1
    89    90    89    1
    90    91    89    1
    91    92    89    1
    92    93    87    1
    93    94    93   ar
    94    95    94    1
    95    96    94   ar
    96    97    96   ar
    97    98    97    1
    98    99    97   ar
    99   100    99    1
   100   101    99   ar
   101   102   101    1
   102   103   101   ar
   103   104   103    1
   104   105    96   ar
   105   106   105   ar
   106   107   106    1
   107   108    93   ar
   108   109   108    1
   109    14    16   ar
   110    16    17    1
   111    35    37   ar
   112    38    40   ar
   113    48    50   ar
   114    50    51    1
   115    69    71   ar
   116    72    74   ar
   117    82    84   ar
   118    84    85    1
   119   103   105   ar
   120   106   108   ar
   121   110   111    1
   122   112   110    2
   123   113   110    2
   124   114   110    2
   125   115   116    1
   126   117   115    2
   127   118   115    2
   128   119   115    2
   129   120   125    3
   130   121   122    1
   131   123   121    1
   132   124   121    1
   133   125   121    1
   134   126   131    3
   135   127   128    1
   136   129   127    1
   137   130   127    1
   138   131   127    1
@<TRIPOS>SUBSTRUCTURE
     1 RES1        1 GROUP             0 ****  ****    0  
     2 RES2      110 GROUP             0 ****  ****    0  
     3 RES3      115 GROUP             0 ****  ****    0  
     4 RES4      120 GROUP             0 ****  ****    0  
     5 RES5      126 GROUP             0 ****  ****    0  
@<TRIPOS>CRYSIN
   11.6890   11.8450   12.1830  106.1830  110.1740  107.9100     1     1
