@<TRIPOS>MOLECULE
XIBYOZ
   106   111     5     0     0
SMALL
USER_CHARGES
****
Generated from the CSD

@<TRIPOS>ATOM
     1 C1       5.2835   7.3073   5.3891   C.ar      1 RES1   0.0000
     2 H1       5.0185   7.6355   4.5379   H         1 RES1   0.0000
     3 C2       5.1347   5.9501   5.6537   C.ar      1 RES1   0.0000
     4 H2       4.7827   5.3737   4.9860   H         1 RES1   0.0000
     5 C3       5.5005   5.4321   6.8953   C.ar      1 RES1   0.0000
     6 C4       6.0398   6.3316   7.8168   C.ar      1 RES1   0.0000
     7 H3       6.3210   6.0268   8.6722   H         1 RES1   0.0000
     8 C5       6.1634   7.6647   7.4817   C.ar      1 RES1   0.0000
     9 C6       5.3028   3.9884   7.2601   C.3       1 RES1   0.0000
    10 H4       4.5689   3.9114   7.9048   H         1 RES1   0.0000
    11 H5       6.1263   3.6370   7.6591   H         1 RES1   0.0000
    12 H6       5.0854   3.4744   6.4542   H         1 RES1   0.0000
    13 C7       8.8100  10.8495   5.9275   C.ar      1 RES1   0.0000
    14 H7       8.6204  11.2203   5.0737   H         1 RES1   0.0000
    15 C8      10.0953  10.9845   6.4395   C.ar      1 RES1   0.0000
    16 H8      10.7547  11.4501   5.9383   H         1 RES1   0.0000
    17 C9      10.4245  10.4439   7.6798   C.ar      1 RES1   0.0000
    18 C10      9.4135   9.7479   8.3469   C.ar      1 RES1   0.0000
    19 H9       9.5926   9.3311   9.1811   H         1 RES1   0.0000
    20 C11      8.1507   9.6681   7.7888   C.ar      1 RES1   0.0000
    21 C12     11.7791  10.6336   8.2958   C.3       1 RES1   0.0000
    22 H10     12.3764  11.0587   7.6463   H         1 RES1   0.0000
    23 H11     12.1454   9.7625   8.5553   H         1 RES1   0.0000
    24 H12     11.7003  11.2040   9.0887   H         1 RES1   0.0000
    25 C13      4.2047  11.6145   7.6925   C.ar      1 RES1   0.0000
    26 H13      3.9652  12.0749   6.8964   H         1 RES1   0.0000
    27 C14      3.5516  11.9381   8.8673   C.ar      1 RES1   0.0000
    28 H14      2.8823  12.6118   8.8641   H         1 RES1   0.0000
    29 C15      3.8675  11.2850  10.0508   C.ar      1 RES1   0.0000
    30 C16      4.9133  10.3668  10.0009   C.ar      1 RES1   0.0000
    31 H15      5.2049   9.9328  10.7944   H         1 RES1   0.0000
    32 C17      5.5259  10.0887   8.7908   C.ar      1 RES1   0.0000
    33 C18      3.0949  11.5148  11.3209   C.3       1 RES1   0.0000
    34 H16      2.3627  12.1433  11.1489   H         1 RES1   0.0000
    35 H17      3.6916  11.8863  12.0040   H         1 RES1   0.0000
    36 H18      2.7265  10.6632  11.6379   H         1 RES1   0.0000
    37 Fe1      5.9508  10.1447   5.8493   Fe        1 RES1   2.0000
    38 N1       5.7882   8.1785   6.2880   N.ar      1 RES1   0.0000
    39 N2       7.8190  10.2142   6.5914   N.ar      1 RES1   0.0000
    40 N3       5.1726  10.6677   7.6302   N.ar      1 RES1   0.0000
    41 P1       6.8231   8.8379   8.6974   P.3       1 RES1   0.0000
    42 S1       7.3532   8.0721  10.3934   S.2       1 RES1   0.0000
    43 C1A      6.6181  12.9821   6.3096   C.ar      1 RES1   0.0000
    44 H1A      6.8831  12.6540   7.1608   H         1 RES1   0.0000
    45 C2A      6.7669  14.3394   6.0449   C.ar      1 RES1   0.0000
    46 H2A      7.1189  14.9158   6.7127   H         1 RES1   0.0000
    47 C3A      6.4011  14.8573   4.8034   C.ar      1 RES1   0.0000
    48 C4A      5.8618  13.9578   3.8819   C.ar      1 RES1   0.0000
    49 H3A      5.5806  14.2627   3.0265   H         1 RES1   0.0000
    50 C5A      5.7382  12.6248   4.2170   C.ar      1 RES1   0.0000
    51 C6A      6.5988  16.3010   4.4386   C.3       1 RES1   0.0000
    52 H4A      7.3327  16.3781   3.7939   H         1 RES1   0.0000
    53 H5A      5.7753  16.6525   4.0396   H         1 RES1   0.0000
    54 H6A      6.8161  16.8151   5.2445   H         1 RES1   0.0000
    55 C7A      3.0916   9.4400   5.7712   C.ar      1 RES1   0.0000
    56 H7A      3.2812   9.0692   6.6250   H         1 RES1   0.0000
    57 C8A      1.8063   9.3050   5.2591   C.ar      1 RES1   0.0000
    58 H8A      1.1469   8.8394   5.7604   H         1 RES1   0.0000
    59 C9A      1.4771   9.8456   4.0189   C.ar      1 RES1   0.0000
    60 C10A     2.4881  10.5415   3.3518   C.ar      1 RES1   0.0000
    61 H9A      2.3090  10.9583   2.5176   H         1 RES1   0.0000
    62 C11A     3.7509  10.6214   3.9099   C.ar      1 RES1   0.0000
    63 C12A     0.1225   9.6559   3.4029   C.3       1 RES1   0.0000
    64 H10A    -0.4748   9.2308   4.0524   H         1 RES1   0.0000
    65 H11A    -0.2438  10.5270   3.1434   H         1 RES1   0.0000
    66 H12A     0.2013   9.0854   2.6100   H         1 RES1   0.0000
    67 C13A     7.6969   8.6749   4.0062   C.ar      1 RES1   0.0000
    68 H13A     7.9364   8.2145   4.8023   H         1 RES1   0.0000
    69 C14A     8.3500   8.3514   2.8314   C.ar      1 RES1   0.0000
    70 H14A     9.0193   7.6776   2.8346   H         1 RES1   0.0000
    71 C15A     8.0341   9.0045   1.6479   C.ar      1 RES1   0.0000
    72 C16A     6.9883   9.9227   1.6978   C.ar      1 RES1   0.0000
    73 H15A     6.6967  10.3567   0.9043   H         1 RES1   0.0000
    74 C17A     6.3757  10.2007   2.9079   C.ar      1 RES1   0.0000
    75 C18A     8.8067   8.7746   0.3778   C.3       1 RES1   0.0000
    76 H16A     9.5389   8.1462   0.5498   H         1 RES1   0.0000
    77 H17A     8.2100   8.4032  -0.3053   H         1 RES1   0.0000
    78 H18A     9.1751   9.6263   0.0608   H         1 RES1   0.0000
    79 N1A      6.1134  12.1110   5.4106   N.ar      1 RES1   0.0000
    80 N2A      4.0826  10.0753   5.1073   N.ar      1 RES1   0.0000
    81 N3A      6.7290   9.6218   4.0685   N.ar      1 RES1   0.0000
    82 P1A      5.0784  11.4515   3.0013   P.3       1 RES1   0.0000
    83 S1A      4.5484  12.2174   1.3053   S.2       1 RES1   0.0000
    84 C19      4.6033   2.6177  11.3138   C.3       2 RES2   0.0000
    85 H19      5.0275   3.4790  11.1149   H         2 RES2   0.0000
    86 H20      5.2876   1.9162  11.3431   H         2 RES2   0.0000
    87 H21      4.1510   2.6697  12.1819   H         2 RES2   0.0000
    88 C20      3.6350   2.3065  10.2832   C.1       2 RES2   0.0000
    89 N4       2.8697   2.0677   9.4851   N.1       2 RES2   0.0000
    90 C21      8.2550   4.2302   3.7354   C.3       3 RES3   0.0000
    91 H22      9.0969   4.6943   3.5435   H         3 RES3   0.0000
    92 H23      7.5255   4.8829   3.7775   H         3 RES3   0.0000
    93 H24      8.0711   3.5793   3.0265   H         3 RES3   0.0000
    94 C22      8.3627   3.5410   5.0106   C.1       3 RES3   0.0000
    95 N5       8.4400   3.0017   6.0061   N.1       3 RES3   0.0000
    96 C23      6.4144   5.7294   0.8037   C.3       4 RES4   0.0000
    97 H25      5.7921   5.4281   1.4986   H         4 RES4   0.0000
    98 H26      6.3731   6.7059   0.7300   H         4 RES4   0.0000
    99 H27      7.3254   5.4576   1.0412   H         4 RES4   0.0000
   100 C24      6.0479   5.1341  -0.4644   C.1       4 RES4   0.0000
   101 N6       5.7616   4.6476  -1.4775   N.1       4 RES4   0.0000
   102 Cl1      4.6196   2.8891   2.8101   Cl        5 RES5   0.0000
   103 O1       5.5816   2.6734   1.7880   O.2       5 RES5   0.0000
   104 O2       5.2777   2.8216   4.0899   O.3       5 RES5  -1.0000
   105 O3       3.6058   1.8674   2.7707   O.2       5 RES5   0.0000
   106 O4       4.0280   4.1839   2.6510   O.2       5 RES5   0.0000
@<TRIPOS>BOND
     1     1     2    1
     2     3     1   ar
     3     4     3    1
     4     5     3   ar
     5     6     5   ar
     6     7     6    1
     7     8     6   ar
     8     9     5    1
     9    10     9    1
    10    11     9    1
    11    12     9    1
    12    13    14    1
    13    15    13   ar
    14    16    15    1
    15    17    15   ar
    16    18    17   ar
    17    19    18    1
    18    20    18   ar
    19    21    17    1
    20    22    21    1
    21    23    21    1
    22    24    21    1
    23    25    26    1
    24    27    25   ar
    25    28    27    1
    26    29    27   ar
    27    30    29   ar
    28    31    30    1
    29    32    30   ar
    30    33    29    1
    31    34    33    1
    32    35    33    1
    33    36    33    1
    34    37    38    1
    35    38     1   ar
    36    39    13   ar
    37    40    25   ar
    38    41     8    1
    39    42    41    2
    40    43    44    1
    41    45    43   ar
    42    46    45    1
    43    47    45   ar
    44    48    47   ar
    45    49    48    1
    46    50    48   ar
    47    51    47    1
    48    52    51    1
    49    53    51    1
    50    54    51    1
    51    55    56    1
    52    57    55   ar
    53    58    57    1
    54    59    57   ar
    55    60    59   ar
    56    61    60    1
    57    62    60   ar
    58    63    59    1
    59    64    63    1
    60    65    63    1
    61    66    63    1
    62    67    68    1
    63    69    67   ar
    64    70    69    1
    65    71    69   ar
    66    72    71   ar
    67    73    72    1
    68    74    72   ar
    69    75    71    1
    70    76    75    1
    71    77    75    1
    72    78    75    1
    73    79    37    1
    74    80    37    1
    75    81    37    1
    76    82    50    1
    77    83    82    2
    78     8    38   ar
    79    20    39   ar
    80    20    41    1
    81    32    40   ar
    82    32    41    1
    83    37    39    1
    84    37    40    1
    85    43    79   ar
    86    50    79   ar
    87    55    80   ar
    88    62    80   ar
    89    62    82    1
    90    67    81   ar
    91    74    81   ar
    92    74    82    1
    93    84    85    1
    94    86    84    1
    95    87    84    1
    96    88    84    1
    97    89    88    3
    98    90    91    1
    99    92    90    1
   100    93    90    1
   101    94    90    1
   102    95    94    3
   103    96    97    1
   104    98    96    1
   105    99    96    1
   106   100    96    1
   107   101   100    3
   108   102   103    2
   109   104   102    1
   110   105   102    2
   111   106   102    2
@<TRIPOS>SUBSTRUCTURE
     1 RES1        1 GROUP             0 ****  ****    0  
     2 RES2       84 GROUP             0 ****  ****    0  
     3 RES3       90 GROUP             0 ****  ****    0  
     4 RES4       96 GROUP             0 ****  ****    0  
     5 RES5      102 GROUP             0 ****  ****    0  
@<TRIPOS>CRYSIN
   11.2851   11.5247   11.8662   88.1050   80.6610   64.3540     2     1
