@<TRIPOS>MOLECULE
XIDPOS
   105   117     2     0     0
SMALL
USER_CHARGES
****
Generated from the CSD

@<TRIPOS>ATOM
     1 Fe1     15.4691   7.7609  13.6275   Fe        1 RES1   1.0000
     2 F1       9.9950   7.6117   6.4894   F         1 RES1   0.0000
     3 F2       8.6682   4.3365  18.3918   F         1 RES1   0.0000
     4 F3      21.5672   4.7519  19.4465   F         1 RES1   0.0000
     5 F4      20.9853  13.9106  10.0152   F         1 RES1   0.0000
     6 N1      15.5596   8.6659  11.8737   N.2       1 RES1   0.0000
     7 N2      13.6646   7.0960  13.1915   N.2       1 RES1   0.0000
     8 N3      15.3664   6.8757  15.3793   N.2       1 RES1   0.0000
     9 N4      17.2781   8.3942  14.0576   N.2       1 RES1   0.0000
    10 N5      14.6557   9.3832  14.4784   N.ar      1 RES1   0.0000
    11 N6      13.3094  11.4153  15.8524   N.ar      1 RES1   0.0000
    12 N7      16.2578   6.0954  12.8656   N.ar      1 RES1   0.0000
    13 N8      17.4220   3.7414  11.9056   N.ar      1 RES1   0.0000
    14 C1      16.1979  10.0412  10.1451   C.2       1 RES1   0.0000
    15 H1      16.6743  10.6696   9.6541   H         1 RES1   0.0000
    16 C2      15.0982   9.3810   9.7378   C.2       1 RES1   0.0000
    17 H2      14.6831   9.4615   8.9090   H         1 RES1   0.0000
    18 C3      14.6864   8.5276  10.8181   C.2       1 RES1   0.0000
    19 C4      13.5240   7.7626  10.8264   C.2       1 RES1   0.0000
    20 C5      13.0669   7.0723  11.9473   C.2       1 RES1   0.0000
    21 C6      11.8341   6.3431  12.0182   C.2       1 RES1   0.0000
    22 H3      11.2732   6.1396  11.3052   H         1 RES1   0.0000
    23 C7      11.6407   6.0065  13.3125   C.2       1 RES1   0.0000
    24 H4      10.9059   5.5552  13.6622   H         1 RES1   0.0000
    25 C8      12.7730   6.4737  14.0435   C.2       1 RES1   0.0000
    26 C9      12.9889   6.2649  15.4069   C.2       1 RES1   0.0000
    27 C10     14.2181   6.4304  16.0115   C.2       1 RES1   0.0000
    28 C11     14.5573   5.9725  17.3325   C.2       1 RES1   0.0000
    29 H5      13.9621   5.6646  17.9766   H         1 RES1   0.0000
    30 C12     15.8920   6.0702  17.4681   C.2       1 RES1   0.0000
    31 H6      16.3924   5.8167  18.2112   H         1 RES1   0.0000
    32 C13     16.3987   6.6377  16.2535   C.2       1 RES1   0.0000
    33 C14     17.7292   7.0130  16.0473   C.2       1 RES1   0.0000
    34 C15     18.1085   7.8974  15.0426   C.2       1 RES1   0.0000
    35 C16     19.3977   8.5201  14.9418   C.2       1 RES1   0.0000
    36 H7      20.1414   8.3371  15.4697   H         1 RES1   0.0000
    37 C17     19.3307   9.4196  13.9370   C.2       1 RES1   0.0000
    38 H8      20.0110   9.9946  13.6687   H         1 RES1   0.0000
    39 C18     18.0303   9.3268  13.3627   C.2       1 RES1   0.0000
    40 C19     17.6328   9.9630  12.1878   C.2       1 RES1   0.0000
    41 C20     16.4989   9.5999  11.4738   C.2       1 RES1   0.0000
    42 C21     12.6326   7.7727   9.6296   C.ar      1 RES1   0.0000
    43 C22     12.9834   7.1345   8.4528   C.ar      1 RES1   0.0000
    44 H9      13.8190   6.7308   8.3811   H         1 RES1   0.0000
    45 C23     12.1104   7.0880   7.3859   C.ar      1 RES1   0.0000
    46 H10     12.3480   6.6642   6.5932   H         1 RES1   0.0000
    47 C24     10.8871   7.6819   7.5269   C.ar      1 RES1   0.0000
    48 C25     10.5064   8.3475   8.6472   C.ar      1 RES1   0.0000
    49 H11      9.6743   8.7574   8.7005   H         1 RES1   0.0000
    50 C26     11.3942   8.3978   9.7037   C.ar      1 RES1   0.0000
    51 H12     11.1604   8.8566  10.4775   H         1 RES1   0.0000
    52 C27     11.5185   4.3943  16.1903   C.ar      1 RES1   0.0000
    53 H13     12.0275   3.8054  15.6826   H         1 RES1   0.0000
    54 C28     10.4334   3.9184  16.9215   C.ar      1 RES1   0.0000
    55 H14     10.2044   3.0160  16.9035   H         1 RES1   0.0000
    56 C29      9.7161   4.8013  17.6616   C.ar      1 RES1   0.0000
    57 C30     10.0024   6.1242  17.7083   C.ar      1 RES1   0.0000
    58 H15      9.4896   6.7035  18.2221   H         1 RES1   0.0000
    59 C31     11.0779   6.5945  16.9721   C.ar      1 RES1   0.0000
    60 H16     11.2854   7.5015  16.9903   H         1 RES1   0.0000
    61 C32     11.8437   5.7343  16.2148   C.ar      1 RES1   0.0000
    62 C33     18.7589   6.4474  16.9725   C.ar      1 RES1   0.0000
    63 C34     19.0483   5.0918  16.8935   C.ar      1 RES1   0.0000
    64 H17     18.5994   4.5624  16.2735   H         1 RES1   0.0000
    65 C35     19.9942   4.5168  17.7240   C.ar      1 RES1   0.0000
    66 H18     20.1886   3.6089  17.6660   H         1 RES1   0.0000
    67 C36     20.6342   5.3124  18.6316   C.ar      1 RES1   0.0000
    68 C37     20.3588   6.6352  18.7615   C.ar      1 RES1   0.0000
    69 H19     20.7981   7.1478  19.4017   H         1 RES1   0.0000
    70 C38     19.4138   7.2084  17.9251   C.ar      1 RES1   0.0000
    71 H20     19.2175   8.1132  18.0049   H         1 RES1   0.0000
    72 C39     18.5324  11.0096  11.6028   C.ar      1 RES1   0.0000
    73 C40     19.5454  10.6849  10.7380   C.ar      1 RES1   0.0000
    74 H21     19.6812   9.7947  10.5079   H         1 RES1   0.0000
    75 C41     20.3687  11.6542  10.2025   C.ar      1 RES1   0.0000
    76 H22     21.0518  11.4214   9.6150   H         1 RES1   0.0000
    77 C42     20.1724  12.9400  10.5418   C.ar      1 RES1   0.0000
    78 C43     19.1838  13.3209  11.3756   C.ar      1 RES1   0.0000
    79 H23     19.0563  14.2170  11.5898   H         1 RES1   0.0000
    80 C44     18.3585  12.3310  11.9087   C.ar      1 RES1   0.0000
    81 H24     17.6721  12.5765  12.4870   H         1 RES1   0.0000
    82 C45     13.5835   9.9961  13.9572   C.ar      1 RES1   0.0000
    83 H25     13.2799   9.7451  13.1148   H         1 RES1   0.0000
    84 C46     12.9270  10.9888  14.6448   C.ar      1 RES1   0.0000
    85 H26     12.1810  11.3821  14.2509   H         1 RES1   0.0000
    86 C47     14.4090  10.8421  16.3345   C.ar      1 RES1   0.0000
    87 H27     14.7399  11.1326  17.1533   H         1 RES1   0.0000
    88 C48     15.0818   9.8321  15.6676   C.ar      1 RES1   0.0000
    89 H28     15.8429   9.4580  16.0519   H         1 RES1   0.0000
    90 C49     17.3485   6.1213  12.0716   C.ar      1 RES1   0.0000
    91 H29     17.7256   6.9376  11.8309   H         1 RES1   0.0000
    92 C50     17.9096   4.9462  11.6130   C.ar      1 RES1   0.0000
    93 H30     18.6654   4.9982  11.0727   H         1 RES1   0.0000
    94 C51     16.3338   3.7395  12.6738   C.ar      1 RES1   0.0000
    95 H31     15.9498   2.9220  12.8975   H         1 RES1   0.0000
    96 C52     15.7478   4.8915  13.1528   C.ar      1 RES1   0.0000
    97 H32     14.9856   4.8307  13.6840   H         1 RES1   0.0000
    98 S1      19.4517   6.8918   8.5286   S.o2      2 RES2   0.0000
    99 F5      21.0963   5.8002  10.2314   F         2 RES2   0.0000
   100 F6      21.9301   6.1441   8.2997   F         2 RES2   0.0000
   101 F7      21.6719   7.7616   9.6213   F         2 RES2   0.0000
   102 O1      19.0020   5.5643   8.2351   O.3       2 RES2  -1.0000
   103 O2      18.7602   7.5075   9.6179   O.2       2 RES2   0.0000
   104 O3      19.6730   7.7125   7.3881   O.2       2 RES2   0.0000
   105 C53     21.1123   6.6314   9.2075   C.3       2 RES2   0.0000
@<TRIPOS>BOND
     1     1     6    1
     2     2    47    1
     3     3    56    1
     4     4    67    1
     5     5    77    1
     6     6    18    1
     7     7     1    1
     8     8     1    1
     9     9     1    1
    10    10     1    1
    11    11    84   ar
    12    12     1    1
    13    13    92   ar
    14    14    15    1
    15    16    14    2
    16    17    16    1
    17    18    16    1
    18    19    18    2
    19    20     7    1
    20    21    20    2
    21    22    21    1
    22    23    21    1
    23    24    23    1
    24    25     7    1
    25    26    25    1
    26    27     8    1
    27    28    27    1
    28    29    28    1
    29    30    28    2
    30    31    30    1
    31    32     8    2
    32    33    32    1
    33    34     9    1
    34    35    34    1
    35    36    35    1
    36    37    35    2
    37    38    37    1
    38    39     9    1
    39    40    39    2
    40    41     6    2
    41    42    19    1
    42    43    42   ar
    43    44    43    1
    44    45    43   ar
    45    46    45    1
    46    47    45   ar
    47    48    47   ar
    48    49    48    1
    49    50    42   ar
    50    51    50    1
    51    52    53    1
    52    54    52   ar
    53    55    54    1
    54    56    54   ar
    55    57    56   ar
    56    58    57    1
    57    59    57   ar
    58    60    59    1
    59    61    26    1
    60    62    33    1
    61    63    62   ar
    62    64    63    1
    63    65    63   ar
    64    66    65    1
    65    67    65   ar
    66    68    67   ar
    67    69    68    1
    68    70    62   ar
    69    71    70    1
    70    72    40    1
    71    73    72   ar
    72    74    73    1
    73    75    73   ar
    74    76    75    1
    75    77    75   ar
    76    78    77   ar
    77    79    78    1
    78    80    72   ar
    79    81    80    1
    80    82    10   ar
    81    83    82    1
    82    84    82   ar
    83    85    84    1
    84    86    11   ar
    85    87    86    1
    86    88    10   ar
    87    89    88    1
    88    90    12   ar
    89    91    90    1
    90    92    90   ar
    91    93    92    1
    92    94    13   ar
    93    95    94    1
    94    96    12   ar
    95    97    96    1
    96    14    41    1
    97    19    20    1
    98    23    25    2
    99    26    27    2
   100    30    32    1
   101    33    34    2
   102    37    39    1
   103    40    41    1
   104    48    50   ar
   105    52    61   ar
   106    59    61   ar
   107    68    70   ar
   108    78    80   ar
   109    86    88   ar
   110    94    96   ar
   111    98   102    1
   112    99   105    1
   113   100   105    1
   114   101   105    1
   115   103    98    2
   116   104    98    2
   117   105    98    1
@<TRIPOS>SUBSTRUCTURE
     1 RES1        1 GROUP             0 ****  ****    0  
     2 RES2       98 GROUP             0 ****  ****    0  
@<TRIPOS>CRYSIN
   25.0460   17.0877   22.3507   90.0000  103.6000   90.0000    15     1
