@<TRIPOS>MOLECULE
XIFQUB
   130   141     4     0     0
SMALL
NO_CHARGES
****
Generated from the CSD

@<TRIPOS>ATOM
     1 Fe1      4.6353   5.6377   2.1507   Fe        1 RES1   0.0000
     2 F1       8.2295   7.3980   3.8174   F         1 RES1   0.0000
     3 F2       1.0455   3.8751   0.4835   F         1 RES1   0.0000
     4 O1       5.9521   7.1961   4.1989   O.3       1 RES1   0.0000
     5 O2       2.1357   4.2335   2.4829   O.3       1 RES1   0.0000
     6 O3       6.9018   7.4063   1.9447   O.3       1 RES1   0.0000
     7 O4       2.1838   5.8774   0.6563   O.3       1 RES1   0.0000
     8 O5       7.2892   5.3687   3.2418   O.3       1 RES1   0.0000
     9 O6       3.3498   3.7393   0.4178   O.3       1 RES1   0.0000
    10 O7       4.0790   6.9362  12.6278   O.3       1 RES1   0.0000
    11 O8      -3.7839   3.8307   8.1653   O.3       1 RES1   0.0000
    12 N1       4.8177   6.4927   3.8559   N.2       1 RES1   0.0000
    13 N2       3.1423   4.9286   3.1045   N.2       1 RES1   0.0000
    14 N3       5.6775   7.0472   1.4225   N.2       1 RES1   0.0000
    15 N4       3.3843   6.4587   0.9656   N.2       1 RES1   0.0000
    16 N5       6.2732   4.7385   2.5649   N.2       1 RES1   0.0000
    17 N6       4.5122   4.0798   1.0686   N.2       1 RES1   0.0000
    18 C1       4.0121   6.1494   4.8345   C.2       1 RES1   0.0000
    19 C2       2.9439   5.2857   4.3443   C.2       1 RES1   0.0000
    20 C3       5.1239   7.8819   0.5829   C.2       1 RES1   0.0000
    21 C4       3.7784   7.4637   0.2117   C.2       1 RES1   0.0000
    22 C5       6.5339   3.5741   2.0082   C.2       1 RES1   0.0000
    23 C6       5.4311   3.1569   1.1726   C.2       1 RES1   0.0000
    24 C7       7.7580   2.7673   2.2430   C.ar      1 RES1   0.0000
    25 C8       8.3125   2.6885   3.5229   C.ar      1 RES1   0.0000
    26 H1       7.9601   3.2218   4.2264   H         1 RES1   0.0000
    27 C9       9.3787   1.8336   3.7671   C.ar      1 RES1   0.0000
    28 H2       9.7458   1.7740   4.6402   H         1 RES1   0.0000
    29 C10      9.9086   1.0651   2.7431   C.ar      1 RES1   0.0000
    30 H3      10.6268   0.4674   2.9184   H         1 RES1   0.0000
    31 C11      9.3906   1.1701   1.4657   C.ar      1 RES1   0.0000
    32 H4       9.7748   0.6682   0.7565   H         1 RES1   0.0000
    33 C12      8.3101   2.0070   1.2170   C.ar      1 RES1   0.0000
    34 H5       7.9468   2.0611   0.3407   H         1 RES1   0.0000
    35 C13      5.2901   1.8426   0.4940   C.ar      1 RES1   0.0000
    36 C14      5.2880   0.6632   1.2118   C.ar      1 RES1   0.0000
    37 H6       5.3864   0.6855   2.1558   H         1 RES1   0.0000
    38 C15      5.1420  -0.5568   0.5630   C.ar      1 RES1   0.0000
    39 H7       5.1465  -1.3662   1.0607   H         1 RES1   0.0000
    40 C16      4.9938  -0.5898  -0.8118   C.ar      1 RES1   0.0000
    41 H8       4.8881  -1.4211  -1.2574   H         1 RES1   0.0000
    42 C17      5.0021   0.5945  -1.5423   C.ar      1 RES1   0.0000
    43 H9       4.9072   0.5694  -2.4864   H         1 RES1   0.0000
    44 C18      5.1432   1.8007  -0.8956   C.ar      1 RES1   0.0000
    45 H10      5.1429   2.6085  -1.3953   H         1 RES1   0.0000
    46 C19      2.9902   8.0742  -0.8741   C.ar      1 RES1   0.0000
    47 C20      1.6706   8.4702  -0.6749   C.ar      1 RES1   0.0000
    48 H11      1.2410   8.2914   0.1541   H         1 RES1   0.0000
    49 C21      0.9822   9.1275  -1.6863   C.ar      1 RES1   0.0000
    50 H12      0.0849   9.4067  -1.5413   H         1 RES1   0.0000
    51 C22      1.5921   9.3769  -2.9001   C.ar      1 RES1   0.0000
    52 H13      1.1184   9.8364  -3.5836   H         1 RES1   0.0000
    53 C23      2.8901   8.9612  -3.1218   C.ar      1 RES1   0.0000
    54 H14      3.2975   9.1102  -3.9669   H         1 RES1   0.0000
    55 C24      3.5994   8.3243  -2.1114   C.ar      1 RES1   0.0000
    56 H15      4.5000   8.0593  -2.2592   H         1 RES1   0.0000
    57 C25      5.7468   9.1259   0.1042   C.ar      1 RES1   0.0000
    58 C26      5.0060  10.2992   0.1416   C.ar      1 RES1   0.0000
    59 H16      4.1280  10.2960   0.5030   H         1 RES1   0.0000
    60 C27      5.5510  11.4819  -0.3529   C.ar      1 RES1   0.0000
    61 H17      5.0540  12.2897  -0.3143   H         1 RES1   0.0000
    62 C28      6.8133  11.4740  -0.8964   C.ar      1 RES1   0.0000
    63 H18      7.1702  12.2756  -1.2594   H         1 RES1   0.0000
    64 C29      7.5661  10.3243  -0.9211   C.ar      1 RES1   0.0000
    65 H19      8.4461  10.3399  -1.2797   H         1 RES1   0.0000
    66 C30      7.0396   9.1384  -0.4212   C.ar      1 RES1   0.0000
    67 H20      7.5575   8.3416  -0.4381   H         1 RES1   0.0000
    68 C31      4.1367   6.5174   6.2474   C.ar      1 RES1   0.0000
    69 C32      4.3270   7.8695   6.6623   C.ar      1 RES1   0.0000
    70 H21      4.4383   8.5518   6.0111   H         1 RES1   0.0000
    71 C33      4.3515   8.1879   7.9966   C.ar      1 RES1   0.0000
    72 H22      4.4621   9.0945   8.2582   H         1 RES1   0.0000
    73 C34      4.2162   7.1997   8.9792   C.ar      1 RES1   0.0000
    74 C35      4.2255   7.5040  10.3836   C.ar      1 RES1   0.0000
    75 H23      4.3169   8.4043  10.6736   H         1 RES1   0.0000
    76 C36      4.0998   6.5080  11.3023   C.ar      1 RES1   0.0000
    77 C37      3.9818   5.1590  10.9109   C.ar      1 RES1   0.0000
    78 H24      3.9120   4.4720  11.5619   H         1 RES1   0.0000
    79 C38      3.9696   4.8594   9.5860   C.ar      1 RES1   0.0000
    80 H25      3.8916   3.9512   9.3209   H         1 RES1   0.0000
    81 C39      4.0662   5.8507   8.5967   C.ar      1 RES1   0.0000
    82 C40      4.0056   5.5480   7.1977   C.ar      1 RES1   0.0000
    83 H26      3.8738   4.6476   6.9237   H         1 RES1   0.0000
    84 C41      4.0981   5.9480  13.6690   C.3       1 RES1   0.0000
    85 H27      4.4668   6.3558  14.4924   H         1 RES1   0.0000
    86 H28      4.7009   5.2108  13.3993   H         1 RES1   0.0000
    87 C42      2.7286   5.3786  13.9753   C.3       1 RES1   0.0000
    88 H29      2.3657   4.9472  13.1742   H         1 RES1   0.0000
    89 H30      2.1299   6.1017  14.2551   H         1 RES1   0.0000
    90 H31      2.8020   4.7182  14.6972   H         1 RES1   0.0000
    91 C43      1.7698   4.8343   5.1322   C.ar      1 RES1   0.0000
    92 C44      0.8697   5.7033   5.6647   C.ar      1 RES1   0.0000
    93 H32      1.0112   6.6381   5.5710   H         1 RES1   0.0000
    94 C45     -0.2885   5.2296   6.3652   C.ar      1 RES1   0.0000
    95 C46     -1.2916   6.0844   6.8351   C.ar      1 RES1   0.0000
    96 H33     -1.1892   7.0240   6.7351   H         1 RES1   0.0000
    97 C47     -2.4190   5.5872   7.4370   C.ar      1 RES1   0.0000
    98 H34     -3.0922   6.1848   7.7451   H         1 RES1   0.0000
    99 C48     -2.5925   4.1943   7.6046   C.ar      1 RES1   0.0000
   100 C49     -1.6180   3.3206   7.1799   C.ar      1 RES1   0.0000
   101 H35     -1.7234   2.3858   7.3111   H         1 RES1   0.0000
   102 C50     -0.4472   3.8367   6.5398   C.ar      1 RES1   0.0000
   103 C51      0.5338   2.9520   6.0221   C.ar      1 RES1   0.0000
   104 H36      0.4505   2.0172   6.1693   H         1 RES1   0.0000
   105 C52      1.5893   3.4320   5.3161   C.ar      1 RES1   0.0000
   106 H37      2.2157   2.8265   4.9403   H         1 RES1   0.0000
   107 C53     -4.1280   2.4360   8.0870   C.3       1 RES1   0.0000
   108 H38     -3.5459   1.9058   8.6881   H         1 RES1   0.0000
   109 H39     -4.0043   2.1050   7.1610   H         1 RES1   0.0000
   110 C54     -5.5471   2.2964   8.4955   C.3       1 RES1   0.0000
   111 H40     -6.1123   2.8265   7.8952   H         1 RES1   0.0000
   112 H41     -5.6532   2.6179   9.4142   H         1 RES1   0.0000
   113 H42     -5.8094   1.3537   8.4448   H         1 RES1   0.0000
   114 B1       7.0927   6.8468   3.3102   B         1 RES1   0.0000
   115 B2       2.1787   4.4233   1.0112   B         1 RES1   0.0000
   116 Cl1      8.5264   2.9341   7.4117   Cl        2 RES2   0.0000
   117 Cl2      7.8460   5.5496   6.3691   Cl        2 RES2   0.0000
   118 C55      7.9220   4.5724   7.7613   C.3       2 RES2   0.0000
   119 H43      7.0167   4.5065   8.1609   H         2 RES2   0.0000
   120 H44      8.5159   5.0021   8.4265   H         2 RES2   0.0000
   121 Cl3      2.0514   8.6206   3.1013   Cl        3 RES3   0.0000
   122 Cl4      0.7381  10.1580   5.1683   Cl        3 RES3   0.0000
   123 C56      0.5769   9.4286   3.5917   C.3       3 RES3   0.0000
   124 H45      0.3513  10.1282   2.9285   H         3 RES3   0.0000
   125 H46     -0.1665   8.7730   3.6099   H         3 RES3   0.0000
   126 Cl5     11.5394   7.5670   4.5594   Cl        4 RES4   0.0000
   127 Cl6     12.0395   4.9389   5.6321   Cl        4 RES4   0.0000
   128 C57     11.1514   5.8758   4.4516   C.3       4 RES4   0.0000
   129 H47     11.3672   5.5480   3.5430   H         4 RES4   0.0000
   130 H48     10.1795   5.7535   4.5976   H         4 RES4   0.0000
@<TRIPOS>BOND
     1     1    12    1
     2     2   114    1
     3     3   115    1
     4     4    12    1
     5     5    13    1
     6     6    14    1
     7     7    15    1
     8     8    16    1
     9     9    17    1
    10    10    76    1
    11    11    99    1
    12    12    18    2
    13    13     1    1
    14    14     1    1
    15    15     1    1
    16    16     1    1
    17    17     1    1
    18    18    19    1
    19    19    13    2
    20    20    14    2
    21    21    15    2
    22    22    16    2
    23    23    17    2
    24    24    22    1
    25    25    24   ar
    26    26    25    1
    27    27    25   ar
    28    28    27    1
    29    29    27   ar
    30    30    29    1
    31    31    29   ar
    32    32    31    1
    33    33    24   ar
    34    34    33    1
    35    35    23    1
    36    36    35   ar
    37    37    36    1
    38    38    36   ar
    39    39    38    1
    40    40    38   ar
    41    41    40    1
    42    42    40   ar
    43    43    42    1
    44    44    35   ar
    45    45    44    1
    46    46    21    1
    47    47    46   ar
    48    48    47    1
    49    49    47   ar
    50    50    49    1
    51    51    49   ar
    52    52    51    1
    53    53    51   ar
    54    54    53    1
    55    55    46   ar
    56    56    55    1
    57    57    20    1
    58    58    57   ar
    59    59    58    1
    60    60    58   ar
    61    61    60    1
    62    62    60   ar
    63    63    62    1
    64    64    62   ar
    65    65    64    1
    66    66    57   ar
    67    67    66    1
    68    68    18    1
    69    69    68   ar
    70    70    69    1
    71    71    69   ar
    72    72    71    1
    73    73    71   ar
    74    74    73   ar
    75    75    74    1
    76    76    74   ar
    77    77    76   ar
    78    78    77    1
    79    79    77   ar
    80    80    79    1
    81    81    73   ar
    82    82    68   ar
    83    83    82    1
    84    84    10    1
    85    85    84    1
    86    86    84    1
    87    87    84    1
    88    88    87    1
    89    89    87    1
    90    90    87    1
    91    91    19    1
    92    92    91   ar
    93    93    92    1
    94    94    92   ar
    95    95    94   ar
    96    96    95    1
    97    97    95   ar
    98    98    97    1
    99    99    97   ar
   100   100    99   ar
   101   101   100    1
   102   102    94   ar
   103   103   102   ar
   104   104   103    1
   105   105    91   ar
   106   106   105    1
   107   107    11    1
   108   108   107    1
   109   109   107    1
   110   110   107    1
   111   111   110    1
   112   112   110    1
   113   113   110    1
   114   114     4    1
   115   115     5    1
   116     6   114    1
   117     7   115    1
   118     8   114    1
   119     9   115    1
   120    20    21    1
   121    22    23    1
   122    31    33   ar
   123    42    44   ar
   124    53    55   ar
   125    64    66   ar
   126    79    81   ar
   127    81    82   ar
   128   100   102   ar
   129   103   105   ar
   130   116   118    1
   131   117   118    1
   132   118   119    1
   133   120   118    1
   134   121   123    1
   135   122   123    1
   136   123   124    1
   137   125   123    1
   138   126   128    1
   139   127   128    1
   140   128   129    1
   141   130   128    1
@<TRIPOS>SUBSTRUCTURE
     1 RES1        1 GROUP             0 ****  ****    0  
     2 RES2      116 GROUP             0 ****  ****    0  
     3 RES3      121 GROUP             0 ****  ****    0  
     4 RES4      126 GROUP             0 ****  ****    0  
@<TRIPOS>CRYSIN
   17.9086   15.6856   31.4560   90.0000  139.8550   90.0000    14     1
