@<TRIPOS>MOLECULE
XILJAD02
   162   172     4     0     0
SMALL
USER_CHARGES
****
Generated from the CSD

@<TRIPOS>ATOM
     1 Fe1      6.3319   6.3687   4.0169   Fe        1 RES1   1.0000
     2 N1       8.2357   5.9525   3.9791   N.2       1 RES1   0.0000
     3 N2       6.4471   6.7482   5.9348   N.2       1 RES1   0.0000
     4 N3       4.4747   6.9754   4.0090   N.2       1 RES1   0.0000
     5 N4       6.1564   5.7885   2.1598   N.2       1 RES1   0.0000
     6 N5       6.8090   8.2684   3.4498   N.ar      1 RES1   0.0000
     7 N6       5.8185   4.4604   4.5322   N.ar      1 RES1   0.0000
     8 C1       8.9583   5.7452   2.8433   C.2       1 RES1   0.0000
     9 C2      10.2987   6.1812   3.0467   C.2       1 RES1   0.0000
    10 C3      10.4096   6.5637   4.3405   C.2       1 RES1   0.0000
    11 C4       9.1269   6.3653   4.9409   C.2       1 RES1   0.0000
    12 C5       8.7961   6.3385   6.2969   C.2       1 RES1   0.0000
    13 C6       7.4762   6.2920   6.7257   C.2       1 RES1   0.0000
    14 C7       6.9473   5.8757   7.9963   C.2       1 RES1   0.0000
    15 C8       5.6299   6.1920   8.0077   C.2       1 RES1   0.0000
    16 C9       5.3576   6.8031   6.7409   C.2       1 RES1   0.0000
    17 C10      4.2158   7.4911   6.3525   C.2       1 RES1   0.0000
    18 C11      3.9409   7.7323   4.9887   C.2       1 RES1   0.0000
    19 C12      2.9639   8.6062   4.4329   C.2       1 RES1   0.0000
    20 C13      2.8310   8.2738   3.1247   C.2       1 RES1   0.0000
    21 C14      3.7534   7.2266   2.8682   C.2       1 RES1   0.0000
    22 C15      3.8586   6.4082   1.7555   C.2       1 RES1   0.0000
    23 C16      4.9262   5.5665   1.5454   C.2       1 RES1   0.0000
    24 C17      5.0514   4.4621   0.6623   C.2       1 RES1   0.0000
    25 C18      6.3462   4.0761   0.6742   C.2       1 RES1   0.0000
    26 C19      7.0469   4.9464   1.5538   C.2       1 RES1   0.0000
    27 C20      8.4191   5.0912   1.7370   C.2       1 RES1   0.0000
    28 C21     11.3752   6.3296   2.0173   C.3       1 RES1   0.0000
    29 H1      12.2292   6.4350   2.4641   H         1 RES1   0.0000
    30 H2      11.4168   5.5218   1.4816   H         1 RES1   0.0000
    31 C22     11.1436   7.5000   1.1176   C.3       1 RES1   0.0000
    32 H3      10.4043   7.3124   0.5324   H         1 RES1   0.0000
    33 H4      11.9320   7.6627   0.5942   H         1 RES1   0.0000
    34 H5      10.9448   8.2756   1.6462   H         1 RES1   0.0000
    35 C23     11.5559   7.3231   4.9398   C.3       1 RES1   0.0000
    36 H6      11.7182   7.0068   5.8414   H         1 RES1   0.0000
    37 H7      12.3581   7.1659   4.4164   H         1 RES1   0.0000
    38 C24     11.2602   8.7760   4.9694   C.3       1 RES1   0.0000
    39 H8      11.0495   9.0780   4.0820   H         1 RES1   0.0000
    40 H9      12.0285   9.2531   5.2935   H         1 RES1   0.0000
    41 H10     10.5126   8.9404   5.5507   H         1 RES1   0.0000
    42 C25      7.6529   5.0411   9.0026   C.3       1 RES1   0.0000
    43 H11      7.1301   4.9982   9.8179   H         1 RES1   0.0000
    44 H12      8.5116   5.4414   9.2135   H         1 RES1   0.0000
    45 C26      7.8620   3.6544   8.4637   C.3       1 RES1   0.0000
    46 H13      7.0151   3.2809   8.2078   H         1 RES1   0.0000
    47 H14      8.2625   3.1040   9.1415   H         1 RES1   0.0000
    48 H15      8.4396   3.6919   7.6985   H         1 RES1   0.0000
    49 C27      4.6326   5.7220   9.0067   C.3       1 RES1   0.0000
    50 H16      5.0904   5.4557   9.8179   H         1 RES1   0.0000
    51 H17      4.0309   6.4511   9.2264   H         1 RES1   0.0000
    52 C28      3.8461   4.5747   8.4851   C.3       1 RES1   0.0000
    53 H18      3.3026   4.8678   7.7499   H         1 RES1   0.0000
    54 H19      3.2835   4.2298   9.1826   H         1 RES1   0.0000
    55 H20      4.4456   3.8867   8.1872   H         1 RES1   0.0000
    56 C29      2.3798   9.8160   5.0795   C.3       1 RES1   0.0000
    57 H21      1.9817   9.5658   5.9263   H         1 RES1   0.0000
    58 H22      1.6780  10.1734   4.5141   H         1 RES1   0.0000
    59 C30      3.4145  10.8793   5.3141   C.3       1 RES1   0.0000
    60 H23      4.1061  10.5326   5.8825   H         1 RES1   0.0000
    61 H24      3.0035  11.6369   5.7385   H         1 RES1   0.0000
    62 H25      3.7930  11.1491   4.4756   H         1 RES1   0.0000
    63 C31      1.9715   8.9797   2.1357   C.3       1 RES1   0.0000
    64 H26      2.2299   8.7063   1.2424   H         1 RES1   0.0000
    65 H27      2.1264   9.9339   2.2095   H         1 RES1   0.0000
    66 C32      0.5051   8.7063   2.3252   C.3       1 RES1   0.0000
    67 H28      0.3305   7.7735   2.1709   H         1 RES1   0.0000
    68 H29     -0.0017   9.2334   1.7028   H         1 RES1   0.0000
    69 H30      0.2491   8.9350   3.2203   H         1 RES1   0.0000
    70 C33      3.9108   3.7027   0.0625   C.3       1 RES1   0.0000
    71 H31      4.2456   3.0861  -0.6070   H         1 RES1   0.0000
    72 H32      3.3015   4.3210  -0.3730   H         1 RES1   0.0000
    73 C34      3.1681   2.9271   1.1472   C.3       1 RES1   0.0000
    74 H33      3.7191   2.2069   1.4610   H         1 RES1   0.0000
    75 H34      2.3524   2.5733   0.7845   H         1 RES1   0.0000
    76 H35      2.9646   3.5150   1.8777   H         1 RES1   0.0000
    77 C35      6.8797   2.8288   0.0805   C.3       1 RES1   0.0000
    78 H36      7.7594   2.9932  -0.2932   H         1 RES1   0.0000
    79 H37      6.2978   2.5304  -0.6353   H         1 RES1   0.0000
    80 C36      6.9694   1.7548   1.1575   C.3       1 RES1   0.0000
    81 H38      7.6147   2.0175   1.8185   H         1 RES1   0.0000
    82 H39      7.2372   0.9239   0.7588   H         1 RES1   0.0000
    83 H40      6.1113   1.6476   1.5742   H         1 RES1   0.0000
    84 C37      9.8487   6.3313   7.3412   C.ar      1 RES1   0.0000
    85 C38     10.7578   5.3074   7.4117   C.ar      1 RES1   0.0000
    86 H41     10.7292   4.6212   6.7854   H         1 RES1   0.0000
    87 C39     11.7084   5.2895   8.4004   C.ar      1 RES1   0.0000
    88 H42     12.3252   4.5962   8.4418   H         1 RES1   0.0000
    89 C40     11.7451   6.3188   9.3429   C.ar      1 RES1   0.0000
    90 H43     12.3763   6.3027  10.0263   H         1 RES1   0.0000
    91 C41     10.8848   7.3106   9.2636   C.ar      1 RES1   0.0000
    92 H44     10.9235   7.9986   9.8874   H         1 RES1   0.0000
    93 C42      9.9062   7.3517   8.2489   C.ar      1 RES1   0.0000
    94 H45      9.3080   8.0629   8.1975   H         1 RES1   0.0000
    95 C43      3.2598   7.9253   7.3934   C.ar      1 RES1   0.0000
    96 C44      3.6077   8.7867   8.3737   C.ar      1 RES1   0.0000
    97 H46      4.4647   9.1512   8.3801   H         1 RES1   0.0000
    98 C45      2.7169   9.1387   9.3650   C.ar      1 RES1   0.0000
    99 H47      2.9687   9.7338  10.0340   H         1 RES1   0.0000
   100 C46      1.4664   8.6062   9.3591   C.ar      1 RES1   0.0000
   101 H48      0.8647   8.8314  10.0314   H         1 RES1   0.0000
   102 C47      1.0955   7.7627   8.3904   C.ar      1 RES1   0.0000
   103 H49      0.2361   7.4071   8.3955   H         1 RES1   0.0000
   104 C48      1.9803   7.4125   7.3739   C.ar      1 RES1   0.0000
   105 H50      1.7108   6.8424   6.6902   H         1 RES1   0.0000
   106 C49      2.7604   6.3617   0.7459   C.ar      1 RES1   0.0000
   107 C50      1.5503   5.8095   1.0744   C.ar      1 RES1   0.0000
   108 H51      1.3805   5.5558   1.9523   H         1 RES1   0.0000
   109 C51      0.5812   5.6273   0.1085   C.ar      1 RES1   0.0000
   110 H52     -0.2279   5.2270   0.3370   H         1 RES1   0.0000
   111 C52      0.7977   6.0258  -1.1734   C.ar      1 RES1   0.0000
   112 H53      0.1442   5.8917  -1.8211   H         1 RES1   0.0000
   113 C53      1.9806   6.6244  -1.5039   C.ar      1 RES1   0.0000
   114 H54      2.1207   6.9318  -2.3715   H         1 RES1   0.0000
   115 C54      2.9762   6.7727  -0.5463   C.ar      1 RES1   0.0000
   116 H55      3.7909   7.1534  -0.7819   H         1 RES1   0.0000
   117 C55      9.3158   4.5229   0.7094   C.ar      1 RES1   0.0000
   118 C56      9.3122   5.0554  -0.5895   C.ar      1 RES1   0.0000
   119 H56      8.7473   5.7631  -0.7999   H         1 RES1   0.0000
   120 C57     10.1472   4.5300  -1.5574   C.ar      1 RES1   0.0000
   121 H57     10.1450   4.8839  -2.4178   H         1 RES1   0.0000
   122 C58     10.9657   3.5061  -1.2496   C.ar      1 RES1   0.0000
   123 H58     11.5245   3.1469  -1.9008   H         1 RES1   0.0000
   124 C59     10.9781   2.9825   0.0334   C.ar      1 RES1   0.0000
   125 H59     11.5585   2.2874   0.2418   H         1 RES1   0.0000
   126 C60     10.1396   3.4864   0.9977   C.ar      1 RES1   0.0000
   127 H60     10.1380   3.1165   1.8494   H         1 RES1   0.0000
   128 C61      6.9513   8.6008   2.1869   C.ar      1 RES1   0.0000
   129 H61      6.8722   7.9253   1.5510   H         1 RES1   0.0000
   130 C62      7.2071   9.8660   1.7388   C.ar      1 RES1   0.0000
   131 H62      7.3147  10.0429   0.8334   H         1 RES1   0.0000
   132 C63      7.2975  10.8507   2.6545   C.ar      1 RES1   0.0000
   133 H63      7.4394  11.7317   2.3947   H         1 RES1   0.0000
   134 C64      7.1791  10.5308   3.9560   C.ar      1 RES1   0.0000
   135 H64      7.2594  11.1884   4.6067   H         1 RES1   0.0000
   136 C65      6.9433   9.2477   4.3120   C.ar      1 RES1   0.0000
   137 H65      6.8731   9.0476   5.2163   H         1 RES1   0.0000
   138 C66      4.5423   4.1047   4.5990   C.ar      1 RES1   0.0000
   139 H66      3.8903   4.7498   4.4447   H         1 RES1   0.0000
   140 C67      4.1523   2.8378   4.8845   C.ar      1 RES1   0.0000
   141 H67      3.2477   2.6197   4.9154   H         1 RES1   0.0000
   142 C68      5.0757   1.9085   5.1237   C.ar      1 RES1   0.0000
   143 H68      4.8233   1.0365   5.3218   H         1 RES1   0.0000
   144 C69      6.4100   2.2552   5.0697   C.ar      1 RES1   0.0000
   145 H69      7.0751   1.6262   5.2344   H         1 RES1   0.0000
   146 C70      6.7212   3.5436   4.7714   C.ar      1 RES1   0.0000
   147 H70      7.6185   3.7849   4.7354   H         1 RES1   0.0000
   148 Cl1     -0.4263   3.2286   2.8170   Cl        2 RES2   0.0000
   149 Cl2      0.8180   4.9062   4.7847   Cl        2 RES2   0.0000
   150 C71     -0.5190   3.8796   4.4318   C.3       2 RES2   0.0000
   151 H71     -1.3427   4.3817   4.5270   H         2 RES2   0.0000
   152 H72     -0.5383   3.1487   5.0697   H         2 RES2   0.0000
   153 Cl3      1.0943   0.5640  -1.1199   Cl        3 RES3   0.0000
   154 Cl4      3.9343   0.2966  -1.0533   Cl        3 RES3   0.0000
   155 C72      2.5181   0.5951  -2.0011   C.3       3 RES3   0.0000
   156 H73      2.6035   1.4636  -2.4256   H         3 RES3   0.0000
   157 H74      2.4662  -0.0715  -2.7033   H         3 RES3   0.0000
   158 Cl5     10.2833   1.8231   5.0630   Cl        4 RES4   0.0000
   159 O1       9.6321   1.3867   3.8017   O.3       4 RES4  -1.0000
   160 O2      11.5291   1.4117   5.3270   O.2       4 RES4   0.0000
   161 O3      10.2390   3.1934   4.8048   O.2       4 RES4   0.0000
   162 O4       9.3948   1.4314   6.0788   O.2       4 RES4   0.0000
@<TRIPOS>BOND
     1     1     2    1
     2     2     8    1
     3     3     1    1
     4     4     1    1
     5     5     1    1
     6     6     1    1
     7     7     1    1
     8     8     9    1
     9     9    10    2
    10    10    11    1
    11    11     2    1
    12    12    11    2
    13    13     3    2
    14    14    13    1
    15    15    14    2
    16    16     3    1
    17    17    16    2
    18    18     4    1
    19    19    18    2
    20    20    19    1
    21    21     4    1
    22    22    21    1
    23    23     5    1
    24    24    23    1
    25    25    24    2
    26    26     5    2
    27    27     8    2
    28    28     9    1
    29    29    28    1
    30    30    28    1
    31    31    28    1
    32    32    31    1
    33    33    31    1
    34    34    31    1
    35    35    10    1
    36    36    35    1
    37    37    35    1
    38    38    35    1
    39    39    38    1
    40    40    38    1
    41    41    38    1
    42    42    14    1
    43    43    42    1
    44    44    42    1
    45    45    42    1
    46    46    45    1
    47    47    45    1
    48    48    45    1
    49    49    15    1
    50    50    49    1
    51    51    49    1
    52    52    49    1
    53    53    52    1
    54    54    52    1
    55    55    52    1
    56    56    19    1
    57    57    56    1
    58    58    56    1
    59    59    56    1
    60    60    59    1
    61    61    59    1
    62    62    59    1
    63    63    20    1
    64    64    63    1
    65    65    63    1
    66    66    63    1
    67    67    66    1
    68    68    66    1
    69    69    66    1
    70    70    24    1
    71    71    70    1
    72    72    70    1
    73    73    70    1
    74    74    73    1
    75    75    73    1
    76    76    73    1
    77    77    25    1
    78    78    77    1
    79    79    77    1
    80    80    77    1
    81    81    80    1
    82    82    80    1
    83    83    80    1
    84    84    12    1
    85    85    84   ar
    86    86    85    1
    87    87    85   ar
    88    88    87    1
    89    89    87   ar
    90    90    89    1
    91    91    89   ar
    92    92    91    1
    93    93    84   ar
    94    94    93    1
    95    95    17    1
    96    96    95   ar
    97    97    96    1
    98    98    96   ar
    99    99    98    1
   100   100    98   ar
   101   101   100    1
   102   102   100   ar
   103   103   102    1
   104   104    95   ar
   105   105   104    1
   106   106    22    1
   107   107   106   ar
   108   108   107    1
   109   109   107   ar
   110   110   109    1
   111   111   109   ar
   112   112   111    1
   113   113   111   ar
   114   114   113    1
   115   115   106   ar
   116   116   115    1
   117   117    27    1
   118   118   117   ar
   119   119   118    1
   120   120   118   ar
   121   121   120    1
   122   122   120   ar
   123   123   122    1
   124   124   122   ar
   125   125   124    1
   126   126   117   ar
   127   127   126    1
   128   128     6   ar
   129   129   128    1
   130   130   128   ar
   131   131   130    1
   132   132   130   ar
   133   133   132    1
   134   134   132   ar
   135   135   134    1
   136   136     6   ar
   137   137   136    1
   138   138     7   ar
   139   139   138    1
   140   140   138   ar
   141   141   140    1
   142   142   140   ar
   143   143   142    1
   144   144   142   ar
   145   145   144    1
   146   146     7   ar
   147   147   146    1
   148    12    13    1
   149    15    16    1
   150    17    18    1
   151    20    21    2
   152    22    23    2
   153    25    26    1
   154    26    27    1
   155    91    93   ar
   156   102   104   ar
   157   113   115   ar
   158   124   126   ar
   159   134   136   ar
   160   144   146   ar
   161   148   150    1
   162   149   150    1
   163   150   151    1
   164   152   150    1
   165   153   155    1
   166   154   155    1
   167   155   156    1
   168   157   155    1
   169   158   159    1
   170   160   158    2
   171   161   158    2
   172   162   158    2
@<TRIPOS>SUBSTRUCTURE
     1 RES1        1 GROUP             0 ****  ****    0  
     2 RES2      148 GROUP             0 ****  ****    0  
     3 RES3      153 GROUP             0 ****  ****    0  
     4 RES4      158 GROUP             0 ****  ****    0  
@<TRIPOS>CRYSIN
   13.8000   17.8700   26.2370   90.0000  101.3750   90.0000   231     1
