@<TRIPOS>MOLECULE
XILJAD
   162   172     4     0     0
SMALL
USER_CHARGES
****
Generated from the CSD

@<TRIPOS>ATOM
     1 Fe1      6.3670   6.3588   4.0206   Fe        1 RES1   1.0000
     2 N1       8.2848   5.9586   3.9768   N.2       1 RES1   0.0000
     3 N2       6.4826   6.7274   5.9374   N.2       1 RES1   0.0000
     4 N3       4.5065   6.9926   4.0014   N.2       1 RES1   0.0000
     5 N4       6.1718   5.7845   2.1701   N.2       1 RES1   0.0000
     6 N5       6.8602   8.2182   3.4691   N.ar      1 RES1   0.0000
     7 N6       5.8453   4.5122   4.5224   N.ar      1 RES1   0.0000
     8 C1       9.0086   5.7182   2.8485   C.2       1 RES1   0.0000
     9 C2      10.3933   6.1179   3.0594   C.2       1 RES1   0.0000
    10 C3      10.4918   6.5318   4.3564   C.2       1 RES1   0.0000
    11 C4       9.1839   6.3400   4.9593   C.2       1 RES1   0.0000
    12 C5       8.8502   6.3258   6.3109   C.2       1 RES1   0.0000
    13 C6       7.5212   6.2707   6.7231   C.2       1 RES1   0.0000
    14 C7       7.0086   5.8532   8.0064   C.2       1 RES1   0.0000
    15 C8       5.6812   6.1694   8.0200   C.2       1 RES1   0.0000
    16 C9       5.3795   6.7912   6.7480   C.2       1 RES1   0.0000
    17 C10      4.2319   7.4822   6.3645   C.2       1 RES1   0.0000
    18 C11      3.9523   7.7344   4.9965   C.2       1 RES1   0.0000
    19 C12      2.9592   8.6067   4.4521   C.2       1 RES1   0.0000
    20 C13      2.8343   8.2905   3.1280   C.2       1 RES1   0.0000
    21 C14      3.7686   7.2299   2.8721   C.2       1 RES1   0.0000
    22 C15      3.8691   6.4181   1.7428   C.2       1 RES1   0.0000
    23 C16      4.9488   5.5672   1.5492   C.2       1 RES1   0.0000
    24 C17      5.0348   4.4446   0.6702   C.2       1 RES1   0.0000
    25 C18      6.3534   4.0644   0.6799   C.2       1 RES1   0.0000
    26 C19      7.0642   4.9331   1.5659   C.2       1 RES1   0.0000
    27 C20      8.4354   5.0627   1.7476   C.2       1 RES1   0.0000
    28 C21     11.4519   6.2476   2.0228   C.3       1 RES1   0.0000
    29 H1      11.4702   5.4393   1.4861   H         1 RES1   0.0000
    30 H2      12.3131   6.3329   2.4588   H         1 RES1   0.0000
    31 C22     11.2430   7.4271   1.1219   C.3       1 RES1   0.0000
    32 H3      10.4494   7.2939   0.5980   H         1 RES1   0.0000
    33 H4      11.9995   7.5213   0.5390   H         1 RES1   0.0000
    34 H5      11.1469   8.2212   1.6529   H         1 RES1   0.0000
    35 C23     11.6588   7.2708   4.9523   C.3       1 RES1   0.0000
    36 H6      11.8278   6.9493   5.8519   H         1 RES1   0.0000
    37 H7      12.4536   7.1163   4.4198   H         1 RES1   0.0000
    38 C24     11.3469   8.7363   4.9872   C.3       1 RES1   0.0000
    39 H8      11.0788   9.0259   4.1118   H         1 RES1   0.0000
    40 H9      12.1290   9.2231   5.2591   H         1 RES1   0.0000
    41 H10     10.6363   8.8962   5.6107   H         1 RES1   0.0000
    42 C25      7.7088   4.9970   9.0069   C.3       1 RES1   0.0000
    43 H11      7.1712   4.9260   9.8097   H         1 RES1   0.0000
    44 H12      8.5567   5.4020   9.2476   H         1 RES1   0.0000
    45 C26      7.9475   3.6274   8.4350   C.3       1 RES1   0.0000
    46 H13      7.1075   3.2366   8.1825   H         1 RES1   0.0000
    47 H14      8.3717   3.0749   9.0936   H         1 RES1   0.0000
    48 H15      8.5133   3.6967   7.6640   H         1 RES1   0.0000
    49 C27      4.6577   5.7040   9.0128   C.3       1 RES1   0.0000
    50 H16      4.0610   6.4377   9.2296   H         1 RES1   0.0000
    51 H17      5.1024   5.4269   9.8302   H         1 RES1   0.0000
    52 C28      3.8589   4.5529   8.4597   C.3       1 RES1   0.0000
    53 H18      3.4174   4.8283   7.6537   H         1 RES1   0.0000
    54 H19      3.2046   4.2776   9.1064   H         1 RES1   0.0000
    55 H20      4.4479   3.8193   8.2672   H         1 RES1   0.0000
    56 C29      2.3652   9.7968   5.1022   C.3       1 RES1   0.0000
    57 H21      1.9487   9.5322   5.9366   H         1 RES1   0.0000
    58 H22      1.6761  10.1663   4.5276   H         1 RES1   0.0000
    59 C30      3.3994  10.8467   5.3745   C.3       1 RES1   0.0000
    60 H23      4.0835  10.4825   5.9392   H         1 RES1   0.0000
    61 H24      2.9870  11.5963   5.8109   H         1 RES1   0.0000
    62 H25      3.7884  11.1345   4.5455   H         1 RES1   0.0000
    63 C31      1.9497   8.9673   2.1280   C.3       1 RES1   0.0000
    64 H26      2.2113   8.6813   1.2371   H         1 RES1   0.0000
    65 H27      2.0908   9.9247   2.1842   H         1 RES1   0.0000
    66 C32      0.4709   8.6759   2.3218   C.3       1 RES1   0.0000
    67 H28      0.3229   7.7291   2.2792   H         1 RES1   0.0000
    68 H29     -0.0338   9.1094   1.6298   H         1 RES1   0.0000
    69 H30      0.1901   9.0063   3.1775   H         1 RES1   0.0000
    70 C33      3.9036   3.6967   0.0752   C.3       1 RES1   0.0000
    71 H31      4.2394   3.0785  -0.5929   H         1 RES1   0.0000
    72 H32      3.3009   4.3167  -0.3645   H         1 RES1   0.0000
    73 C34      3.1383   2.9186   1.1483   C.3       1 RES1   0.0000
    74 H33      3.7034   2.2312   1.5066   H         1 RES1   0.0000
    75 H34      2.3562   2.5207   0.7597   H         1 RES1   0.0000
    76 H35      2.8773   3.5173   1.8505   H         1 RES1   0.0000
    77 C35      6.8559   2.7961   0.0988   C.3       1 RES1   0.0000
    78 H36      7.7254   2.9453  -0.3029   H         1 RES1   0.0000
    79 H37      6.2491   2.4941  -0.5955   H         1 RES1   0.0000
    80 C36      6.9691   1.7284   1.1858   C.3       1 RES1   0.0000
    81 H38      7.5899   2.0198   1.8582   H         1 RES1   0.0000
    82 H39      7.2773   0.9077   0.7982   H         1 RES1   0.0000
    83 H40      6.1076   1.5881   1.5888   H         1 RES1   0.0000
    84 C37      9.9207   6.3169   7.3506   C.ar      1 RES1   0.0000
    85 C38     10.8249   5.2972   7.4502   C.ar      1 RES1   0.0000
    86 H41     10.8008   4.5991   6.8350   H         1 RES1   0.0000
    87 C39     11.7856   5.2901   8.4640   C.ar      1 RES1   0.0000
    88 H42     12.3959   4.5902   8.5161   H         1 RES1   0.0000
    89 C40     11.8373   6.3027   9.3818   C.ar      1 RES1   0.0000
    90 H43     12.4649   6.2867  10.0689   H         1 RES1   0.0000
    91 C41     10.9598   7.3259   9.2740   C.ar      1 RES1   0.0000
    92 H44     11.0072   8.0311   9.8764   H         1 RES1   0.0000
    93 C42      9.9868   7.3419   8.2795   C.ar      1 RES1   0.0000
    94 H45      9.3784   8.0435   8.2389   H         1 RES1   0.0000
    95 C43      3.2691   7.8997   7.3863   C.ar      1 RES1   0.0000
    96 C44      3.6260   8.7790   8.3986   C.ar      1 RES1   0.0000
    97 H46      4.4776   9.1520   8.4083   H         1 RES1   0.0000
    98 C45      2.7141   9.1058   9.4014   C.ar      1 RES1   0.0000
    99 H47      2.9585   9.6796  10.0920   H         1 RES1   0.0000
   100 C46      1.4333   8.5676   9.3552   C.ar      1 RES1   0.0000
   101 H48      0.8148   8.8003  10.0099   H         1 RES1   0.0000
   102 C47      1.0659   7.6971   8.3608   C.ar      1 RES1   0.0000
   103 H49      0.2141   7.3241   8.3519   H         1 RES1   0.0000
   104 C48      1.9710   7.3827   7.3778   C.ar      1 RES1   0.0000
   105 H50      1.7138   6.8125   6.6887   H         1 RES1   0.0000
   106 C49      2.7487   6.3542   0.7443   C.ar      1 RES1   0.0000
   107 C50      1.5271   5.7982   1.0775   C.ar      1 RES1   0.0000
   108 H51      1.3460   5.5690   1.9609   H         1 RES1   0.0000
   109 C51      0.5648   5.5832   0.0919   C.ar      1 RES1   0.0000
   110 H52     -0.2333   5.1622   0.3183   H         1 RES1   0.0000
   111 C52      0.7724   5.9740  -1.1907   C.ar      1 RES1   0.0000
   112 H53      0.1154   5.8373  -1.8351   H         1 RES1   0.0000
   113 C53      1.9597   6.5745  -1.5325   C.ar      1 RES1   0.0000
   114 H54      2.0942   6.8640  -2.4049   H         1 RES1   0.0000
   115 C54      2.9681   6.7556  -0.5762   C.ar      1 RES1   0.0000
   116 H55      3.7778   7.1411  -0.8188   H         1 RES1   0.0000
   117 C55      9.3458   4.4961   0.7110   C.ar      1 RES1   0.0000
   118 C56      9.3571   5.0237  -0.5808   C.ar      1 RES1   0.0000
   119 H56      8.7928   5.7342  -0.7854   H         1 RES1   0.0000
   120 C57     10.1833   4.5174  -1.5574   C.ar      1 RES1   0.0000
   121 H57     10.1877   4.8869  -2.4101   H         1 RES1   0.0000
   122 C58     10.9910   3.4711  -1.2546   C.ar      1 RES1   0.0000
   123 H58     11.5495   3.1140  -1.9070   H         1 RES1   0.0000
   124 C59     10.9927   2.9328   0.0072   C.ar      1 RES1   0.0000
   125 H59     11.5579   2.2187   0.2002   H         1 RES1   0.0000
   126 C60     10.1698   3.4302   0.9948   C.ar      1 RES1   0.0000
   127 H60     10.1732   3.0519   1.8428   H         1 RES1   0.0000
   128 C61      7.1249   8.5019   2.1781   C.ar      1 RES1   0.0000
   129 H61      7.1484   7.8073   1.5605   H         1 RES1   0.0000
   130 C62      7.3593   9.7755   1.7515   C.ar      1 RES1   0.0000
   131 H62      7.5320   9.9496   0.8547   H         1 RES1   0.0000
   132 C63      7.3364  10.7827   2.6544   C.ar      1 RES1   0.0000
   133 H63      7.4759  11.6603   2.3818   H         1 RES1   0.0000
   134 C64      7.1060  10.4950   3.9811   C.ar      1 RES1   0.0000
   135 H64      7.1107  11.1736   4.6174   H         1 RES1   0.0000
   136 C65      6.8689   9.2018   4.3528   C.ar      1 RES1   0.0000
   137 H65      6.7088   9.0081   5.2488   H         1 RES1   0.0000
   138 C66      4.5533   4.1550   4.5522   C.ar      1 RES1   0.0000
   139 H66      3.9081   4.7981   4.3710   H         1 RES1   0.0000
   140 C67      4.1475   2.8813   4.8397   C.ar      1 RES1   0.0000
   141 H67      3.2452   2.6575   4.8612   H         1 RES1   0.0000
   142 C68      5.1199   1.9416   5.0953   C.ar      1 RES1   0.0000
   143 H68      4.8775   1.0641   5.2873   H         1 RES1   0.0000
   144 C69      6.4377   2.2916   5.0681   C.ar      1 RES1   0.0000
   145 H69      7.1008   1.6627   5.2360   H         1 RES1   0.0000
   146 C70      6.7647   3.5954   4.7865   C.ar      1 RES1   0.0000
   147 H70      7.6609   3.8424   4.7817   H         1 RES1   0.0000
   148 Cl1     -0.4697   3.1648   2.7915   Cl        2 RES2   0.0000
   149 Cl2      0.8257   4.8704   4.7483   Cl        2 RES2   0.0000
   150 C71     -0.5803   3.8761   4.3992   C.3       2 RES2   0.0000
   151 H71     -1.3815   4.4197   4.4557   H         2 RES2   0.0000
   152 H72     -0.6488   3.1709   5.0614   H         2 RES2   0.0000
   153 Cl3      1.0733   0.5544  -1.1368   Cl        3 RES3   0.0000
   154 Cl4      3.9699   0.2951  -1.0208   Cl        3 RES3   0.0000
   155 C72      2.5805   0.5720  -1.9994   C.3       3 RES3   0.0000
   156 H73      2.5499  -0.1048  -2.6924   H         3 RES3   0.0000
   157 H74      2.6769   1.4336  -2.4357   H         3 RES3   0.0000
   158 Cl5     10.2696   1.8364   5.0391   Cl        4 RES4   0.0000
   159 O1       9.6756   1.3589   3.8071   O.3       4 RES4  -1.0000
   160 O2      11.5690   1.3447   5.2257   O.2       4 RES4   0.0000
   161 O3      10.2745   3.2348   4.9318   O.2       4 RES4   0.0000
   162 O4       9.4506   1.4158   6.1099   O.2       4 RES4   0.0000
@<TRIPOS>BOND
     1     1     2    1
     2     2     8    1
     3     3     1    1
     4     4     1    1
     5     5     1    1
     6     6     1    1
     7     7     1    1
     8     8     9    1
     9     9    10    2
    10    10    11    1
    11    11     2    1
    12    12    11    2
    13    13     3    2
    14    14    13    1
    15    15    14    2
    16    16     3    1
    17    17    16    2
    18    18     4    1
    19    19    18    2
    20    20    19    1
    21    21     4    1
    22    22    21    1
    23    23     5    1
    24    24    23    1
    25    25    24    2
    26    26     5    2
    27    27     8    2
    28    28     9    1
    29    29    28    1
    30    30    28    1
    31    31    28    1
    32    32    31    1
    33    33    31    1
    34    34    31    1
    35    35    10    1
    36    36    35    1
    37    37    35    1
    38    38    35    1
    39    39    38    1
    40    40    38    1
    41    41    38    1
    42    42    14    1
    43    43    42    1
    44    44    42    1
    45    45    42    1
    46    46    45    1
    47    47    45    1
    48    48    45    1
    49    49    15    1
    50    50    49    1
    51    51    49    1
    52    52    49    1
    53    53    52    1
    54    54    52    1
    55    55    52    1
    56    56    19    1
    57    57    56    1
    58    58    56    1
    59    59    56    1
    60    60    59    1
    61    61    59    1
    62    62    59    1
    63    63    20    1
    64    64    63    1
    65    65    63    1
    66    66    63    1
    67    67    66    1
    68    68    66    1
    69    69    66    1
    70    70    24    1
    71    71    70    1
    72    72    70    1
    73    73    70    1
    74    74    73    1
    75    75    73    1
    76    76    73    1
    77    77    25    1
    78    78    77    1
    79    79    77    1
    80    80    77    1
    81    81    80    1
    82    82    80    1
    83    83    80    1
    84    84    12    1
    85    85    84   ar
    86    86    85    1
    87    87    85   ar
    88    88    87    1
    89    89    87   ar
    90    90    89    1
    91    91    89   ar
    92    92    91    1
    93    93    84   ar
    94    94    93    1
    95    95    17    1
    96    96    95   ar
    97    97    96    1
    98    98    96   ar
    99    99    98    1
   100   100    98   ar
   101   101   100    1
   102   102   100   ar
   103   103   102    1
   104   104    95   ar
   105   105   104    1
   106   106    22    1
   107   107   106   ar
   108   108   107    1
   109   109   107   ar
   110   110   109    1
   111   111   109   ar
   112   112   111    1
   113   113   111   ar
   114   114   113    1
   115   115   106   ar
   116   116   115    1
   117   117    27    1
   118   118   117   ar
   119   119   118    1
   120   120   118   ar
   121   121   120    1
   122   122   120   ar
   123   123   122    1
   124   124   122   ar
   125   125   124    1
   126   126   117   ar
   127   127   126    1
   128   128     6   ar
   129   129   128    1
   130   130   128   ar
   131   131   130    1
   132   132   130   ar
   133   133   132    1
   134   134   132   ar
   135   135   134    1
   136   136     6   ar
   137   137   136    1
   138   138     7   ar
   139   139   138    1
   140   140   138   ar
   141   141   140    1
   142   142   140   ar
   143   143   142    1
   144   144   142   ar
   145   145   144    1
   146   146     7   ar
   147   147   146    1
   148    12    13    1
   149    15    16    1
   150    17    18    1
   151    20    21    2
   152    22    23    2
   153    25    26    1
   154    26    27    1
   155    91    93   ar
   156   102   104   ar
   157   113   115   ar
   158   124   126   ar
   159   134   136   ar
   160   144   146   ar
   161   148   150    1
   162   149   150    1
   163   150   151    1
   164   152   150    1
   165   153   155    1
   166   154   155    1
   167   155   156    1
   168   157   155    1
   169   158   159    1
   170   160   158    2
   171   161   158    2
   172   162   158    2
@<TRIPOS>SUBSTRUCTURE
     1 RES1        1 GROUP             0 ****  ****    0  
     2 RES2      148 GROUP             0 ****  ****    0  
     3 RES3      153 GROUP             0 ****  ****    0  
     4 RES4      158 GROUP             0 ****  ****    0  
@<TRIPOS>CRYSIN
   13.8570   17.7640   26.1840   90.0000  101.4110   90.0000   231     1
