@<TRIPOS>MOLECULE
XIQFEJ
   102   109     5     0     0
SMALL
USER_CHARGES
****
Generated from the CSD

@<TRIPOS>ATOM
     1 Fe1      3.8320   1.8756   3.8976   Fe        1 RES1   2.0000
     2 N1       3.9242   3.8312   4.1415   N.ar      1 RES1   0.0000
     3 N2       4.6769   1.9442   5.5887   N.ar      1 RES1   0.0000
     4 N3       3.9813  -0.0505   4.2494   N.ar      1 RES1   0.0000
     5 N4       8.5401   2.2496  11.4196   N.ar      1 RES1   1.0000
     6 N5       5.4802   1.7826   2.8063   N.ar      1 RES1   0.0000
     7 N6       3.0509   1.8185   2.1756   N.ar      1 RES1   0.0000
     8 N7       1.9283   1.9348   4.4041   N.ar      1 RES1   0.0000
     9 N8       0.3364   2.2040  -4.3096   N.ar      1 RES1   0.0000
    10 C1       3.4026   4.7844   3.3352   C.ar      1 RES1   0.0000
    11 H1       3.0033   4.5237   2.5127   H         1 RES1   0.0000
    12 C2       3.4343   6.1136   3.6660   C.ar      1 RES1   0.0000
    13 H2       3.0651   6.7587   3.0731   H         1 RES1   0.0000
    14 C3       3.9974   6.5193   4.8519   C.ar      1 RES1   0.0000
    15 H3       4.0141   7.4396   5.0887   H         1 RES1   0.0000
    16 C4       4.5422   5.5630   5.6943   C.ar      1 RES1   0.0000
    17 H4       4.9377   5.8188   6.5204   H         1 RES1   0.0000
    18 C5       4.5035   4.2370   5.3201   C.ar      1 RES1   0.0000
    19 C6       5.0160   3.1277   6.1227   C.ar      1 RES1   0.0000
    20 C7       5.7760   3.2124   7.2814   C.ar      1 RES1   0.0000
    21 H5       6.0288   4.0578   7.6339   H         1 RES1   0.0000
    22 C8       6.1572   2.0346   7.9149   C.ar      1 RES1   0.0000
    23 C9       6.9779   2.1030   9.1578   C.ar      1 RES1   0.0000
    24 C10      6.8425   3.1505  10.0508   C.ar      1 RES1   0.0000
    25 H6       6.2009   3.8330   9.8936   H         1 RES1   0.0000
    26 C11      7.6443   3.2010  11.1716   C.ar      1 RES1   0.0000
    27 H7       7.5561   3.9275  11.7772   H         1 RES1   0.0000
    28 C12      8.6830   1.2234  10.5895   C.ar      1 RES1   0.0000
    29 H8       9.3177   0.5441  10.7884   H         1 RES1   0.0000
    30 C13      7.9221   1.1305   9.4344   C.ar      1 RES1   0.0000
    31 H9       8.0472   0.4024   8.8361   H         1 RES1   0.0000
    32 C14      5.7770   0.8129   7.3736   C.ar      1 RES1   0.0000
    33 H10      6.0161   0.0000   7.8039   H         1 RES1   0.0000
    34 C15      5.0396   0.7966   6.1950   C.ar      1 RES1   0.0000
    35 C16      4.6119  -0.3763   5.4298   C.ar      1 RES1   0.0000
    36 C17      4.8315  -1.6860   5.8100   C.ar      1 RES1   0.0000
    37 H11      5.2590  -1.8864   6.6343   H         1 RES1   0.0000
    38 C18      4.4164  -2.6976   4.9658   C.ar      1 RES1   0.0000
    39 H12      4.5576  -3.6066   5.2044   H         1 RES1   0.0000
    40 C19      3.7940  -2.3800   3.7709   C.ar      1 RES1   0.0000
    41 H13      3.5105  -3.0674   3.1798   H         1 RES1   0.0000
    42 C20      3.5899  -1.0556   3.4455   C.ar      1 RES1   0.0000
    43 H14      3.1580  -0.8455   2.6266   H         1 RES1   0.0000
    44 C21      6.7544   1.7935   3.2231   C.ar      1 RES1   0.0000
    45 H15      6.9249   1.8880   4.1541   H         1 RES1   0.0000
    46 C22      7.8336   1.6714   2.3681   C.ar      1 RES1   0.0000
    47 H16      8.7225   1.6828   2.7007   H         1 RES1   0.0000
    48 C23      7.5845   1.5296   1.0087   C.ar      1 RES1   0.0000
    49 H17      8.3063   1.4368   0.3977   H         1 RES1   0.0000
    50 C24      6.2928   1.5264   0.5550   C.ar      1 RES1   0.0000
    51 H18      6.1114   1.4270  -0.3724   H         1 RES1   0.0000
    52 C25      5.2533   1.6665   1.4603   C.ar      1 RES1   0.0000
    53 C26      3.8382   1.7349   1.0864   C.ar      1 RES1   0.0000
    54 C27      3.3031   1.7658  -0.1873   C.ar      1 RES1   0.0000
    55 H19      3.8706   1.6990  -0.9454   H         1 RES1   0.0000
    56 C28      1.9262   1.8945  -0.3507   C.ar      1 RES1   0.0000
    57 C29      1.3562   1.9776  -1.7191   C.ar      1 RES1   0.0000
    58 C30      1.9133   1.2592  -2.7802   C.ar      1 RES1   0.0000
    59 H20      2.6482   0.6744  -2.6338   H         1 RES1   0.0000
    60 C31      1.3754   1.4107  -4.0493   C.ar      1 RES1   0.0000
    61 H21      1.7654   0.9269  -4.7669   H         1 RES1   0.0000
    62 C32     -0.2033   2.8996  -3.2918   C.ar      1 RES1   0.0000
    63 H22     -0.9386   3.4730  -3.4690   H         1 RES1   0.0000
    64 C33      0.2755   2.8084  -1.9903   C.ar      1 RES1   0.0000
    65 H23     -0.1335   3.3085  -1.2925   H         1 RES1   0.0000
    66 C34      1.1198   1.9662   0.7827   C.ar      1 RES1   0.0000
    67 H24      0.1777   2.0460   0.6960   H         1 RES1   0.0000
    68 C35      1.7089   1.9173   2.0427   C.ar      1 RES1   0.0000
    69 C36      1.0426   1.9972   3.3497   C.ar      1 RES1   0.0000
    70 C37     -0.3078   2.1340   3.5467   C.ar      1 RES1   0.0000
    71 H25     -0.8962   2.1780   2.8019   H         1 RES1   0.0000
    72 C38     -0.8069   2.2106   4.8356   C.ar      1 RES1   0.0000
    73 H26     -1.7400   2.3067   4.9875   H         1 RES1   0.0000
    74 C39      0.0742   2.1454   5.8967   C.ar      1 RES1   0.0000
    75 H27     -0.2451   2.1992   6.7897   H         1 RES1   0.0000
    76 C40      1.4205   1.9988   5.6455   C.ar      1 RES1   0.0000
    77 H28      2.0165   1.9385   6.3830   H         1 RES1   0.0000
    78 H35      8.9928   2.2643  12.2309   H         1 RES1   0.0000
    79 Cl1      2.1982   9.8722   3.4421   Cl        2 RES2   0.0000
    80 O1       1.5989   8.9243   4.3361   O.3       2 RES2  -1.0000
    81 O2       3.4140   9.3275   2.9352   O.2       2 RES2   0.0000
    82 O3       2.4759  11.0878   4.1575   O.2       2 RES2   0.0000
    83 O4       1.2778  10.1612   2.3607   O.2       2 RES2   0.0000
    84 Cl2      0.5069  10.1995   8.8035   Cl        3 RES3   0.0000
    85 O5      -0.2637  11.3281   8.3697   O.3       3 RES3  -1.0000
    86 O6       1.5785  10.6252   9.6681   O.2       3 RES3   0.0000
    87 O7      -0.3537   9.2974   9.5154   O.2       3 RES3   0.0000
    88 O8       1.0750   9.5411   7.6661   O.2       3 RES3   0.0000
    89 Cl3      2.4638   3.0687   8.9982   Cl        4 RES4   0.0000
    90 O9       2.7025   4.0119   7.9344   O.3       4 RES4  -1.0000
    91 O10      3.0947   3.5414  10.2179   O.2       4 RES4   0.0000
    92 O11      3.0304   1.7888   8.6432   O.2       4 RES4   0.0000
    93 O12      1.0529   2.9175   9.2083   O.2       4 RES4   0.0000
    94 O13     -0.2687   7.7589   1.8851   O.3       5 RES5   0.0000
    95 C41      0.6094   6.8956   1.2166   C.3       5 RES5   0.0000
    96 H29      1.4790   6.8956   1.6902   H         5 RES5   0.0000
    97 H30      0.7650   7.2425   0.3019   H         5 RES5   0.0000
    98 C42      0.1280   5.5451   1.1262   C.3       5 RES5   0.0000
    99 H31      0.7856   4.9945   0.6526   H         5 RES5   0.0000
   100 H32     -0.7220   5.5337   0.6381   H         5 RES5   0.0000
   101 H33     -0.0099   5.1867   2.0282   H         5 RES5   0.0000
   102 H34      0.1117   8.5571   1.9342   H         5 RES5   0.0000
@<TRIPOS>BOND
     1     1     2    1
     2     2    10   ar
     3     3     1    1
     4     4     1    1
     5     5    26   ar
     6     6     1    1
     7     7     1    1
     8     8     1    1
     9     9    60   ar
    10    10    11    1
    11    12    10   ar
    12    13    12    1
    13    14    12   ar
    14    15    14    1
    15    16    14   ar
    16    17    16    1
    17    18     2   ar
    18    19     3   ar
    19    20    19   ar
    20    21    20    1
    21    22    20   ar
    22    23    22    1
    23    24    23   ar
    24    25    24    1
    25    26    24   ar
    26    27    26    1
    27    28     5   ar
    28    29    28    1
    29    30    23   ar
    30    31    30    1
    31    32    22   ar
    32    33    32    1
    33    34     3   ar
    34    35     4   ar
    35    36    35   ar
    36    37    36    1
    37    38    36   ar
    38    39    38    1
    39    40    38   ar
    40    41    40    1
    41    42     4   ar
    42    43    42    1
    43    44     6   ar
    44    45    44    1
    45    46    44   ar
    46    47    46    1
    47    48    46   ar
    48    49    48    1
    49    50    48   ar
    50    51    50    1
    51    52     6   ar
    52    53     7   ar
    53    54    53   ar
    54    55    54    1
    55    56    54   ar
    56    57    56    1
    57    58    57   ar
    58    59    58    1
    59    60    58   ar
    60    61    60    1
    61    62     9   ar
    62    63    62    1
    63    64    57   ar
    64    65    64    1
    65    66    56   ar
    66    67    66    1
    67    68     7   ar
    68    69     8   ar
    69    70    69   ar
    70    71    70    1
    71    72    70   ar
    72    73    72    1
    73    74    72   ar
    74    75    74    1
    75    76     8   ar
    76    77    76    1
    77    78     5    1
    78    16    18   ar
    79    18    19    1
    80    28    30   ar
    81    32    34   ar
    82    34    35    1
    83    40    42   ar
    84    50    52   ar
    85    52    53    1
    86    62    64   ar
    87    66    68   ar
    88    68    69    1
    89    74    76   ar
    90    79    80    1
    91    81    79    2
    92    82    79    2
    93    83    79    2
    94    84    85    1
    95    86    84    2
    96    87    84    2
    97    88    84    2
    98    89    90    1
    99    91    89    2
   100    92    89    2
   101    93    89    2
   102    94    95    1
   103    95    96    1
   104    97    95    1
   105    98    95    1
   106    99    98    1
   107   100    98    1
   108   101    98    1
   109   102    94    1
@<TRIPOS>SUBSTRUCTURE
     1 RES1        1 GROUP             0 ****  ****    0  
     2 RES2       79 GROUP             0 ****  ****    0  
     3 RES3       84 GROUP             0 ****  ****    0  
     4 RES4       89 GROUP             0 ****  ****    0  
     5 RES5       94 GROUP             0 ****  ****    0  
@<TRIPOS>CRYSIN
   14.3670   16.2900   18.7200   90.0000  105.0600   90.0000    14     1
