@<TRIPOS>MOLECULE
XISXUU
   178   252     2     0     0
SMALL
NO_CHARGES
****
Generated from the CSD

@<TRIPOS>ATOM
     1 Fe1     10.8359   6.5562   5.4288   Fe        1 RES1   0.0000
     2 Fe2      8.8363   7.0311   6.9505   Fe        1 RES1   0.0000
     3 Fe3      6.2864   6.0017   7.0971   Fe        1 RES1   0.0000
     4 Fe4     12.5914   4.3660   9.1955   Fe        1 RES1   0.0000
     5 Fe5      7.7838   1.3698   5.5505   Fe        1 RES1   0.0000
     6 Fe6      6.3324  11.5086   5.9010   Fe        1 RES1   0.0000
     7 Te1      6.9277   7.9251   5.5457   Te        1 RES1   0.0000
     8 O1       6.3703   4.5062   3.7018   O.2       1 RES1   0.0000
     9 O2       8.2705   5.6286   4.1707   O.3       1 RES1   0.0000
    10 O3      12.1003   4.0403   4.6940   O.2       1 RES1   0.0000
    11 O4      13.1932   8.2892   5.8391   O.2       1 RES1   0.0000
    12 O5      10.4613   7.8353   2.7985   O.2       1 RES1   0.0000
    13 O6       8.2142   7.5758   9.7643   O.2       1 RES1   0.0000
    14 O7      10.1969   9.6229   6.7773   O.2       1 RES1   0.0000
    15 O8       5.0090   7.9822   8.8597   O.2       1 RES1   0.0000
    16 O9       3.7755   5.2223   5.8364   O.2       1 RES1   0.0000
    17 O10      6.0893   4.1915   9.4171   O.2       1 RES1   0.0000
    18 C1       7.1870   4.7931   4.5391   C.2       1 RES1   0.0000
    19 C2       9.1185   5.7568   5.2653   C.2       1 RES1   0.0000
    20 C3      11.6559   5.0587   4.9520   C.1       1 RES1   0.0000
    21 C4      12.2942   7.6008   5.7474   C.1       1 RES1   0.0000
    22 C5      10.6099   7.3600   3.8257   C.1       1 RES1   0.0000
    23 C6       8.3887   7.3787   8.6460   C.1       1 RES1   0.0000
    24 C7       9.7358   8.5734   6.7757   C.1       1 RES1   0.0000
    25 C8       5.5405   7.2586   8.1655   C.1       1 RES1   0.0000
    26 C9       4.7659   5.5146   6.3146   C.1       1 RES1   0.0000
    27 C10      6.2233   4.8567   8.4998   C.1       1 RES1   0.0000
    28 C11     10.6202   5.8464   7.2867   C.2       1 RES1   0.0000
    29 C12      9.4388   5.0777   7.4762   C.2       1 RES1   0.0000
    30 H1       9.2298   4.6518   8.3005   H         1 RES1   0.0000
    31 C13      8.5992   4.9964   6.3451   C.2       1 RES1   0.0000
    32 C14      7.3044   4.4432   5.9787   C.3       1 RES1   0.0000
    33 C15     11.5464   5.9536   8.4082   C.ar      1 RES1   0.0000
    34 C16     12.9560   6.2134   8.3905   C.ar      1 RES1   0.0000
    35 H2      13.4692   6.3987   7.6128   H         1 RES1   0.0000
    36 C17     13.4595   6.1529   9.7016   C.ar      1 RES1   0.0000
    37 H3      14.3652   6.2791   9.9587   H         1 RES1   0.0000
    38 C18     12.3804   5.8708  10.5660   C.ar      1 RES1   0.0000
    39 H4      12.4344   5.7871  11.5108   H         1 RES1   0.0000
    40 C19     11.2072   5.7336   9.7932   C.ar      1 RES1   0.0000
    41 H5      10.3426   5.5297  10.1290   H         1 RES1   0.0000
    42 C20     12.6048   2.7644   7.9294   C.ar      1 RES1   0.0000
    43 H6      12.3818   2.7852   7.0055   H         1 RES1   0.0000
    44 C21     13.8843   2.9448   8.4773   C.ar      1 RES1   0.0000
    45 H7      14.6796   3.1125   7.9856   H         1 RES1   0.0000
    46 C22     13.7917   2.8389   9.8430   C.ar      1 RES1   0.0000
    47 H8      14.5119   2.9138  10.4568   H         1 RES1   0.0000
    48 C23     12.4400   2.6001  10.1740   C.ar      1 RES1   0.0000
    49 H9      12.0893   2.4963  11.0513   H         1 RES1   0.0000
    50 C24     11.7173   2.5484   8.9882   C.ar      1 RES1   0.0000
    51 H10     10.7830   2.3925   8.9095   H         1 RES1   0.0000
    52 C25      6.9245   3.0497   6.3306   C.ar      1 RES1   0.0000
    53 C26      7.4923   2.2539   7.3557   C.ar      1 RES1   0.0000
    54 H11      8.1749   2.5256   7.9599   H         1 RES1   0.0000
    55 C27      6.8611   0.9723   7.3284   C.ar      1 RES1   0.0000
    56 H12      7.0515   0.2438   7.9085   H         1 RES1   0.0000
    57 C28      5.9217   0.9746   6.3097   C.ar      1 RES1   0.0000
    58 H13      5.3621   0.2438   6.0752   H         1 RES1   0.0000
    59 C29      5.9336   2.2473   5.6654   C.ar      1 RES1   0.0000
    60 H14      5.3893   2.5143   4.9360   H         1 RES1   0.0000
    61 C30      8.3151   1.2775   3.5670   C.ar      1 RES1   0.0000
    62 H15      7.8145   1.6115   2.8327   H         1 RES1   0.0000
    63 C31      9.2767   1.9925   4.3045   C.ar      1 RES1   0.0000
    64 H16      9.5318   2.8958   4.1551   H         1 RES1   0.0000
    65 C32      9.7909   1.1533   5.2911   C.ar      1 RES1   0.0000
    66 H17     10.4534   1.3813   5.9322   H         1 RES1   0.0000
    67 C33      9.1505  -0.0993   5.1657   C.ar      1 RES1   0.0000
    68 H18      9.3125  -0.8644   5.7040   H         1 RES1   0.0000
    69 C34      8.2314  -0.0135   4.1069   C.ar      1 RES1   0.0000
    70 H19      7.6550  -0.7065   3.8096   H         1 RES1   0.0000
    71 C35      6.1146   9.6039   6.5138   C.ar      1 RES1   0.0000
    72 C36      4.8466  10.1463   6.1426   C.ar      1 RES1   0.0000
    73 H20      4.2717   9.8181   5.4614   H         1 RES1   0.0000
    74 C37      4.6092  11.2586   6.9749   C.ar      1 RES1   0.0000
    75 H21      3.8405  11.8156   6.9524   H         1 RES1   0.0000
    76 C38      5.7027  11.4050   7.8474   C.ar      1 RES1   0.0000
    77 H22      5.7958  12.0774   8.5110   H         1 RES1   0.0000
    78 C39      6.6412  10.3849   7.5694   C.ar      1 RES1   0.0000
    79 H23      7.4721  10.2492   8.0097   H         1 RES1   0.0000
    80 C40      7.5961  11.5718   4.3093   C.ar      1 RES1   0.0000
    81 H24      8.0173  10.8248   3.9028   H         1 RES1   0.0000
    82 C41      6.3565  12.1022   3.9574   C.ar      1 RES1   0.0000
    83 H25      5.7871  11.7772   3.2698   H         1 RES1   0.0000
    84 C42      6.0912  13.2059   4.8026   C.ar      1 RES1   0.0000
    85 H26      5.3154  13.7521   4.7817   H         1 RES1   0.0000
    86 C43      7.1880  13.3504   5.6799   C.ar      1 RES1   0.0000
    87 H27      7.2804  14.0117   6.3563   H         1 RES1   0.0000
    88 C44      8.1242  12.3392   5.3714   C.ar      1 RES1   0.0000
    89 H28      8.9596  12.1970   5.8036   H         1 RES1   0.0000
    90 Fe7     21.7309   6.6440   5.5531   Fe        2 RES2   0.0000
    91 Fe8     19.7145   7.1605   7.0596   Fe        2 RES2   0.0000
    92 Fe9     17.1719   6.1380   7.1928   Fe        2 RES2   0.0000
    93 Fe10    23.5907   4.8691   9.4755   Fe        2 RES2   0.0000
    94 Fe11    18.7398   1.4048   6.0490   Fe        2 RES2   0.0000
    95 Fe12    17.8474  11.3933   5.1730   Fe        2 RES2   0.0000
    96 Te2     17.8743   7.9042   5.4877   Te        2 RES2   0.0000
    97 O11     17.3750   4.2780   3.9832   O.2       2 RES2   0.0000
    98 O12     19.2325   5.5024   4.3715   O.3       2 RES2   0.0000
    99 O13     23.2167   4.1852   5.1657   O.2       2 RES2   0.0000
   100 O14     23.9213   8.6081   5.8470   O.2       2 RES2   0.0000
   101 O15     21.3254   7.6464   2.8166   O.2       2 RES2   0.0000
   102 O16     18.8990   7.7960   9.7996   O.2       2 RES2   0.0000
   103 O17     21.1370   9.7120   7.1308   O.2       2 RES2   0.0000
   104 O18     15.7669   8.2991   8.6251   O.2       2 RES2   0.0000
   105 O19     14.8383   5.0829   5.7945   O.2       2 RES2   0.0000
   106 O20     16.8823   4.5064   9.6365   O.2       2 RES2   0.0000
   107 C45     18.1554   4.6716   4.7978   C.2       2 RES2   0.0000
   108 C46     20.0651   5.7552   5.4549   C.2       2 RES2   0.0000
   109 C47     22.6709   5.1819   5.2670   C.1       2 RES2   0.0000
   110 C48     23.0930   7.8392   5.8004   C.1       2 RES2   0.0000
   111 C49     21.4852   7.2751   3.8835   C.1       2 RES2   0.0000
   112 C50     20.6182   8.6966   7.0151   C.1       2 RES2   0.0000
   113 C51     19.1319   7.5290   8.7135   C.1       2 RES2   0.0000
   114 C52     16.3339   7.4898   8.0515   C.1       2 RES2   0.0000
   115 C53     15.7515   5.4997   6.3483   C.1       2 RES2   0.0000
   116 C54     17.0569   5.1102   8.6926   C.1       2 RES2   0.0000
   117 C55     21.5363   6.0802   7.4554   C.2       2 RES2   0.0000
   118 C56     20.3837   5.2837   7.7301   C.2       2 RES2   0.0000
   119 H29     20.1935   4.9203   8.5865   H         2 RES2   0.0000
   120 C57     19.5473   5.0878   6.5957   C.2       2 RES2   0.0000
   121 C58     18.2562   4.4775   6.2696   C.3       2 RES2   0.0000
   122 C59     22.4753   6.3177   8.5431   C.ar      2 RES2   0.0000
   123 C60     23.8871   6.5960   8.4403   C.ar      2 RES2   0.0000
   124 H30     24.3721   6.6831   7.6289   H         2 RES2   0.0000
   125 C61     24.4328   6.7170   9.7289   C.ar      2 RES2   0.0000
   126 H31     25.3416   6.8953   9.9362   H         2 RES2   0.0000
   127 C62     23.3931   6.5228  10.6608   C.ar      2 RES2   0.0000
   128 H32     23.4773   6.5612  11.6072   H         2 RES2   0.0000
   129 C63     22.1968   6.2597   9.9410   C.ar      2 RES2   0.0000
   130 H33     21.3489   6.0760  10.3266   H         2 RES2   0.0000
   131 C64     24.6502   3.3607   8.6042   C.ar      2 RES2   0.0000
   132 H34     25.2205   3.4397   7.8490   H         2 RES2   0.0000
   133 C65     25.0282   3.4916   9.9217   C.ar      2 RES2   0.0000
   134 H35     25.9087   3.6767  10.2254   H         2 RES2   0.0000
   135 C66     23.9232   3.3111  10.7331   C.ar      2 RES2   0.0000
   136 H36     23.9083   3.3540  11.6827   H         2 RES2   0.0000
   137 C67     22.8428   3.0538   9.9105   C.ar      2 RES2   0.0000
   138 H37     21.9553   2.8800  10.2013   H         2 RES2   0.0000
   139 C68     23.2725   3.0899   8.5721   C.ar      2 RES2   0.0000
   140 H38     22.7361   2.9567   7.7992   H         2 RES2   0.0000
   141 C69     17.9089   3.1201   6.7628   C.ar      2 RES2   0.0000
   142 C70     18.5583   2.4076   7.8201   C.ar      2 RES2   0.0000
   143 H39     19.2678   2.7333   8.3632   H         2 RES2   0.0000
   144 C71     17.9558   1.1272   7.9165   C.ar      2 RES2   0.0000
   145 H40     18.2013   0.4446   8.5303   H         2 RES2   0.0000
   146 C72     16.9360   1.0333   6.9541   C.ar      2 RES2   0.0000
   147 H41     16.3709   0.2821   6.8159   H         2 RES2   0.0000
   148 C73     16.8928   2.2566   6.2198   C.ar      2 RES2   0.0000
   149 H42     16.3014   2.4624   5.5048   H         2 RES2   0.0000
   150 C74     19.1323   1.2007   4.0539   C.ar      2 RES2   0.0000
   151 H43     18.5674   1.4964   3.3469   H         2 RES2   0.0000
   152 C75     20.1595   1.9456   4.6708   C.ar      2 RES2   0.0000
   153 H44     20.4167   2.8326   4.4443   H         2 RES2   0.0000
   154 C76     20.7403   1.1556   5.6783   C.ar      2 RES2   0.0000
   155 H45     21.4491   1.4152   6.2535   H         2 RES2   0.0000
   156 C77     20.0812  -0.0948   5.6831   C.ar      2 RES2   0.0000
   157 H46     20.2723  -0.8261   6.2599   H         2 RES2   0.0000
   158 C78     19.0968  -0.0655   4.6853   C.ar      2 RES2   0.0000
   159 H47     18.5060  -0.7764   4.4700   H         2 RES2   0.0000
   160 C79     17.1242   9.7579   6.1153   C.ar      2 RES2   0.0000
   161 C80     16.0756  10.4298   5.4100   C.ar      2 RES2   0.0000
   162 H48     15.5442  10.0619   4.7126   H         2 RES2   0.0000
   163 C81     15.9745  11.7307   5.9305   C.ar      2 RES2   0.0000
   164 H49     15.3531  12.3934   5.6526   H         2 RES2   0.0000
   165 C82     16.9533  11.8856   6.9412   C.ar      2 RES2   0.0000
   166 H50     17.1089  12.6733   7.4489   H         2 RES2   0.0000
   167 C83     17.6571  10.6749   7.0649   C.ar      2 RES2   0.0000
   168 H51     18.3643  10.4998   7.6739   H         2 RES2   0.0000
   169 C84     18.2767  11.4567   3.1653   C.ar      2 RES2   0.0000
   170 H52     17.7546  11.0618   2.4760   H         2 RES2   0.0000
   171 C85     18.1499  12.7500   3.6795   C.ar      2 RES2   0.0000
   172 H53     17.5281  13.4023   3.3854   H         2 RES2   0.0000
   173 C86     19.1028  12.9238   4.7078   C.ar      2 RES2   0.0000
   174 H54     19.2190  13.7093   5.2316   H         2 RES2   0.0000
   175 C87     19.8390  11.7524   4.8235   C.ar      2 RES2   0.0000
   176 H55     20.5491  11.5944   5.4325   H         2 RES2   0.0000
   177 C88     19.3446  10.8473   3.8771   C.ar      2 RES2   0.0000
   178 H56     19.6692   9.9671   3.7357   H         2 RES2   0.0000
@<TRIPOS>BOND
     1     1     2    1
     2     2     3    1
     3     3     7    1
     4     4    33   un
     5     5    52   un
     6     6    71   un
     7     7     2    1
     8     8    18    2
     9     9    18    1
    10    10    20    3
    11    11    21    3
    12    12    22    3
    13    13    23    3
    14    14    24    3
    15    15    25    3
    16    16    26    3
    17    17    27    3
    18    18    32    1
    19    19     1    1
    20    20     1    1
    21    21     1    1
    22    22     1    1
    23    23     2    1
    24    24     2    1
    25    25     3    1
    26    26     3    1
    27    27     3    1
    28    28     1    1
    29    29     2   un
    30    30    29    1
    31    31     2   un
    32    32     3    1
    33    33    28    1
    34    34     4   un
    35    35    34    1
    36    36     4   un
    37    37    36    1
    38    38     4   un
    39    39    38    1
    40    40     4   un
    41    41    40    1
    42    42     4   un
    43    43    42    1
    44    44     4   un
    45    45    44    1
    46    46     4   un
    47    47    46    1
    48    48     4   un
    49    49    48    1
    50    50     4   un
    51    51    50    1
    52    52    32    1
    53    53     5   un
    54    54    53    1
    55    55     5   un
    56    56    55    1
    57    57     5   un
    58    58    57    1
    59    59     5   un
    60    60    59    1
    61    61     5   un
    62    62    61    1
    63    63     5   un
    64    64    63    1
    65    65     5   un
    66    66    65    1
    67    67     5   un
    68    68    67    1
    69    69     5   un
    70    70    69    1
    71    71     7    1
    72    72     6   un
    73    73    72    1
    74    74     6   un
    75    75    74    1
    76    76     6   un
    77    77    76    1
    78    78     6   un
    79    79    78    1
    80    80     6   un
    81    81    80    1
    82    82     6   un
    83    83    82    1
    84    84     6   un
    85    85    84    1
    86    86     6   un
    87    87    86    1
    88    88     6   un
    89    89    88    1
    90     2    19   un
    91     2    28   un
    92     9    19    1
    93    19    31    2
    94    28    29    2
    95    29    31    1
    96    31    32    1
    97    33    34   ar
    98    33    40   ar
    99    34    36   ar
   100    36    38   ar
   101    38    40   ar
   102    42    44   ar
   103    42    50   ar
   104    44    46   ar
   105    46    48   ar
   106    48    50   ar
   107    52    53   ar
   108    52    59   ar
   109    53    55   ar
   110    55    57   ar
   111    57    59   ar
   112    61    63   ar
   113    61    69   ar
   114    63    65   ar
   115    65    67   ar
   116    67    69   ar
   117    71    72   ar
   118    71    78   ar
   119    72    74   ar
   120    74    76   ar
   121    76    78   ar
   122    80    82   ar
   123    80    88   ar
   124    82    84   ar
   125    84    86   ar
   126    86    88   ar
   127    90    91    1
   128    91    92    1
   129    92    96    1
   130    93   122   un
   131    94   141   un
   132    95   160   un
   133    96    91    1
   134    97   107    2
   135    98   107    1
   136    99   109    3
   137   100   110    3
   138   101   111    3
   139   102   113    3
   140   103   112    3
   141   104   114    3
   142   105   115    3
   143   106   116    3
   144   107   121    1
   145   108    90    1
   146   109    90    1
   147   110    90    1
   148   111    90    1
   149   112    91    1
   150   113    91    1
   151   114    92    1
   152   115    92    1
   153   116    92    1
   154   117    90    1
   155   118    91   un
   156   119   118    1
   157   120    91   un
   158   121    92    1
   159   122   117    1
   160   123    93   un
   161   124   123    1
   162   125    93   un
   163   126   125    1
   164   127    93   un
   165   128   127    1
   166   129    93   un
   167   130   129    1
   168   131    93   un
   169   132   131    1
   170   133    93   un
   171   134   133    1
   172   135    93   un
   173   136   135    1
   174   137    93   un
   175   138   137    1
   176   139    93   un
   177   140   139    1
   178   141   121    1
   179   142    94   un
   180   143   142    1
   181   144    94   un
   182   145   144    1
   183   146    94   un
   184   147   146    1
   185   148    94   un
   186   149   148    1
   187   150    94   un
   188   151   150    1
   189   152    94   un
   190   153   152    1
   191   154    94   un
   192   155   154    1
   193   156    94   un
   194   157   156    1
   195   158    94   un
   196   159   158    1
   197   160    96    1
   198   161    95   un
   199   162   161    1
   200   163    95   un
   201   164   163    1
   202   165    95   un
   203   166   165    1
   204   167    95   un
   205   168   167    1
   206   169    95   un
   207   170   169    1
   208   171    95   un
   209   172   171    1
   210   173    95   un
   211   174   173    1
   212   175    95   un
   213   176   175    1
   214   177    95   un
   215   178   177    1
   216    91   108   un
   217    91   117   un
   218    98   108    1
   219   108   120    2
   220   117   118    2
   221   118   120    1
   222   120   121    1
   223   122   123   ar
   224   122   129   ar
   225   123   125   ar
   226   125   127   ar
   227   127   129   ar
   228   131   133   ar
   229   131   139   ar
   230   133   135   ar
   231   135   137   ar
   232   137   139   ar
   233   141   142   ar
   234   141   148   ar
   235   142   144   ar
   236   144   146   ar
   237   146   148   ar
   238   150   152   ar
   239   150   158   ar
   240   152   154   ar
   241   154   156   ar
   242   156   158   ar
   243   160   161   ar
   244   160   167   ar
   245   161   163   ar
   246   163   165   ar
   247   165   167   ar
   248   169   171   ar
   249   169   177   ar
   250   171   173   ar
   251   173   175   ar
   252   175   177   ar
@<TRIPOS>SUBSTRUCTURE
     1 RES1        1 GROUP             0 ****  ****    0  
     2 RES2       90 GROUP             0 ****  ****    0  
@<TRIPOS>CRYSIN
   22.3039   22.5704   16.4850   90.0000  102.9210   90.0000    14     1
