@<TRIPOS>MOLECULE
XIVTIJ
   269   296     1     0     0
SMALL
NO_CHARGES
****
Generated from the CSD

@<TRIPOS>ATOM
     1 Fe1      8.2009   0.0000   0.0000   Fe        1 RES1   0.0000
     2 O1       8.4071   1.9159   1.1023   O.3       1 RES1   0.0000
     3 O2       9.7572   1.1363  -1.1023   O.3       1 RES1   0.0000
     4 C1       9.3088   2.7153   0.5634   C.ar      1 RES1   0.0000
     5 C2       9.9987   2.3169  -0.5634   C.ar      1 RES1   0.0000
     6 C3       9.5612   3.9494   1.1267   C.ar      1 RES1   0.0000
     7 C4      10.9413   3.1528  -1.1267   C.ar      1 RES1   0.0000
     8 O3       8.9012   4.3306   2.2045   O.3       1 RES1   0.0000
     9 O4      11.6012   2.7718  -2.2045   O.3       1 RES1   0.0000
    10 C5      10.5039   4.7853   0.5634   C.ar      1 RES1   0.0000
    11 C6      11.1937   4.3869  -0.5634   C.ar      1 RES1   0.0000
    12 O5      10.7454   5.9659   1.1023   O.3       1 RES1   0.0000
    13 O6      12.0953   5.1865  -1.1023   O.3       1 RES1   0.0000
    14 Fe2     12.3016   7.1022   0.0000   Fe        1 RES1   0.0000
    15 O7       6.4389  -0.7794   1.1023   O.3       1 RES1   0.0000
    16 O8       6.4389   0.7794  -1.1023   O.3       1 RES1   0.0000
    17 C7       5.2955  -0.3984   0.5634   C.ar      1 RES1   0.0000
    18 C8       5.2955   0.3984  -0.5634   C.ar      1 RES1   0.0000
    19 C9       4.1005  -0.7967   1.1267   C.ar      1 RES1   0.0000
    20 C10      4.1005   0.7967  -1.1267   C.ar      1 RES1   0.0000
    21 O9       4.1006  -1.5588   2.2045   O.3       1 RES1   0.0000
    22 O10      4.1006   1.5588  -2.2045   O.2       1 RES1   0.0000
    23 C11      2.9054  -0.3984   0.5634   C.ar      1 RES1   0.0000
    24 C12      2.9054   0.3984  -0.5634   C.ar      1 RES1   0.0000
    25 O11      1.7621  -0.7794   1.1023   O.3       1 RES1   0.0000
    26 O12      1.7623   0.7794  -1.1023   O.3       1 RES1   0.0000
    27 Fe3      0.0000   0.0000   0.0000   Fe        1 RES1   0.0000
    28 O13      9.7569  -1.1363   1.1023   O.3       1 RES1   0.0000
    29 O14      8.4071  -1.9159  -1.1023   O.3       1 RES1   0.0000
    30 C13      9.9987  -2.3169   0.5634   C.ar      1 RES1   0.0000
    31 C14      9.3088  -2.7153  -0.5634   C.ar      1 RES1   0.0000
    32 C15     10.9413  -3.1528   1.1267   C.ar      1 RES1   0.0000
    33 C16      9.5612  -3.9494  -1.1267   C.ar      1 RES1   0.0000
    34 O15     11.6014  -2.7718   2.2045   O.2       1 RES1   0.0000
    35 O16      8.9012  -4.3306  -2.2045   O.2       1 RES1   0.0000
    36 C17     11.1937  -4.3869   0.5634   C.ar      1 RES1   0.0000
    37 C18     10.5039  -4.7853  -0.5634   C.ar      1 RES1   0.0000
    38 O17     12.0953  -5.1865   1.1023   O.3       1 RES1   0.0000
    39 O18     10.7454  -5.9659  -1.1023   O.3       1 RES1   0.0000
    40 Fe4     12.3014  -7.1022   0.0000   Fe        1 RES1   0.0000
    41 Fe5     11.2425   2.9998  -4.2072   Fe        1 RES1   0.0000
    42 O19     10.4993   4.8729  -4.5563   O.2       1 RES1   0.0000
    43 O20      9.8990   1.5938  -4.8300   O.3       1 RES1   0.0000
    44 Fe6      8.2190   5.9683   3.2328   Fe        1 RES1   0.0000
    45 O21      6.3291   6.4283   2.6100   O.3       1 RES1   0.0000
    46 O22      9.4691   7.5479   2.8837   O.2       1 RES1   0.0000
    47 Fe7      3.0232  -2.9685   3.2328   Fe        1 RES1   0.0000
    48 O23      3.5689  -4.8349   2.6100   O.3       1 RES1   0.0000
    49 O24      1.0304  -2.6761   2.8837   O.2       1 RES1   0.0000
    50 C19      9.6978   5.8866  -4.1594   C.2       1 RES1   0.0000
    51 N1       8.7799   5.7927  -3.1459   N.am      1 RES1   0.0000
    52 C20      8.5022   4.5164  -2.5268   C.3       1 RES1   0.0000
    53 C21      8.0538   6.9486  -2.6760   C.3       1 RES1   0.0000
    54 H1       9.8044   6.9121  -4.5421   H         1 RES1   0.0000
    55 H2       9.0717   3.7093  -2.9861   H         1 RES1   0.0000
    56 H3       7.4371   4.3008  -2.6229   H         1 RES1   0.0000
    57 H4       8.7672   4.5782  -1.4767   H         1 RES1   0.0000
    58 H5       8.3913   7.8580  -3.1732   H         1 RES1   0.0000
    59 H6       8.2105   7.0521  -1.6081   H         1 RES1   0.0000
    60 H7       6.9916   6.8031  -2.8778   H         1 RES1   0.0000
    61 C22      9.9465   8.7499   3.2803   C.2       1 RES1   0.0000
    62 N2       9.4062   9.4977   4.2938   N.am      1 RES1   0.0000
    63 C23      8.1624   9.0999   4.9132   C.3       1 RES1   0.0000
    64 C24     10.0441  10.7048   4.7637   C.3       1 RES1   0.0000
    65 H8      10.8879   9.1702   2.8973   H         1 RES1   0.0000
    66 H9       7.7481   8.2029   4.4540   H         1 RES1   0.0000
    67 H10      7.4429   9.9145   4.8171   H         1 RES1   0.0000
    68 H11      8.3483   8.9016   5.9633   H         1 RES1   0.0000
    69 H12     11.0000  10.8669   4.2661   H         1 RES1   0.0000
    70 H13     10.2127  10.6210   5.8315   H         1 RES1   0.0000
    71 H14      9.3869  11.5519   4.5618   H         1 RES1   0.0000
    72 C25     -0.2492  -2.8632   3.2806   C.2       1 RES1   0.0000
    73 N3      -0.6266  -3.7048   4.2941   N.am      1 RES1   0.0000
    74 C26      0.3396  -4.5833   4.9134   C.3       1 RES1   0.0000
    75 C27     -1.9909  -3.7560   4.7638   C.3       1 RES1   0.0000
    76 H15     -1.0838  -2.2581   2.8979   H         1 RES1   0.0000
    77 H16      1.3236  -4.4936   4.4540   H         1 RES1   0.0000
    78 H17     -0.0060  -5.6137   4.8173   H         1 RES1   0.0000
    79 H18      0.4187  -4.3232   5.9635   H         1 RES1   0.0000
    80 H19     -2.6095  -3.0092   4.2665   H         1 RES1   0.0000
    81 H20     -2.0026  -3.5683   5.8319   H         1 RES1   0.0000
    82 H21     -2.3961  -4.7484   4.5621   H         1 RES1   0.0000
    83 Fe1B     8.2010 -14.2046   0.0000   Fe        1 RES1   0.0000
    84 O1B      6.4387 -14.9840   1.1023   O.3       1 RES1   0.0000
    85 O2B      6.4389 -13.4250  -1.1023   O.3       1 RES1   0.0000
    86 C1B      5.2955 -14.6028   0.5634   C.ar      1 RES1   0.0000
    87 C2B      5.2957 -13.8062  -0.5634   C.ar      1 RES1   0.0000
    88 C3B      4.1006 -15.0013   1.1267   C.ar      1 RES1   0.0000
    89 C4B      4.1005 -13.4077  -1.1267   C.ar      1 RES1   0.0000
    90 O3B      4.1005 -15.7634   2.2045   O.3       1 RES1   0.0000
    91 O4B      4.1005 -12.6458  -2.2045   O.3       1 RES1   0.0000
    92 C5B      2.9054 -14.6028   0.5634   C.ar      1 RES1   0.0000
    93 C6B      2.9055 -13.8062  -0.5634   C.ar      1 RES1   0.0000
    94 O5B      1.7622 -14.9840   1.1023   O.2       1 RES1   0.0000
    95 O6B      1.7622 -13.4252  -1.1023   O.2       1 RES1   0.0000
    96 O7B      9.7571 -15.3409   1.1023   O.3       1 RES1   0.0000
    97 O8B      8.4071 -16.1203  -1.1023   O.3       1 RES1   0.0000
    98 C7B      9.9988 -16.5215   0.5634   C.ar      1 RES1   0.0000
    99 C8B      9.3087 -16.9200  -0.5634   C.ar      1 RES1   0.0000
   100 C9B     10.9412 -17.3574   1.1267   C.ar      1 RES1   0.0000
   101 C10B     9.5613 -18.1541  -1.1267   C.ar      1 RES1   0.0000
   102 O9B     11.6012 -16.9762   2.2045   O.3       1 RES1   0.0000
   103 O10B     8.9012 -18.5350  -2.2045   O.2       1 RES1   0.0000
   104 C11B    11.1939 -18.5915   0.5634   C.ar      1 RES1   0.0000
   105 C12B    10.5038 -18.9899  -0.5634   C.ar      1 RES1   0.0000
   106 O11B    12.0954 -19.3911   1.1023   O.2       1 RES1   0.0000
   107 O12B    10.7454 -20.1703  -1.1023   O.2       1 RES1   0.0000
   108 O13B     8.4071 -12.2889   1.1023   O.3       1 RES1   0.0000
   109 O14B     9.7572 -13.0681  -1.1023   O.3       1 RES1   0.0000
   110 C13B     9.3087 -11.4893   0.5634   C.ar      1 RES1   0.0000
   111 C14B     9.9987 -11.8875  -0.5634   C.ar      1 RES1   0.0000
   112 C15B     9.5612 -10.2550   1.1267   C.ar      1 RES1   0.0000
   113 C16B    10.9412 -11.0518  -1.1267   C.ar      1 RES1   0.0000
   114 O15B     8.9012  -9.8738   2.2045   O.2       1 RES1   0.0000
   115 O16B    11.6013 -11.4328  -2.2045   O.2       1 RES1   0.0000
   116 C17B    10.5038  -9.4193   0.5634   C.ar      1 RES1   0.0000
   117 C18B    11.1937  -9.8175  -0.5634   C.ar      1 RES1   0.0000
   118 O17B    10.7455  -8.2387   1.1023   O.3       1 RES1   0.0000
   119 O18B    12.0954  -9.0181  -1.1023   O.3       1 RES1   0.0000
   120 Fe5B     4.0824 -13.0705  -4.2072   Fe        1 RES1   0.0000
   121 O19B     2.8318 -14.6506  -4.5563   O.2       1 RES1   0.0000
   122 O20B     5.9718 -13.5309  -4.8300   O.3       1 RES1   0.0000
   123 Fe6B     3.0233 -17.1731   3.2328   Fe        1 RES1   0.0000
   124 O21B     3.5699 -19.0398   2.6100   O.3       1 RES1   0.0000
   125 O22B     1.0303 -16.8803   2.8837   O.2       1 RES1   0.0000
   126 Fe7B    13.3607 -17.2044   3.2328   Fe        1 RES1   0.0000
   127 O23B    14.7042 -15.7986   2.6100   O.3       1 RES1   0.0000
   128 O24B    14.1039 -19.0764   2.8837   O.2       1 RES1   0.0000
   129 C19B     2.3546 -15.8516  -4.1594   C.2       1 RES1   0.0000
   130 N1B      2.8949 -16.5995  -3.1459   N.am      1 RES1   0.0000
   131 C20B     4.1391 -16.2019  -2.5268   C.3       1 RES1   0.0000
   132 C21B     2.2570 -17.8063  -2.6760   C.3       1 RES1   0.0000
   133 H1B      1.4132 -16.2720  -4.5421   H         1 RES1   0.0000
   134 H2B      4.5533 -15.3051  -2.9861   H         1 RES1   0.0000
   135 H3B      4.8584 -17.0165  -2.6229   H         1 RES1   0.0000
   136 H4B      3.9531 -16.0033  -1.4767   H         1 RES1   0.0000
   137 H5B      1.3006 -17.9687  -3.1732   H         1 RES1   0.0000
   138 H6B      2.0889 -17.7224  -1.6081   H         1 RES1   0.0000
   139 H7B      2.9141 -18.6535  -2.8778   H         1 RES1   0.0000
   140 C22B    -0.2494 -17.0678   3.2803   C.2       1 RES1   0.0000
   141 N2B     -0.6269 -17.9097   4.2938   N.am      1 RES1   0.0000
   142 C23B     0.3395 -18.7879   4.9132   C.3       1 RES1   0.0000
   143 C24B    -1.9911 -17.9608   4.7637   C.3       1 RES1   0.0000
   144 H8B     -1.0841 -16.4627   2.8973   H         1 RES1   0.0000
   145 H9B      1.3235 -18.6982   4.4540   H         1 RES1   0.0000
   146 H10B    -0.0062 -19.8183   4.8171   H         1 RES1   0.0000
   147 H11B     0.4184 -18.5278   5.9633   H         1 RES1   0.0000
   148 H12B    -2.6095 -17.2140   4.2661   H         1 RES1   0.0000
   149 H13B    -2.0029 -17.7729   5.8315   H         1 RES1   0.0000
   150 H14B    -2.3962 -18.9535   4.5618   H         1 RES1   0.0000
   151 C25B    14.9057 -20.0911   3.2806   C.2       1 RES1   0.0000
   152 N3B     15.8233 -19.9971   4.2941   N.am      1 RES1   0.0000
   153 C26B    16.1009 -18.7210   4.9134   C.3       1 RES1   0.0000
   154 C27B    16.5497 -21.1530   4.7638   C.3       1 RES1   0.0000
   155 H15B    14.7990 -21.1163   2.8979   H         1 RES1   0.0000
   156 H16B    15.5313 -17.9137   4.4540   H         1 RES1   0.0000
   157 H17B    17.1661 -18.5052   4.8173   H         1 RES1   0.0000
   158 H18B    15.8361 -18.7826   5.9635   H         1 RES1   0.0000
   159 H19B    16.2123 -22.0621   4.2665   H         1 RES1   0.0000
   160 H20B    16.3930 -21.2570   5.8319   H         1 RES1   0.0000
   161 H21B    17.6118 -21.0077   4.5621   H         1 RES1   0.0000
   162 Fe1D    -4.1005  -7.1022   0.0000   Fe        1 RES1   0.0000
   163 O1D     -2.5443  -8.2387   1.1023   O.3       1 RES1   0.0000
   164 O2D     -3.8945  -9.0181  -1.1023   O.3       1 RES1   0.0000
   165 C1D     -2.3028  -9.4193   0.5634   C.ar      1 RES1   0.0000
   166 C2D     -2.9928  -9.8175  -0.5634   C.ar      1 RES1   0.0000
   167 C3D     -1.3603 -10.2550   1.1267   C.ar      1 RES1   0.0000
   168 C4D     -2.7403 -11.0518  -1.1267   C.ar      1 RES1   0.0000
   169 O3D     -0.7002  -9.8740   2.2045   O.3       1 RES1   0.0000
   170 O4D     -3.4001 -11.4328  -2.2045   O.3       1 RES1   0.0000
   171 C5D     -1.1078 -11.4893   0.5634   C.ar      1 RES1   0.0000
   172 C6D     -1.7977 -11.8875  -0.5634   C.ar      1 RES1   0.0000
   173 O5D     -0.2061 -12.2887   1.1023   O.2       1 RES1   0.0000
   174 O6D     -1.5560 -13.0681  -1.1023   O.2       1 RES1   0.0000
   175 O7D     -3.8944  -5.1865   1.1023   O.3       1 RES1   0.0000
   176 O8D     -2.5444  -5.9659  -1.1023   O.3       1 RES1   0.0000
   177 C7D     -2.9928  -4.3869   0.5634   C.ar      1 RES1   0.0000
   178 C8D     -2.3027  -4.7853  -0.5634   C.ar      1 RES1   0.0000
   179 C9D     -2.7402  -3.1528   1.1267   C.ar      1 RES1   0.0000
   180 C10D    -1.3603  -3.9494  -1.1267   C.ar      1 RES1   0.0000
   181 O9D     -3.4003  -2.7718   2.2045   O.3       1 RES1   0.0000
   182 O10D    -0.7003  -4.3306  -2.2045   O.2       1 RES1   0.0000
   183 C11D    -1.7977  -2.3169   0.5634   C.ar      1 RES1   0.0000
   184 C12D    -1.1076  -2.7153  -0.5634   C.ar      1 RES1   0.0000
   185 O11D    -1.5560  -1.1363   1.1023   O.3       1 RES1   0.0000
   186 O12D    -0.2062  -1.9159  -1.1023   O.3       1 RES1   0.0000
   187 O13D    -5.8625  -7.8816   1.1023   O.3       1 RES1   0.0000
   188 O14D    -5.8628  -6.3228  -1.1023   O.3       1 RES1   0.0000
   189 C13D    -7.0058  -7.5006   0.5634   C.ar      1 RES1   0.0000
   190 C14D    -7.0060  -6.7040  -0.5634   C.ar      1 RES1   0.0000
   191 C15D    -8.2010  -7.8991   1.1267   C.ar      1 RES1   0.0000
   192 C16D    -8.2009  -6.3055  -1.1267   C.ar      1 RES1   0.0000
   193 O15D    -8.2012  -8.6612   2.2045   O.2       1 RES1   0.0000
   194 O16D    -8.2010  -5.5434  -2.2045   O.2       1 RES1   0.0000
   195 C17D    -9.3960  -7.5006   0.5634   C.ar      1 RES1   0.0000
   196 C18D    -9.3961  -6.7040  -0.5634   C.ar      1 RES1   0.0000
   197 O17D   -10.5393  -7.8816   1.1023   O.2       1 RES1   0.0000
   198 O18D   -10.5393  -6.3228  -1.1023   O.2       1 RES1   0.0000
   199 Fe5D    -3.0233 -11.2362  -4.2072   Fe        1 RES1   0.0000
   200 O19D    -1.0296 -11.5291  -4.5563   O.2       1 RES1   0.0000
   201 O20D    -3.5693  -9.3697  -4.8300   O.3       1 RES1   0.0000
   202 Fe6D     1.0592 -10.1020   3.2328   Fe        1 RES1   0.0000
   203 O21D     2.4025  -8.6953   2.6100   O.3       1 RES1   0.0000
   204 O22D     1.8022 -11.9744   2.8837   O.2       1 RES1   0.0000
   205 Fe7D    -4.0824  -1.1339   3.2328   Fe        1 RES1   0.0000
   206 O23D    -5.9716  -0.6733   2.6100   O.3       1 RES1   0.0000
   207 O24D    -2.8328   0.4457   2.8837   O.2       1 RES1   0.0000
   208 C19D     0.2491 -11.3418  -4.1594   C.2       1 RES1   0.0000
   209 N1D      0.6266 -10.5000  -3.1459   N.am      1 RES1   0.0000
   210 C20D    -0.3398  -9.6213  -2.5268   C.3       1 RES1   0.0000
   211 C21D     1.9908 -10.4491  -2.6760   C.3       1 RES1   0.0000
   212 H1D      1.0839 -11.9469  -4.5421   H         1 RES1   0.0000
   213 H2D     -1.3235  -9.7110  -2.9861   H         1 RES1   0.0000
   214 H3D      0.0060  -8.5911  -2.6229   H         1 RES1   0.0000
   215 H4D     -0.4187  -9.8817  -1.4767   H         1 RES1   0.0000
   216 H5D      2.6095 -11.1961  -3.1732   H         1 RES1   0.0000
   217 H6D      2.0021 -10.6366  -1.6081   H         1 RES1   0.0000
   218 H7D      2.3958  -9.4564  -2.8778   H         1 RES1   0.0000
   219 C22D     2.6044 -12.9889   3.2803   C.2       1 RES1   0.0000
   220 N2D      3.5222 -12.8949   4.2938   N.am      1 RES1   0.0000
   221 C23D     3.7996 -11.6188   4.9132   C.3       1 RES1   0.0000
   222 C24D     4.2486 -14.0508   4.7637   C.3       1 RES1   0.0000
   223 H8D      2.4977 -14.0143   2.8973   H         1 RES1   0.0000
   224 H9D      3.2299 -10.8115   4.4540   H         1 RES1   0.0000
   225 H10D     4.8648 -11.4030   4.8171   H         1 RES1   0.0000
   226 H11D     3.5348 -11.6806   5.9633   H         1 RES1   0.0000
   227 H12D     3.9110 -14.9597   4.2661   H         1 RES1   0.0000
   228 H13D     4.0917 -14.1550   5.8315   H         1 RES1   0.0000
   229 H14D     5.3108 -13.9053   4.5618   H         1 RES1   0.0000
   230 C25D    -2.3550   1.6474   3.2806   C.2       1 RES1   0.0000
   231 N3D     -2.8952   2.3951   4.2941   N.am      1 RES1   0.0000
   232 C26D    -4.1391   1.9975   4.9134   C.3       1 RES1   0.0000
   233 C27D    -2.2573   3.6021   4.7638   C.3       1 RES1   0.0000
   234 H15D    -1.4137   2.0676   2.8979   H         1 RES1   0.0000
   235 H16D    -4.5534   1.1005   4.4540   H         1 RES1   0.0000
   236 H17D    -4.8586   2.8121   4.8173   H         1 RES1   0.0000
   237 H18D    -3.9533   1.7989   5.9635   H         1 RES1   0.0000
   238 H19D    -1.3013   3.7645   4.2665   H         1 RES1   0.0000
   239 H20D    -2.0889   3.5184   5.8319   H         1 RES1   0.0000
   240 H21D    -2.9142   4.4493   4.5621   H         1 RES1   0.0000
   241 O5B     14.0637   6.3228   1.1023   O.2       1 RES1   0.0000
   242 O5D     12.0954   9.0181   1.1023   O.2       1 RES1   0.0000
   243 O6B     14.0637   7.8816  -1.1023   O.2       1 RES1   0.0000
   244 O6D     10.7455   8.2387  -1.1023   O.2       1 RES1   0.0000
   245 Fe2      0.0001 -14.2046   0.0000   Fe        1 RES1   0.0000
   246 O10A    13.0018 -16.9762   5.2355   O.2       1 RES1   0.0000
   247 O10C    -4.1006  -1.5588   5.2355   O.2       1 RES1   0.0000
   248 O10E     3.4003  -2.7718   5.2355   O.2       1 RES1   0.0000
   249 O11B    -0.2061   1.9157   1.1023   O.2       1 RES1   0.0000
   250 O12B    -1.5561   1.1365  -1.1023   O.2       1 RES1   0.0000
   251 Fe3     12.3015 -21.3068   0.0000   Fe        1 RES1   0.0000
   252 O15A    -4.1003 -12.6456  -5.2355   O.2       1 RES1   0.0000
   253 O15C    13.0016   2.7718  -5.2355   O.2       1 RES1   0.0000
   254 O15E     3.4003 -11.4330  -5.2355   O.2       1 RES1   0.0000
   255 O16A     8.2010   5.5434   5.2355   O.2       1 RES1   0.0000
   256 O16C     3.4003 -16.9762   5.2355   O.2       1 RES1   0.0000
   257 O16E     0.7002  -9.8740   5.2355   O.2       1 RES1   0.0000
   258 O17D    14.0637  -7.8816   1.1023   O.2       1 RES1   0.0000
   259 O18D    14.0637  -6.3228  -1.1023   O.2       1 RES1   0.0000
   260 Fe4    -12.3016  -7.1022   0.0000   Fe        1 RES1   0.0000
   261 Fe5A    -9.2782 -10.0707   3.2328   Fe        1 RES1   0.0000
   262 Fe5C    13.3605  -2.9998   3.2328   Fe        1 RES1   0.0000
   263 Fe5E     8.2191  -8.2364   3.2328   Fe        1 RES1   0.0000
   264 Fe6A    11.2423 -11.2048  -4.2072   Fe        1 RES1   0.0000
   265 Fe6C    -8.2190  -5.9683  -4.2072   Fe        1 RES1   0.0000
   266 Fe6E     9.2782  -4.1337  -4.2072   Fe        1 RES1   0.0000
   267 Fe7A     4.0824   1.1339  -4.2072   Fe        1 RES1   0.0000
   268 Fe7C     9.2783 -18.3384  -4.2072   Fe        1 RES1   0.0000
   269 Fe7E    -1.0592  -4.1024  -4.2072   Fe        1 RES1   0.0000
@<TRIPOS>BOND
     1     1     2    1
     2     2     4    1
     3     3     1    1
     4     4     5   ar
     5     5     3    1
     6     6     4   ar
     7     7     5   ar
     8     8     6    1
     9     9     7    1
    10    10     6   ar
    11    11     7   ar
    12    12    10    1
    13    13    11    1
    14    14    12    1
    15    15     1    1
    16    16     1    1
    17    17    15    1
    18    18    16    1
    19    19    17   ar
    20    20    18   ar
    21    21    19    1
    22    22    20    1
    23    23    19   ar
    24    24    20   ar
    25    25    23    1
    26    26    24    1
    27    27    25    1
    28    28     1    1
    29    29     1    1
    30    30    28    1
    31    31    29    1
    32    32    30   ar
    33    33    31   ar
    34    34    32    1
    35    35    33    1
    36    36    32   ar
    37    37    33   ar
    38    38    36    1
    39    39    37    1
    40    40    38    1
    41    41     9    1
    42    42    41    1
    43    43    41    1
    44    44     8    1
    45    45    44    1
    46    46    44    1
    47    47    21    1
    48    48    47    1
    49    49    47    1
    50    50    42    2
    51    51    50   am
    52    52    51    1
    53    53    51    1
    54    54    50    1
    55    55    52    1
    56    56    52    1
    57    57    52    1
    58    58    53    1
    59    59    53    1
    60    60    53    1
    61    61    46    2
    62    62    61   am
    63    63    62    1
    64    64    62    1
    65    65    61    1
    66    66    63    1
    67    67    63    1
    68    68    63    1
    69    69    64    1
    70    70    64    1
    71    71    64    1
    72    72    49    2
    73    73    72   am
    74    74    73    1
    75    75    73    1
    76    76    72    1
    77    77    74    1
    78    78    74    1
    79    79    74    1
    80    80    75    1
    81    81    75    1
    82    82    75    1
    83    83    84    1
    84    84    86    1
    85    85    83    1
    86    86    87   ar
    87    87    85    1
    88    88    86   ar
    89    89    87   ar
    90    90    88    1
    91    91    89    1
    92    92    88   ar
    93    93    89   ar
    94    94    92    1
    95    95    93    1
    96    96    83    1
    97    97    83    1
    98    98    96    1
    99    99    97    1
   100   100    98   ar
   101   101    99   ar
   102   102   100    1
   103   103   101    1
   104   104   100   ar
   105   105   101   ar
   106   106   104    1
   107   107   105    1
   108   108    83    1
   109   109    83    1
   110   110   108    1
   111   111   109    1
   112   112   110   ar
   113   113   111   ar
   114   114   112    1
   115   115   113    1
   116   116   112   ar
   117   117   113   ar
   118   118    40    1
   119   119    40    1
   120   120    91    1
   121   121   120    1
   122   122   120    1
   123   123    90    1
   124   124   123    1
   125   125   123    1
   126   126   102    1
   127   127   126    1
   128   128   126    1
   129   129   121    2
   130   130   129   am
   131   131   130    1
   132   132   130    1
   133   133   129    1
   134   134   131    1
   135   135   131    1
   136   136   131    1
   137   137   132    1
   138   138   132    1
   139   139   132    1
   140   140   125    2
   141   141   140   am
   142   142   141    1
   143   143   141    1
   144   144   140    1
   145   145   142    1
   146   146   142    1
   147   147   142    1
   148   148   143    1
   149   149   143    1
   150   150   143    1
   151   151   128    2
   152   152   151   am
   153   153   152    1
   154   154   152    1
   155   155   151    1
   156   156   153    1
   157   157   153    1
   158   158   153    1
   159   159   154    1
   160   160   154    1
   161   161   154    1
   162   162   163    1
   163   163   165    1
   164   164   162    1
   165   165   166   ar
   166   166   164    1
   167   167   165   ar
   168   168   166   ar
   169   169   167    1
   170   170   168    1
   171   171   167   ar
   172   172   168   ar
   173   173   171    1
   174   174   172    1
   175   175   162    1
   176   176   162    1
   177   177   175    1
   178   178   176    1
   179   179   177   ar
   180   180   178   ar
   181   181   179    1
   182   182   180    1
   183   183   179   ar
   184   184   180   ar
   185   185    27    1
   186   186    27    1
   187   187   162    1
   188   188   162    1
   189   189   187    1
   190   190   188    1
   191   191   189   ar
   192   192   190   ar
   193   193   191    1
   194   194   192    1
   195   195   191   ar
   196   196   192   ar
   197   197   195    1
   198   198   196    1
   199   199   170    1
   200   200   199    1
   201   201   199    1
   202   202   169    1
   203   203   202    1
   204   204   202    1
   205   205   181    1
   206   206   205    1
   207   207   205    1
   208   208   200    2
   209   209   208   am
   210   210   209    1
   211   211   209    1
   212   212   208    1
   213   213   210    1
   214   214   210    1
   215   215   210    1
   216   216   211    1
   217   217   211    1
   218   218   211    1
   219   219   204    2
   220   220   219   am
   221   221   220    1
   222   222   220    1
   223   223   219    1
   224   224   221    1
   225   225   221    1
   226   226   221    1
   227   227   222    1
   228   228   222    1
   229   229   222    1
   230   230   207    2
   231   231   230   am
   232   232   231    1
   233   233   231    1
   234   234   230    1
   235   235   232    1
   236   236   232    1
   237   237   232    1
   238   238   233    1
   239   239   233    1
   240   240   233    1
   241   241    14   un
   242   242    14   un
   243   243    14   un
   244   244    14   un
   245   245    94   un
   246   246   126   un
   247   247   205   un
   248   248    47   un
   249   249    27   un
   250   250    27   un
   251   251   106   un
   252   252   199   un
   253   253    41   un
   254   254   120   un
   255   255    44   un
   256   256   123   un
   257   257   202   un
   258   258    40   un
   259   259    40   un
   260   260   197   un
   261   261   193   un
   262   262    34   un
   263   263   114   un
   264   264   115   un
   265   265   194   un
   266   266    35   un
   267   267    22   un
   268   268   103   un
   269   269   182   un
   270    10    11   ar
   271    13    14    1
   272    17    18   ar
   273    23    24   ar
   274    26    27    1
   275    30    31   ar
   276    36    37   ar
   277    39    40    1
   278    92    93   ar
   279    95   245   un
   280    98    99   ar
   281   104   105   ar
   282   107   251   un
   283   110   111   ar
   284   116   117   ar
   285   116   118    1
   286   117   119    1
   287   171   172   ar
   288   173   245   un
   289   174   245   un
   290   177   178   ar
   291   183   184   ar
   292   183   185    1
   293   184   186    1
   294   189   190   ar
   295   195   196   ar
   296   198   260   un
@<TRIPOS>SUBSTRUCTURE
     1 RES1        1 GROUP             0 ****  ****    0  
@<TRIPOS>CRYSIN
   24.6030   24.6030   14.8800   90.0000   90.0000  120.0000   173     1
