@<TRIPOS>MOLECULE
XOLLOD
   109   113     2     0     0
SMALL
NO_CHARGES
****
Generated from the CSD

@<TRIPOS>ATOM
     1 Fe1      1.0783   1.3336   3.8438   Fe        1 RES1   0.0000
     2 Si1      3.7080   2.5104   2.3053   Si        1 RES1   0.0000
     3 O1       1.7031  -1.5262   4.1155   O.2       1 RES1   0.0000
     4 O2      -0.3021   0.4937   1.3945   O.2       1 RES1   0.0000
     5 O3      -0.6122   1.1427   6.2484   O.2       1 RES1   0.0000
     6 N1       3.0846   1.6884   3.6546   N.2       1 RES1   0.0000
     7 C1       2.7848   1.9609   4.9451   C.2       1 RES1   0.0000
     8 H1       2.5989   2.8919   5.2802   H         1 RES1   0.0000
     9 N2       1.2011   3.8292   2.1560   N.pl3     1 RES1   0.0000
    10 N3      -0.3719   4.0681   3.6002   N.pl3     1 RES1   0.0000
    11 C2       0.6312   3.2067   3.2342   C.3       1 RES1   0.0000
    12 C3       1.4875  -0.3976   4.0695   C.1       1 RES1   0.0000
    13 C4       0.2525   0.8455   2.3456   C.1       1 RES1   0.0000
    14 C5      -0.0099   1.2996   5.2846   C.1       1 RES1   0.0000
    15 C6       3.2550   1.0413   6.0233   C.ar      1 RES1   0.0000
    16 C7       3.9954  -0.0952   5.7395   C.ar      1 RES1   0.0000
    17 H2       4.2315  -0.2844   4.8387   H         1 RES1   0.0000
    18 C8       4.4021  -0.9646   6.7449   C.ar      1 RES1   0.0000
    19 H3       4.8917  -1.7450   6.5138   H         1 RES1   0.0000
    20 C9       4.1077  -0.7203   8.0787   C.ar      1 RES1   0.0000
    21 C10      3.4143   0.4373   8.3659   C.ar      1 RES1   0.0000
    22 H4       3.2262   0.6510   9.2723   H         1 RES1   0.0000
    23 C11      2.9862   1.2970   7.3675   C.ar      1 RES1   0.0000
    24 H5       2.4994   2.0777   7.6037   H         1 RES1   0.0000
    25 C12      4.5440  -1.6884   9.1653   C.3       1 RES1   0.0000
    26 H6       5.4455  -1.4540   9.4689   H         1 RES1   0.0000
    27 H7       4.5465  -2.6012   8.8079   H         1 RES1   0.0000
    28 H8       3.9208  -1.6353   9.9200   H         1 RES1   0.0000
    29 C13      4.4996   1.2220   1.1369   C.3       1 RES1   0.0000
    30 C14      3.5781  -0.0097   1.0433   C.3       1 RES1   0.0000
    31 H9       3.9873  -0.6804   0.4584   H         1 RES1   0.0000
    32 H10      2.7103   0.2595   0.6751   H         1 RES1   0.0000
    33 H11      3.4493  -0.3899   1.9373   H         1 RES1   0.0000
    34 C15      5.8610   0.7389   1.6928   C.3       1 RES1   0.0000
    35 H12      5.7535   0.4655   2.6277   H         1 RES1   0.0000
    36 H13      6.5132   1.4680   1.6384   H         1 RES1   0.0000
    37 H14      6.1777  -0.0231   1.1640   H         1 RES1   0.0000
    38 C16      4.7044   1.7669  -0.2939   C.3       1 RES1   0.0000
    39 H15      5.0933   1.0658  -0.8577   H         1 RES1   0.0000
    40 H16      5.3086   2.5374  -0.2667   H         1 RES1   0.0000
    41 H17      3.8399   2.0421  -0.6650   H         1 RES1   0.0000
    42 C17      4.8677   3.9270   2.8625   C.3       1 RES1   0.0000
    43 C18      5.7076   4.5098   1.7099   C.3       1 RES1   0.0000
    44 H18      5.1129   4.7906   0.9830   H         1 RES1   0.0000
    45 H19      6.3269   3.8263   1.3794   H         1 RES1   0.0000
    46 H20      6.2150   5.2823   2.0339   H         1 RES1   0.0000
    47 C19      5.8207   3.4377   3.9723   C.3       1 RES1   0.0000
    48 H21      6.3750   4.1857   4.2804   H         1 RES1   0.0000
    49 H22      6.3979   2.7287   3.6188   H         1 RES1   0.0000
    50 H23      5.2971   3.0888   4.7232   H         1 RES1   0.0000
    51 C20      4.0004   5.0635   3.4419   C.3       1 RES1   0.0000
    52 H24      4.5803   5.7738   3.7878   H         1 RES1   0.0000
    53 H25      3.4446   4.7127   4.1690   H         1 RES1   0.0000
    54 H26      3.4242   5.4269   2.7370   H         1 RES1   0.0000
    55 C21      2.2663   3.2508   1.3150   C.3       1 RES1   0.0000
    56 H27      2.6192   3.9560   0.7169   H         1 RES1   0.0000
    57 H28      1.8736   2.5423   0.7458   H         1 RES1   0.0000
    58 C22      0.5717   5.0441   1.8682   C.2       1 RES1   0.0000
    59 C23      1.0017   5.9496   0.7575   C.3       1 RES1   0.0000
    60 H29      0.4026   6.7244   0.7181   H         1 RES1   0.0000
    61 H30      0.9630   5.4638  -0.0931   H         1 RES1   0.0000
    62 H31      1.9187   6.2531   0.9192   H         1 RES1   0.0000
    63 C24     -0.4223   5.1914   2.7683   C.2       1 RES1   0.0000
    64 C25     -1.4028   6.2997   2.9528   C.3       1 RES1   0.0000
    65 H32     -1.1224   6.8622   3.7051   H         1 RES1   0.0000
    66 H33     -2.2892   5.9252   3.1380   H         1 RES1   0.0000
    67 H34     -1.4410   6.8414   2.1370   H         1 RES1   0.0000
    68 C26     -1.3671   3.8380   4.6311   C.ar      1 RES1   0.0000
    69 C27     -1.1734   4.3979   5.9002   C.ar      1 RES1   0.0000
    70 C28     -2.1696   4.1642   6.8590   C.ar      1 RES1   0.0000
    71 H35     -2.0679   4.5243   7.7320   H         1 RES1   0.0000
    72 C29     -3.2935   3.4218   6.5617   C.ar      1 RES1   0.0000
    73 H36     -3.9433   3.2584   7.2351   H         1 RES1   0.0000
    74 C30     -3.4806   2.9122   5.2849   C.ar      1 RES1   0.0000
    75 H37     -4.2692   2.4211   5.0859   H         1 RES1   0.0000
    76 C31     -2.5204   3.1132   4.2866   C.ar      1 RES1   0.0000
    77 C32      0.0488   5.2178   6.2739   C.3       1 RES1   0.0000
    78 H38      0.6484   5.2659   5.4748   H         1 RES1   0.0000
    79 C33     -0.3226   6.6453   6.6758   C.3       1 RES1   0.0000
    80 H39     -0.8270   7.0686   5.9496   H         1 RES1   0.0000
    81 H40      0.4931   7.1593   6.8496   H         1 RES1   0.0000
    82 H41     -0.8739   6.6236   7.4861   H         1 RES1   0.0000
    83 C34      0.8272   4.5619   7.4148   C.3       1 RES1   0.0000
    84 H42      0.3100   4.6288   8.2443   H         1 RES1   0.0000
    85 H43      1.6874   5.0175   7.5283   H         1 RES1   0.0000
    86 H44      0.9836   3.6176   7.2028   H         1 RES1   0.0000
    87 C35     -2.7625   2.5498   2.8907   C.3       1 RES1   0.0000
    88 H45     -1.9118   2.6325   2.3720   H         1 RES1   0.0000
    89 C36     -3.1453   1.0633   2.9417   C.3       1 RES1   0.0000
    90 H46     -2.5023   0.5799   3.5012   H         1 RES1   0.0000
    91 H47     -3.1333   0.6920   2.0348   H         1 RES1   0.0000
    92 H48     -4.0438   0.9703   3.3211   H         1 RES1   0.0000
    93 C37     -3.8449   3.3443   2.1544   C.3       1 RES1   0.0000
    94 H49     -4.6870   3.2890   2.6526   H         1 RES1   0.0000
    95 H50     -3.9709   2.9714   1.2571   H         1 RES1   0.0000
    96 H51     -3.5694   4.2824   2.0824   H         1 RES1   0.0000
    97 O4       7.6562   8.6679   5.0850   O.3       2 RES2   0.0000
    98 C38      8.4204   8.4475   6.1947   C.3       2 RES2   0.0000
    99 H52      7.8500   8.1325   6.9399   H         2 RES2   0.0000
   100 H53      8.8592   9.2902   6.4739   H         2 RES2   0.0000
   101 C39      9.4186   7.4538   5.8864   C.3       2 RES2   0.0000
   102 H54      9.5825   6.8584   6.6605   H         2 RES2   0.0000
   103 H55     10.2722   7.8750   5.6146   H         2 RES2   0.0000
   104 C40      8.7805   6.6832   4.7167   C.3       2 RES2   0.0000
   105 H56      9.3498   6.7306   3.9086   H         2 RES2   0.0000
   106 H57      8.6369   5.7331   4.9546   H         2 RES2   0.0000
   107 C41      7.5257   7.3542   4.5020   C.3       2 RES2   0.0000
   108 H58      6.7886   6.8557   4.9356   H         2 RES2   0.0000
   109 H59      7.3331   7.4244   3.5333   H         2 RES2   0.0000
@<TRIPOS>BOND
     1     1     6   un
     2     2     6    1
     3     3    12    3
     4     4    13    3
     5     5    14    3
     6     6     7    2
     7     7     1   un
     8     8     7    1
     9     9    11    1
    10    10    11    1
    11    11     1    1
    12    12     1    1
    13    13     1    1
    14    14     1    1
    15    15     7    1
    16    16    15   ar
    17    17    16    1
    18    18    16   ar
    19    19    18    1
    20    20    18   ar
    21    21    20   ar
    22    22    21    1
    23    23    15   ar
    24    24    23    1
    25    25    20    1
    26    26    25    1
    27    27    25    1
    28    28    25    1
    29    29     2    1
    30    30    29    1
    31    31    30    1
    32    32    30    1
    33    33    30    1
    34    34    29    1
    35    35    34    1
    36    36    34    1
    37    37    34    1
    38    38    29    1
    39    39    38    1
    40    40    38    1
    41    41    38    1
    42    42     2    1
    43    43    42    1
    44    44    43    1
    45    45    43    1
    46    46    43    1
    47    47    42    1
    48    48    47    1
    49    49    47    1
    50    50    47    1
    51    51    42    1
    52    52    51    1
    53    53    51    1
    54    54    51    1
    55    55     2    1
    56    56    55    1
    57    57    55    1
    58    58     9    1
    59    59    58    1
    60    60    59    1
    61    61    59    1
    62    62    59    1
    63    63    10    1
    64    64    63    1
    65    65    64    1
    66    66    64    1
    67    67    64    1
    68    68    10    1
    69    69    68   ar
    70    70    69   ar
    71    71    70    1
    72    72    70   ar
    73    73    72    1
    74    74    72   ar
    75    75    74    1
    76    76    68   ar
    77    77    69    1
    78    78    77    1
    79    79    77    1
    80    80    79    1
    81    81    79    1
    82    82    79    1
    83    83    77    1
    84    84    83    1
    85    85    83    1
    86    86    83    1
    87    87    76    1
    88    88    87    1
    89    89    87    1
    90    90    89    1
    91    91    89    1
    92    92    89    1
    93    93    87    1
    94    94    93    1
    95    95    93    1
    96    96    93    1
    97     9    55    1
    98    21    23   ar
    99    58    63    2
   100    74    76   ar
   101    97    98    1
   102    98    99    1
   103   100    98    1
   104   101    98    1
   105   102   101    1
   106   103   101    1
   107   104   101    1
   108   105   104    1
   109   106   104    1
   110   107    97    1
   111   108   107    1
   112   109   107    1
   113   104   107    1
@<TRIPOS>SUBSTRUCTURE
     1 RES1        1 GROUP             0 ****  ****    0  
     2 RES2       97 GROUP             0 ****  ****    0  
@<TRIPOS>CRYSIN
   13.5838    8.8169   33.9397   90.0000   98.7280   90.0000    14     1
