@<TRIPOS>MOLECULE
XOWDES
   163   174     4     0     0
SMALL
USER_CHARGES
****
Generated from the CSD

@<TRIPOS>ATOM
     1 Fe1      4.5313   5.8462   2.2358   Fe        1 RES1   2.0000
     2 C1       7.3224   5.1899   1.1379   C.ar      1 RES1   0.0000
     3 H1       7.1657   5.7819   0.4237   H         1 RES1   0.0000
     4 C2       8.5619   4.5748   1.2698   C.ar      1 RES1   0.0000
     5 H2       9.2426   4.7513   0.6474   H         1 RES1   0.0000
     6 C3       8.7945   3.6986   2.3232   C.ar      1 RES1   0.0000
     7 H3       9.6325   3.2825   2.4134   H         1 RES1   0.0000
     8 C4       7.7875   3.4377   3.2452   C.ar      1 RES1   0.0000
     9 H4       7.9443   2.8443   3.9591   H         1 RES1   0.0000
    10 C5       6.5480   4.0528   3.1137   C.ar      1 RES1   0.0000
    11 N1       6.3155   4.9290   2.0599   N.ar      1 RES1   0.0000
    12 C6       5.4278   3.9526   4.0052   C.ar      1 RES1   0.0000
    13 C7       5.3554   3.0354   5.0468   C.ar      1 RES1   0.0000
    14 H5       6.0667   2.4406   5.1997   H         1 RES1   0.0000
    15 C8       4.2307   2.9979   5.8630   C.ar      1 RES1   0.0000
    16 C9       3.1785   3.8775   5.6369   C.ar      1 RES1   0.0000
    17 H6       2.4183   3.8526   6.1894   H         1 RES1   0.0000
    18 C10      3.2510   4.7949   4.5950   C.ar      1 RES1   0.0000
    19 N2       4.3757   4.8322   3.7791   N.ar      1 RES1   0.0000
    20 C11      2.3591   5.7955   4.0706   C.ar      1 RES1   0.0000
    21 C12      1.1224   6.0724   4.6417   C.ar      1 RES1   0.0000
    22 H7       0.8522   5.6196   5.4200   H         1 RES1   0.0000
    23 C13      0.2853   7.0184   4.0618   C.ar      1 RES1   0.0000
    24 H8      -0.5509   7.2060   4.4472   H         1 RES1   0.0000
    25 C14      0.6848   7.6875   2.9107   C.ar      1 RES1   0.0000
    26 H9       0.1189   8.3279   2.5185   H         1 RES1   0.0000
    27 C15      1.9215   7.4107   2.3399   C.ar      1 RES1   0.0000
    28 H10      2.1918   7.8634   1.5626   H         1 RES1   0.0000
    29 N3       2.7586   6.4648   2.9198   N.ar      1 RES1   0.0000
    30 C16      5.8342   7.6913   4.2411   C.ar      1 RES1   0.0000
    31 H11      5.5732   7.0803   4.9048   H         1 RES1   0.0000
    32 C17      6.5611   8.8248   4.5855   C.ar      1 RES1   0.0000
    33 H12      6.7913   8.9812   5.4844   H         1 RES1   0.0000
    34 C18      6.9472   9.7282   3.6022   C.ar      1 RES1   0.0000
    35 H13      7.4387  10.4946   3.8337   H         1 RES1   0.0000
    36 C19      6.6064   9.4979   2.2744   C.ar      1 RES1   0.0000
    37 H14      6.8677  10.1092   1.6101   H         1 RES1   0.0000
    38 C20      5.8794   8.3645   1.9301   C.ar      1 RES1   0.0000
    39 N4       5.4933   7.4611   2.9134   N.ar      1 RES1   0.0000
    40 C21      5.4487   8.0549   0.5637   C.ar      1 RES1   0.0000
    41 C22      5.6953   8.6698  -0.6583   C.ar      1 RES1   0.0000
    42 H15      6.2133   9.4539  -0.6949   H         1 RES1   0.0000
    43 C23      5.1761   8.1257  -1.8273   C.ar      1 RES1   0.0000
    44 C24      4.4104   6.9669  -1.7745   C.ar      1 RES1   0.0000
    45 H16      4.0590   6.5995  -2.5659   H         1 RES1   0.0000
    46 C25      4.1639   6.3520  -0.5522   C.ar      1 RES1   0.0000
    47 N5       4.6831   6.8961   0.6166   N.ar      1 RES1   0.0000
    48 C26      3.4669   5.0400  -0.2427   C.ar      1 RES1   0.0000
    49 C27      2.7677   4.3291  -1.2111   C.ar      1 RES1   0.0000
    50 H17      2.6937   4.6722  -2.0846   H         1 RES1   0.0000
    51 C28      2.1780   3.1121  -0.8898   C.ar      1 RES1   0.0000
    52 H18      1.7053   2.6313  -1.5457   H         1 RES1   0.0000
    53 C29      2.2875   2.6061   0.4003   C.ar      1 RES1   0.0000
    54 H19      1.8883   1.7833   0.6169   H         1 RES1   0.0000
    55 C30      2.9866   3.3172   1.3687   C.ar      1 RES1   0.0000
    56 H20      3.0606   2.9741   2.2405   H         1 RES1   0.0000
    57 N6       3.5764   4.5340   1.0471   N.ar      1 RES1   0.0000
    58 C31      4.9689   1.2558   7.2741   C.3       1 RES1   0.0000
    59 H21      5.7891   1.7407   7.4978   H         1 RES1   0.0000
    60 H22      5.1617   0.6492   6.5284   H         1 RES1   0.0000
    61 C32      4.4841   0.4544   8.4910   C.3       1 RES1   0.0000
    62 H23      5.2222  -0.0669   8.8672   H         1 RES1   0.0000
    63 H24      4.1476   1.0631   9.1825   H         1 RES1   0.0000
    64 C33      2.9910  -1.1280   9.2062   C.3       1 RES1   0.0000
    65 H25      2.4334  -0.5538   9.7723   H         1 RES1   0.0000
    66 H26      3.7540  -1.4445   9.7350   H         1 RES1   0.0000
    67 C34      2.1796  -2.3107   8.6774   C.3       1 RES1   0.0000
    68 H27      2.6708  -2.7489   7.9521   H         1 RES1   0.0000
    69 H28      2.0398  -2.9640   9.3926   H         1 RES1   0.0000
    70 C35      0.1783  -2.9903   7.7792   C.3       1 RES1   0.0000
    71 H29      0.0991  -3.6193   8.5283   H         1 RES1   0.0000
    72 H30      0.6536  -3.4428   7.0504   H         1 RES1   0.0000
    73 C36     -1.2140  -2.5846   7.3046   C.3       1 RES1   0.0000
    74 H31     -1.7613  -3.3799   7.1318   H         1 RES1   0.0000
    75 H32     -1.6618  -2.0409   7.9859   H         1 RES1   0.0000
    76 C37     -2.1004  -1.5540   5.2946   C.ar      1 RES1   0.0000
    77 C38     -3.3515  -2.0794   5.5963   C.ar      1 RES1   0.0000
    78 H33     -3.4705  -2.5907   6.3759   H         1 RES1   0.0000
    79 C39     -4.4262  -1.8522   4.7455   C.ar      1 RES1   0.0000
    80 H34     -5.2712  -2.2093   4.9488   H         1 RES1   0.0000
    81 C40     -4.2495  -1.0996   3.5896   C.ar      1 RES1   0.0000
    82 H35     -4.9765  -0.9454   3.0134   H         1 RES1   0.0000
    83 C41     -2.9994  -0.5721   3.2879   C.ar      1 RES1   0.0000
    84 C42     -1.9247  -0.8013   4.1387   C.ar      1 RES1   0.0000
    85 H36     -1.0795  -0.4443   3.9320   H         1 RES1   0.0000
    86 C43     -2.7034   0.2455   2.0880   C.ar      1 RES1   0.0000
    87 C44     -1.4567   0.3550   1.4813   C.ar      1 RES1   0.0000
    88 H37     -0.7143  -0.0913   1.8473   H         1 RES1   0.0000
    89 C45     -1.3113   1.1138   0.3559   C.ar      1 RES1   0.0000
    90 H38     -0.4616   1.2071  -0.0373   H         1 RES1   0.0000
    91 C46     -2.3659   1.7285  -0.1966   C.ar      1 RES1   0.0000
    92 N7      -3.5875   1.6575   0.3390   N.ar      1 RES1   0.0000
    93 C47     -3.7589   0.8967   1.5016   C.ar      1 RES1   0.0000
    94 H39     -4.6129   0.8338   1.8880   H         1 RES1   0.0000
    95 C48     -2.2023   2.6008  -1.3731   C.ar      1 RES1   0.0000
    96 C49     -3.2486   3.3961  -1.8270   C.ar      1 RES1   0.0000
    97 H40     -4.0743   3.3880  -1.3762   H         1 RES1   0.0000
    98 C50     -3.0742   4.2015  -2.9459   C.ar      1 RES1   0.0000
    99 H41     -3.7812   4.7391  -3.2540   H         1 RES1   0.0000
   100 C51     -1.8534   4.2137  -3.6110   C.ar      1 RES1   0.0000
   101 C52     -0.8070   3.4184  -3.1571   C.ar      1 RES1   0.0000
   102 H42      0.0176   3.4265  -3.6066   H         1 RES1   0.0000
   103 N8      -0.9815   2.6130  -2.0382   N.ar      1 RES1   0.0000
   104 C53     -1.6367   5.0170  -4.8170   C.ar      1 RES1   0.0000
   105 C54     -2.6207   5.1550  -5.7891   C.ar      1 RES1   0.0000
   106 H43     -3.4701   4.7777  -5.6539   H         1 RES1   0.0000
   107 C55     -2.3483   5.8529  -6.9599   C.ar      1 RES1   0.0000
   108 H44     -3.0135   5.9462  -7.6165   H         1 RES1   0.0000
   109 C56     -1.0910   6.4128  -7.1589   C.ar      1 RES1   0.0000
   110 H45     -0.9067   6.8835  -7.9521   H         1 RES1   0.0000
   111 C57     -0.1071   6.2749  -6.1871   C.ar      1 RES1   0.0000
   112 C58     -0.3795   5.5770  -5.0160   C.ar      1 RES1   0.0000
   113 H46      0.2857   5.4837  -4.3591   H         1 RES1   0.0000
   114 C59      2.1091   6.8226  -5.5963   C.3       1 RES1   0.0000
   115 H47      2.2732   5.8955  -5.3285   H         1 RES1   0.0000
   116 H48      1.8582   7.3339  -4.7997   H         1 RES1   0.0000
   117 C60      3.3716   7.4211  -6.2301   C.3       1 RES1   0.0000
   118 H49      4.1393   7.2852  -5.6369   H         1 RES1   0.0000
   119 H50      3.5586   6.9768  -7.0843   H         1 RES1   0.0000
   120 C61      4.1924   9.3707  -7.2945   C.3       1 RES1   0.0000
   121 H51      3.9849  10.3120  -7.4707   H         1 RES1   0.0000
   122 H52      4.1759   8.9000  -8.1554   H         1 RES1   0.0000
   123 C62      5.6030   9.2794  -6.7148   C.3       1 RES1   0.0000
   124 H53      5.8665   8.3401  -6.6165   H         1 RES1   0.0000
   125 H54      6.2421   9.7196  -7.3114   H         1 RES1   0.0000
   126 C63      6.7345   9.5594  -4.6472   C.3       1 RES1   0.0000
   127 H55      7.4691  10.1883  -4.8133   H         1 RES1   0.0000
   128 H56      7.0401   8.6606  -4.8878   H         1 RES1   0.0000
   129 C64      6.3405   9.6020  -3.1727   C.3       1 RES1   0.0000
   130 H57      7.1154   9.4539  -2.5897   H         1 RES1   0.0000
   131 H58      5.9195  10.4561  -2.9388   H         1 RES1   0.0000
   132 O1       3.9357   2.1789   6.9013   O.3       1 RES1   0.0000
   133 O2       3.4408  -0.4139   8.0504   O.3       1 RES1   0.0000
   134 O3       0.9215  -1.8502   8.1961   O.3       1 RES1   0.0000
   135 O4      -1.0312  -1.8259   6.0945   O.3       1 RES1   0.0000
   136 O5       1.0639   6.8774  -6.5589   O.3       1 RES1   0.0000
   137 O6       3.1693   8.8189  -6.4471   O.3       1 RES1   0.0000
   138 O7       5.6018   9.9164  -5.4471   O.3       1 RES1   0.0000
   139 O8       5.4064   8.5166  -3.0812   O.3       1 RES1   0.0000
   140 P1       7.4986   5.4492   7.3338   P.3       2 RES2  -1.0000
   141 F1       5.9329   5.4553   7.3148   F         2 RES2   0.0000
   142 F2       7.5295   5.4005   5.7318   F         2 RES2   0.0000
   143 F3       7.4555   7.0661   7.2945   F         2 RES2   0.0000
   144 F4       7.5064   3.8140   7.3623   F         2 RES2   0.0000
   145 F5       7.5051   5.5060   8.9147   F         2 RES2   0.0000
   146 F6       9.0640   5.4411   7.3419   F         2 RES2   0.0000
   147 P2       9.2714  12.4686   1.3355   P.3       3 RES3  -1.0000
   148 F7       9.6164  11.0830   1.9389   F         3 RES3   0.0000
   149 F8       8.0102  11.8437   0.6067   F         3 RES3   0.0000
   150 F9      10.1813  12.1562   0.0847   F         3 RES3   0.0000
   151 F10      8.8975  13.8096   0.6135   F         3 RES3   0.0000
   152 F11      8.3247  12.8358   2.5219   F         3 RES3   0.0000
   153 F12     10.5235  13.1036   2.0439   F         3 RES3   0.0000
   154 C65      1.9280  -0.3003   4.9421   C.3       4 RES4   0.0000
   155 H59      1.3268  -1.0387   5.1285   H         4 RES4   0.0000
   156 H60      2.6692  -0.3205   5.5658   H         4 RES4   0.0000
   157 H61      2.2669  -0.3814   4.0370   H         4 RES4   0.0000
   158 C66      1.1681   1.0306   5.0878   C.2       4 RES4   0.0000
   159 C67      0.5434   1.3227   6.4538   C.3       4 RES4   0.0000
   160 H62      0.6429   2.2661   6.6606   H         4 RES4   0.0000
   161 H63      0.9909   0.7953   7.1352   H         4 RES4   0.0000
   162 H64     -0.3991   1.0955   6.4335   H         4 RES4   0.0000
   163 O9       1.1305   1.6960   4.0709   O.2       4 RES4   0.0000
@<TRIPOS>BOND
     1     1    11    1
     2     2     3    1
     3     4     2   ar
     4     5     4    1
     5     6     4   ar
     6     7     6    1
     7     8     6   ar
     8     9     8    1
     9    10     8   ar
    10    11     2   ar
    11    12    10    1
    12    13    12   ar
    13    14    13    1
    14    15    13   ar
    15    16    15   ar
    16    17    16    1
    17    18    16   ar
    18    19     1    1
    19    20    18    1
    20    21    20   ar
    21    22    21    1
    22    23    21   ar
    23    24    23    1
    24    25    23   ar
    25    26    25    1
    26    27    25   ar
    27    28    27    1
    28    29     1    1
    29    30    31    1
    30    32    30   ar
    31    33    32    1
    32    34    32   ar
    33    35    34    1
    34    36    34   ar
    35    37    36    1
    36    38    36   ar
    37    39     1    1
    38    40    38    1
    39    41    40   ar
    40    42    41    1
    41    43    41   ar
    42    44    43   ar
    43    45    44    1
    44    46    44   ar
    45    47     1    1
    46    48    46    1
    47    49    48   ar
    48    50    49    1
    49    51    49   ar
    50    52    51    1
    51    53    51   ar
    52    54    53    1
    53    55    53   ar
    54    56    55    1
    55    57     1    1
    56    58    59    1
    57    60    58    1
    58    61    58    1
    59    62    61    1
    60    63    61    1
    61    64    65    1
    62    66    64    1
    63    67    64    1
    64    68    67    1
    65    69    67    1
    66    70    71    1
    67    72    70    1
    68    73    70    1
    69    74    73    1
    70    75    73    1
    71    76    77   ar
    72    77    78    1
    73    79    77   ar
    74    80    79    1
    75    81    79   ar
    76    82    81    1
    77    83    81   ar
    78    84    76   ar
    79    85    84    1
    80    86    83    1
    81    87    86   ar
    82    88    87    1
    83    89    87   ar
    84    90    89    1
    85    91    89   ar
    86    92    91   ar
    87    93    86   ar
    88    94    93    1
    89    95    91    1
    90    96    95   ar
    91    97    96    1
    92    98    96   ar
    93    99    98    1
    94   100    98   ar
    95   101   100   ar
    96   102   101    1
    97   103    95   ar
    98   104   100    1
    99   105   104   ar
   100   106   105    1
   101   107   105   ar
   102   108   107    1
   103   109   107   ar
   104   110   109    1
   105   111   109   ar
   106   112   104   ar
   107   113   112    1
   108   114   115    1
   109   116   114    1
   110   117   114    1
   111   118   117    1
   112   119   117    1
   113   120   121    1
   114   122   120    1
   115   123   120    1
   116   124   123    1
   117   125   123    1
   118   126   127    1
   119   128   126    1
   120   129   126    1
   121   130   129    1
   122   131   129    1
   123   132    15    1
   124   133    61    1
   125   134    67    1
   126   135    73    1
   127   136   111    1
   128   137   117    1
   129   138   123    1
   130   139    43    1
   131    10    11   ar
   132    12    19   ar
   133    18    19   ar
   134    20    29   ar
   135    27    29   ar
   136    30    39   ar
   137    38    39   ar
   138    40    47   ar
   139    46    47   ar
   140    48    57   ar
   141    55    57   ar
   142    58   132    1
   143    64   133    1
   144    70   134    1
   145    76   135    1
   146    83    84   ar
   147    92    93   ar
   148   101   103   ar
   149   111   112   ar
   150   114   136    1
   151   120   137    1
   152   126   138    1
   153   129   139    1
   154   140   141    1
   155   142   140    1
   156   143   140    1
   157   144   140    1
   158   145   140    1
   159   146   140    1
   160   147   148    1
   161   149   147    1
   162   150   147    1
   163   151   147    1
   164   152   147    1
   165   153   147    1
   166   154   155    1
   167   156   154    1
   168   157   154    1
   169   158   154    1
   170   159   158    1
   171   160   159    1
   172   161   159    1
   173   162   159    1
   174   163   158    2
@<TRIPOS>SUBSTRUCTURE
     1 RES1        1 GROUP             0 ****  ****    0  
     2 RES2      140 GROUP             0 ****  ****    0  
     3 RES3      147 GROUP             0 ****  ****    0  
     4 RES4      154 GROUP             0 ****  ****    0  
@<TRIPOS>CRYSIN
    9.4845   20.2873   33.9574   90.0000   93.4400   90.0000   231     1
