@<TRIPOS>MOLECULE
XUCWAV
   146   157     4     0     0
SMALL
USER_CHARGES
****
Generated from the CSD

@<TRIPOS>ATOM
     1 Fe1      1.1251  11.5573   3.9914   Fe        1 RES1   2.0000
     2 P1       1.9568  12.7515   5.6278   P.3       1 RES1   0.0000
     3 P2       0.2038  10.3498   5.6061   P.3       1 RES1   0.0000
     4 N1       2.7471  10.3218   3.8879   N.3       1 RES1   0.0000
     5 H1       2.6741   9.7037   4.6709   H         1 RES1   0.0000
     6 N2       0.3673  10.2923   2.5621   N.3       1 RES1   0.0000
     7 H2       0.5711  10.7450   1.6942   H         1 RES1   0.0000
     8 C1       4.0653  11.0169   4.0313   C.3       1 RES1   0.0000
     9 H3       4.7822  10.4507   3.6494   H         1 RES1   0.0000
    10 H4       4.0464  11.8704   3.5299   H         1 RES1   0.0000
    11 C2       4.3521  11.2860   5.4719   C.ar      1 RES1   0.0000
    12 C3       5.4929  10.7170   6.0399   C.ar      1 RES1   0.0000
    13 H5       6.0878  10.2166   5.4945   H         1 RES1   0.0000
    14 C4       5.7684  10.8697   7.3805   C.ar      1 RES1   0.0000
    15 H6       6.5394  10.4563   7.7514   H         1 RES1   0.0000
    16 C5       4.9432  11.6125   8.1914   C.ar      1 RES1   0.0000
    17 H7       5.1483  11.7274   9.1124   H         1 RES1   0.0000
    18 C6       3.8125  12.1871   7.6527   C.ar      1 RES1   0.0000
    19 H8       3.2326  12.6874   8.2134   H         1 RES1   0.0000
    20 C7       3.5043  12.0512   6.3045   C.ar      1 RES1   0.0000
    21 C8       2.3182  14.5317   5.4285   C.ar      1 RES1   0.0000
    22 C9       3.5860  15.0699   5.7089   C.ar      1 RES1   0.0000
    23 H9       4.2879  14.5037   6.0100   H         1 RES1   0.0000
    24 C10      3.8074  16.4223   5.5451   C.ar      1 RES1   0.0000
    25 H10      4.6678  16.7825   5.7271   H         1 RES1   0.0000
    26 C11      2.7898  17.2562   5.1204   C.ar      1 RES1   0.0000
    27 H11      2.9521  18.1853   5.0136   H         1 RES1   0.0000
    28 C12      1.5295  16.7348   4.8470   C.ar      1 RES1   0.0000
    29 H12      0.8302  17.3080   4.5578   H         1 RES1   0.0000
    30 C13      1.3018  15.3880   4.9985   C.ar      1 RES1   0.0000
    31 H13      0.4402  15.0349   4.8092   H         1 RES1   0.0000
    32 C14      0.7107  12.7617   6.9649   C.3       1 RES1   0.0000
    33 H14      1.1484  13.0112   7.8174   H         1 RES1   0.0000
    34 H15      0.0226  13.4442   6.7644   H         1 RES1   0.0000
    35 C15      0.0377  11.3911   7.1215   C.3       1 RES1   0.0000
    36 H16     -0.9232  11.5228   7.3207   H         1 RES1   0.0000
    37 H17      0.4440  10.9160   7.8897   H         1 RES1   0.0000
    38 C16      1.0452   8.8516   6.1936   C.ar      1 RES1   0.0000
    39 C17      0.6478   7.5861   5.7529   C.ar      1 RES1   0.0000
    40 H18     -0.1283   7.5006   5.2116   H         1 RES1   0.0000
    41 C18      1.3723   6.4537   6.0942   C.ar      1 RES1   0.0000
    42 H19      1.0817   5.6002   5.7931   H         1 RES1   0.0000
    43 C19      2.5056   6.5588   6.8618   C.ar      1 RES1   0.0000
    44 H20      3.0112   5.7838   7.0787   H         1 RES1   0.0000
    45 C20      2.9043   7.7949   7.3204   C.ar      1 RES1   0.0000
    46 H21      3.6854   7.8622   7.8551   H         1 RES1   0.0000
    47 C21      2.1873   8.9441   7.0152   C.ar      1 RES1   0.0000
    48 H22      2.4653   9.7850   7.3553   H         1 RES1   0.0000
    49 C22     -1.4440   9.7401   5.1314   C.ar      1 RES1   0.0000
    50 C23     -2.3068   9.3533   6.1734   C.ar      1 RES1   0.0000
    51 H23     -2.0062   9.3730   7.0724   H         1 RES1   0.0000
    52 C24     -3.6049   8.9441   5.8780   C.ar      1 RES1   0.0000
    53 H24     -4.1973   8.6905   6.5758   H         1 RES1   0.0000
    54 C25     -4.0175   8.9119   4.5641   C.ar      1 RES1   0.0000
    55 H25     -4.9080   8.6484   4.3629   H         1 RES1   0.0000
    56 C26     -3.1672   9.2524   3.5425   C.ar      1 RES1   0.0000
    57 H26     -3.4741   9.2062   2.6467   H         1 RES1   0.0000
    58 C27     -1.8465   9.6701   3.7990   C.ar      1 RES1   0.0000
    59 C28     -1.1144  10.0681   2.5341   C.3       1 RES1   0.0000
    60 H27     -1.2943   9.3688   1.8577   H         1 RES1   0.0000
    61 H28     -1.5320  10.9034   2.2035   H         1 RES1   0.0000
    62 C29      1.1773   9.0464   2.5341   C.3       1 RES1   0.0000
    63 H29      0.9371   8.5055   3.3382   H         1 RES1   0.0000
    64 C30      2.6389   9.4627   2.6683   C.3       1 RES1   0.0000
    65 H30      2.9018   9.9980   1.8671   H         1 RES1   0.0000
    66 C31      3.5232   8.2266   2.7557   C.3       1 RES1   0.0000
    67 H31      4.4716   8.5055   2.8164   H         1 RES1   0.0000
    68 H32      3.2993   7.7206   3.5771   H         1 RES1   0.0000
    69 C32      3.3420   7.3254   1.5437   C.3       1 RES1   0.0000
    70 H33      3.8892   6.5084   1.6534   H         1 RES1   0.0000
    71 H34      3.6515   7.7963   0.7292   H         1 RES1   0.0000
    72 C33      1.8729   6.9386   1.3831   C.3       1 RES1   0.0000
    73 H35      1.7622   6.4033   0.5595   H         1 RES1   0.0000
    74 H36      1.5949   6.3780   2.1500   H         1 RES1   0.0000
    75 C34      0.9824   8.1719   1.3098   C.3       1 RES1   0.0000
    76 H37      1.2025   8.6905   0.4966   H         1 RES1   0.0000
    77 H38      0.0352   7.8930   1.2510   H         1 RES1   0.0000
    78 C35      1.8377  12.7365   2.6992   C.1       1 RES1   0.0000
    79 N3       2.2389  13.5353   1.9705   N.1       1 RES1   0.0000
    80 C36      2.7081  14.5906   1.0904   C.3       1 RES1   0.0000
    81 C37      1.5270  15.5254   0.7890   C.3       1 RES1   0.0000
    82 H39      1.1723  15.9066   1.6314   H         1 RES1   0.0000
    83 H40      0.8012  15.0237   0.3426   H         1 RES1   0.0000
    84 C38      3.8087  15.3782   1.8197   C.3       1 RES1   0.0000
    85 H41      3.4527  15.7580   2.6624   H         1 RES1   0.0000
    86 H42      4.5646  14.7784   2.0431   H         1 RES1   0.0000
    87 C39      3.2653  13.9824  -0.1921   C.3       1 RES1   0.0000
    88 H43      4.0213  13.3783   0.0220   H         1 RES1   0.0000
    89 H44      2.5647  13.4540  -0.6507   H         1 RES1   0.0000
    90 C40      2.0352  16.6479  -0.1257   C.3       1 RES1   0.0000
    91 H45      1.2779  17.2646  -0.3458   H         1 RES1   0.0000
    92 C41      4.2829  16.5022   0.8924   C.3       1 RES1   0.0000
    93 H46      4.9998  17.0235   1.3548   H         1 RES1   0.0000
    94 C42      3.7382  15.1063  -1.0939   C.3       1 RES1   0.0000
    95 H47      4.0992  14.7223  -1.9426   H         1 RES1   0.0000
    96 C43      3.1219  17.4244   0.5847   C.3       1 RES1   0.0000
    97 H48      2.7647  17.8041   1.4271   H         1 RES1   0.0000
    98 H49      3.4288  18.1713   0.0126   H         1 RES1   0.0000
    99 C44      4.8439  15.9150  -0.3835   C.3       1 RES1   0.0000
   100 H50      5.6111  15.3250  -0.1760   H         1 RES1   0.0000
   101 H51      5.1621  16.6409  -0.9776   H         1 RES1   0.0000
   102 C45      2.5760  16.0439  -1.4082   C.3       1 RES1   0.0000
   103 H52      2.8842  16.7657  -2.0117   H         1 RES1   0.0000
   104 H53      1.8591  15.5422  -1.8703   H         1 RES1   0.0000
   105 C46     -0.4365  12.5333   3.9756   C.1       1 RES1   0.0000
   106 N4      -1.4465  13.0896   3.9288   N.1       1 RES1   0.0000
   107 C47     -2.7999  13.6404   3.8411   C.3       1 RES1   0.0000
   108 C48     -3.4779  13.1163   2.5706   C.3       1 RES1   0.0000
   109 H54     -3.5131  12.1268   2.5869   H         1 RES1   0.0000
   110 H55     -2.9659  13.3980   1.7728   H         1 RES1   0.0000
   111 C49     -2.7257  15.1666   3.8223   C.3       1 RES1   0.0000
   112 H56     -2.2075  15.4707   3.0364   H         1 RES1   0.0000
   113 H57     -2.2741  15.4945   4.6395   H         1 RES1   0.0000
   114 C50     -3.5609  13.1625   5.0802   C.3       1 RES1   0.0000
   115 H58     -3.1068  13.4792   5.9000   H         1 RES1   0.0000
   116 H59     -3.5898  12.1731   5.1016   H         1 RES1   0.0000
   117 C51     -4.8992  13.6909   2.5162   C.3       1 RES1   0.0000
   118 H60     -5.3583  13.3615   1.6911   H         1 RES1   0.0000
   119 C52     -4.1609  15.7244   3.7531   C.3       1 RES1   0.0000
   120 H61     -4.1282  16.7236   3.7374   H         1 RES1   0.0000
   121 C53     -4.9948  13.7315   5.0161   C.3       1 RES1   0.0000
   122 H62     -5.5130  13.4302   5.8151   H         1 RES1   0.0000
   123 C54     -4.8439  15.2213   2.4895   C.3       1 RES1   0.0000
   124 H63     -4.3407  15.5254   1.6911   H         1 RES1   0.0000
   125 H64     -5.7608  15.5898   2.4329   H         1 RES1   0.0000
   126 C55     -4.9395  15.2591   4.9853   C.3       1 RES1   0.0000
   127 H65     -4.4980  15.5954   5.8057   H         1 RES1   0.0000
   128 H66     -5.8589  15.6263   4.9570   H         1 RES1   0.0000
   129 C56     -5.6690  13.2228   3.7437   C.3       1 RES1   0.0000
   130 H67     -5.7017  12.2333   3.7594   H         1 RES1   0.0000
   131 H68     -6.5985  13.5619   3.7028   H         1 RES1   0.0000
   132 B1       6.5558   9.5804   0.8770   B         2 RES2  -1.0000
   133 F1       6.7004   8.6274   1.8580   F         2 RES2   0.0000
   134 F2       5.7445  10.6133   1.2727   F         2 RES2   0.0000
   135 F3       7.7733  10.0387   0.4407   F         2 RES2   0.0000
   136 F4       5.9520   8.9876  -0.2153   F         2 RES2   0.0000
   137 B2      -2.0226  18.7277   4.9664   B         3 RES3  -1.0000
   138 F5      -1.8100  17.7131   5.9078   F         3 RES3   0.0000
   139 F6      -1.7534  19.9063   5.6325   F         3 RES3   0.0000
   140 F7      -3.3508  18.7726   4.6367   F         3 RES3   0.0000
   141 F8      -1.2717  18.4979   3.8835   F         3 RES3   0.0000
   142 Cl1      5.6618   6.8739   5.4250   Cl        4 RES4   0.0000
   143 Cl2      5.7325   4.6426   3.5623   Cl        4 RES4   0.0000
   144 C57      6.4815   6.1594   4.0203   C.3       4 RES4   0.0000
   145 H69      6.4400   6.7915   3.2596   H         4 RES4   0.0000
   146 H70      7.4337   6.0039   4.2403   H         4 RES4   0.0000
@<TRIPOS>BOND
     1     1     2    1
     2     2    20    1
     3     3     1    1
     4     4     1    1
     5     5     4    1
     6     6     1    1
     7     7     6    1
     8     8     4    1
     9     9     8    1
    10    10     8    1
    11    11     8    1
    12    12    11   ar
    13    13    12    1
    14    14    12   ar
    15    15    14    1
    16    16    14   ar
    17    17    16    1
    18    18    16   ar
    19    19    18    1
    20    20    11   ar
    21    21     2    1
    22    22    21   ar
    23    23    22    1
    24    24    22   ar
    25    25    24    1
    26    26    24   ar
    27    27    26    1
    28    28    26   ar
    29    29    28    1
    30    30    21   ar
    31    31    30    1
    32    32     2    1
    33    33    32    1
    34    34    32    1
    35    35     3    1
    36    36    35    1
    37    37    35    1
    38    38     3    1
    39    39    38   ar
    40    40    39    1
    41    41    39   ar
    42    42    41    1
    43    43    41   ar
    44    44    43    1
    45    45    43   ar
    46    46    45    1
    47    47    38   ar
    48    48    47    1
    49    49     3    1
    50    50    49   ar
    51    51    50    1
    52    52    50   ar
    53    53    52    1
    54    54    52   ar
    55    55    54    1
    56    56    54   ar
    57    57    56    1
    58    58    49   ar
    59    59     6    1
    60    60    59    1
    61    61    59    1
    62    62     6    1
    63    63    62    1
    64    64     4    1
    65    65    64    1
    66    66    64    1
    67    67    66    1
    68    68    66    1
    69    69    66    1
    70    70    69    1
    71    71    69    1
    72    72    69    1
    73    73    72    1
    74    74    72    1
    75    75    62    1
    76    76    75    1
    77    77    75    1
    78    78     1    1
    79    79    78    3
    80    80    79    1
    81    81    80    1
    82    82    81    1
    83    83    81    1
    84    84    80    1
    85    85    84    1
    86    86    84    1
    87    87    80    1
    88    88    87    1
    89    89    87    1
    90    90    81    1
    91    91    90    1
    92    92    84    1
    93    93    92    1
    94    94    87    1
    95    95    94    1
    96    96    90    1
    97    97    96    1
    98    98    96    1
    99    99    92    1
   100   100    99    1
   101   101    99    1
   102   102    90    1
   103   103   102    1
   104   104   102    1
   105   105     1    1
   106   106   105    3
   107   107   106    1
   108   108   107    1
   109   109   108    1
   110   110   108    1
   111   111   107    1
   112   112   111    1
   113   113   111    1
   114   114   107    1
   115   115   114    1
   116   116   114    1
   117   117   108    1
   118   118   117    1
   119   119   111    1
   120   120   119    1
   121   121   114    1
   122   122   121    1
   123   123   117    1
   124   124   123    1
   125   125   123    1
   126   126   119    1
   127   127   126    1
   128   128   126    1
   129   129   117    1
   130   130   129    1
   131   131   129    1
   132    18    20   ar
   133    28    30   ar
   134    32    35    1
   135    45    47   ar
   136    56    58   ar
   137    58    59    1
   138    62    64    1
   139    72    75    1
   140    92    96    1
   141    94    99    1
   142    94   102    1
   143   119   123    1
   144   121   126    1
   145   121   129    1
   146   132   133    1
   147   134   132    1
   148   135   132    1
   149   136   132    1
   150   137   138    1
   151   139   137    1
   152   140   137    1
   153   141   137    1
   154   142   144    1
   155   143   144    1
   156   144   145    1
   157   146   144    1
@<TRIPOS>SUBSTRUCTURE
     1 RES1        1 GROUP             0 ****  ****    0  
     2 RES2      132 GROUP             0 ****  ****    0  
     3 RES3      137 GROUP             0 ****  ****    0  
     4 RES4      142 GROUP             0 ****  ****    0  
@<TRIPOS>CRYSIN
   12.5782   14.0146   31.4330   90.0000   90.0000   90.0000    19     1
