@<TRIPOS>MOLECULE
XUGCEJ
   126   130     5     0     0
SMALL
USER_CHARGES
****
Generated from the CSD

@<TRIPOS>ATOM
     1 C1      -4.8246  21.2436   5.7660   C.ar      1 RES1   0.0000
     2 C2      -5.9343  21.1059   4.9400   C.ar      1 RES1   0.0000
     3 H1      -5.8453  20.7020   4.1067   H         1 RES1   0.0000
     4 C3      -7.1733  21.5704   5.3611   C.ar      1 RES1   0.0000
     5 H2      -7.9173  21.4786   4.8098   H         1 RES1   0.0000
     6 C4      -7.3047  22.1725   6.6065   C.ar      1 RES1   0.0000
     7 H3      -8.1346  22.4827   6.8885   H         1 RES1   0.0000
     8 C5      -6.1950  22.3102   7.4325   C.ar      1 RES1   0.0000
     9 H4      -6.2841  22.7140   8.2658   H         1 RES1   0.0000
    10 C6      -4.9539  21.8457   7.0114   C.ar      1 RES1   0.0000
    11 H5      -4.2120  21.9375   7.5645   H         1 RES1   0.0000
    12 C7      -3.4510  20.7039   5.3033   C.3       1 RES1   0.0000
    13 H6      -3.6142  20.0026   4.6381   H         1 RES1   0.0000
    14 C8      -2.7419  21.8549   4.6001   C.3       1 RES1   0.0000
    15 H7      -2.7218  22.6204   5.1785   H         1 RES1   0.0000
    16 H8      -3.2125  22.0752   3.7922   H         1 RES1   0.0000
    17 H9      -1.8421  21.5924   4.3850   H         1 RES1   0.0000
    18 C9      -1.6661  20.6415   6.8632   C.2       1 RES1   0.0000
    19 H10     -1.3047  21.4143   6.4944   H         1 RES1   0.0000
    20 C10     -1.0715  19.9310   7.9910   C.2       1 RES1   0.0000
    21 C11     -0.9115  18.3688   9.4099   C.2       1 RES1   0.0000
    22 H11     -1.1150  17.6161   9.9161   H         1 RES1   0.0000
    23 C12      0.2130  19.1673   9.5853   C.2       1 RES1   0.0000
    24 H12      0.9062  19.0462  10.1944   H         1 RES1   0.0000
    25 C13      1.0790  21.2583   8.4357   C.3       1 RES1   0.0000
    26 H13      0.9634  21.6419   7.5518   H         1 RES1   0.0000
    27 H14      1.9756  20.8911   8.4935   H         1 RES1   0.0000
    28 C14      0.8903  22.3230   9.4859   C.2       1 RES1   0.0000
    29 H15      0.0848  22.7856   9.5130   H         1 RES1   0.0000
    30 C15      1.8198  22.6223  10.3679   C.2       1 RES1   0.0000
    31 H16      2.6338  22.1707  10.3589   H         1 RES1   0.0000
    32 H17      1.6630  23.2868  11.0006   H         1 RES1   0.0000
    33 C16     -0.3392  18.2917   5.1243   C.ar      1 RES1   0.0000
    34 C17     -0.0488  19.2609   4.1826   C.ar      1 RES1   0.0000
    35 H18     -0.6529  19.4115   3.4939   H         1 RES1   0.0000
    36 C18      1.1118  20.0118   4.2278   C.ar      1 RES1   0.0000
    37 H19      1.2814  20.6543   3.5771   H         1 RES1   0.0000
    38 C19      2.0170  19.7952   5.2581   C.ar      1 RES1   0.0000
    39 H20      2.7939  20.3037   5.3051   H         1 RES1   0.0000
    40 C20      1.7711  18.8259   6.2197   C.ar      1 RES1   0.0000
    41 H21      2.3900  18.6753   6.8975   H         1 RES1   0.0000
    42 C21      0.6010  18.0769   6.1673   C.ar      1 RES1   0.0000
    43 H22      0.4314  17.4344   6.8198   H         1 RES1   0.0000
    44 C22     -1.5209  17.3940   4.9418   C.3       1 RES1   0.0000
    45 H23     -2.1664  17.8584   4.3706   H         1 RES1   0.0000
    46 C23     -1.0588  16.1346   4.2007   C.3       1 RES1   0.0000
    47 H24     -0.3466  15.7161   4.6923   H         1 RES1   0.0000
    48 H25     -0.7419  16.3751   3.3258   H         1 RES1   0.0000
    49 H26     -1.7933  15.5233   4.1175   H         1 RES1   0.0000
    50 C24     -2.1155  15.8978   6.7222   C.2       1 RES1   0.0000
    51 H27     -1.6365  15.2186   6.3028   H         1 RES1   0.0000
    52 C25     -2.8341  15.7142   7.9657   C.2       1 RES1   0.0000
    53 C26     -4.1389  16.3219   9.5780   C.2       1 RES1   0.0000
    54 H28     -4.6794  16.8432  10.1293   H         1 RES1   0.0000
    55 C27     -3.8665  14.9726   9.7588   C.2       1 RES1   0.0000
    56 H29     -4.1940  14.4237  10.4348   H         1 RES1   0.0000
    57 C28     -2.4865  13.2433   8.4990   C.3       1 RES1   0.0000
    58 H30     -1.6842  13.2965   7.9549   H         1 RES1   0.0000
    59 H31     -3.1447  12.7201   8.0164   H         1 RES1   0.0000
    60 C29     -2.1653  12.5732   9.7986   C.2       1 RES1   0.0000
    61 H32     -1.4372  12.9385  10.2504   H         1 RES1   0.0000
    62 C30     -2.7281  11.5617  10.4131   C.2       1 RES1   0.0000
    63 H33     -3.4648  11.1376  10.0317   H         1 RES1   0.0000
    64 H34     -2.3964  11.2698  11.2301   H         1 RES1   0.0000
    65 C31     -5.0811  15.9859   5.2707   C.ar      1 RES1   0.0000
    66 C32     -4.4261  15.3838   4.1989   C.ar      1 RES1   0.0000
    67 H35     -4.1304  15.8996   3.4849   H         1 RES1   0.0000
    68 C33     -4.2130  14.0088   4.1953   C.ar      1 RES1   0.0000
    69 H36     -3.7626  13.6104   3.4849   H         1 RES1   0.0000
    70 C34     -4.6667  13.2268   5.2490   C.ar      1 RES1   0.0000
    71 H37     -4.5342  12.3070   5.2328   H         1 RES1   0.0000
    72 C35     -5.3100  13.7977   6.3064   C.ar      1 RES1   0.0000
    73 H38     -5.6068  13.2727   7.0150   H         1 RES1   0.0000
    74 C36     -5.5199  15.2039   6.3173   C.ar      1 RES1   0.0000
    75 H39     -5.9555  15.5986   7.0367   H         1 RES1   0.0000
    76 C37     -5.3683  17.4747   5.2147   C.3       1 RES1   0.0000
    77 H40     -4.7663  17.8676   4.5513   H         1 RES1   0.0000
    78 C38     -6.8023  17.6528   4.7014   C.3       1 RES1   0.0000
    79 H41     -7.3927  17.0856   5.2020   H         1 RES1   0.0000
    80 H42     -6.8416  17.4160   3.7723   H         1 RES1   0.0000
    81 H43     -7.0684  18.5689   4.8098   H         1 RES1   0.0000
    82 C39     -6.0869  18.5211   7.2445   C.2       1 RES1   0.0000
    83 H44     -6.9740  18.4165   6.9843   H         1 RES1   0.0000
    84 C40     -5.6937  19.1581   8.4737   C.2       1 RES1   0.0000
    85 C41     -4.2936  19.9310   9.9088   C.2       1 RES1   0.0000
    86 H45     -3.5019  20.1421  10.3444   H         1 RES1   0.0000
    87 C42     -5.5400  20.1917  10.3589   C.2       1 RES1   0.0000
    88 H46     -5.7509  20.6378  11.1470   H         1 RES1   0.0000
    89 C43     -7.8908  19.6813   9.5979   C.3       1 RES1   0.0000
    90 H47     -8.3010  19.6905   8.7195   H         1 RES1   0.0000
    91 H48     -8.1834  20.4707  10.0805   H         1 RES1   0.0000
    92 C44     -8.3106  18.4330  10.3517   C.2       1 RES1   0.0000
    93 H49     -9.1701  18.1595  10.1293   H         1 RES1   0.0000
    94 C45     -7.7478  17.6381  11.2446   C.2       1 RES1   0.0000
    95 H50     -6.8850  17.8107  11.5428   H         1 RES1   0.0000
    96 H51     -8.2173  16.9056  11.5754   H         1 RES1   0.0000
    97 Fe1     -3.2700  18.3809   7.4045   Fe        1 RES1   2.0000
    98 N1      -2.7341  20.0859   6.4333   N.2       1 RES1   0.0000
    99 N2      -1.6463  18.8422   8.4171   N.2       1 RES1   0.0000
   100 N3       0.0742  20.1825   8.6573   N.pl3     1 RES1   0.0000
   101 N4      -2.2031  17.0826   6.2560   N.2       1 RES1   0.0000
   102 N5      -3.4856  16.7637   8.4603   N.2       1 RES1   0.0000
   103 N6      -3.0164  14.6091   8.7394   N.pl3     1 RES1   0.0000
   104 N7      -5.0607  18.1029   6.5266   N.2       1 RES1   0.0000
   105 N8      -4.4016  19.3122   8.7094   N.2       1 RES1   0.0000
   106 N9      -6.4314  19.6905   9.4678   N.pl3     1 RES1   0.0000
   107 Cl1      3.8972  18.0519  10.4983   Cl        2 RES2   0.0000
   108 O1       3.3844  19.3564  10.6300   O.2       2 RES2   0.0000
   109 O2       5.2581  18.0659  10.7692   O.2       2 RES2   0.0000
   110 O3       3.2072  17.1939  11.3713   O.2       2 RES2   0.0000
   111 O4       3.6089  17.6106   9.1862   O.3       2 RES2  -1.0000
   112 Cl2     -0.0011  12.2391  14.3911   Cl        3 RES3   0.0000
   113 O5      -0.0011  12.2391  13.0485   O.2       3 RES3   0.0000
   114 O6      -1.0143  11.3506  14.8180   O.2       3 RES3   0.0000
   115 O6A      1.2761  11.8040  14.8180   O.2       3 RES3   0.0000
   116 O6B     -0.2618  13.5609  14.8180   O.3       3 RES3  -1.0000
   117 Cl3     -0.0011  12.2391   5.4079   Cl        4 RES4   0.0000
   118 O7       0.0922  13.5829   5.9983   O.2       4 RES4   0.0000
   119 O8      -0.0011  12.2391   4.0832   O.2       4 RES4   0.0000
   120 O7A     -1.2104  11.6462   5.9983   O.2       4 RES4   0.0000
   121 O7B      1.1182  11.4864   5.9983   O.3       4 RES4  -1.0000
   122 Cl4    -10.5988  18.3577   6.6350   Cl        5 RES5   0.0000
   123 O9      -9.3957  17.7681   7.1759   O.2       5 RES5   0.0000
   124 O10    -10.5988  18.3577   5.2400   O.2       5 RES5   0.0000
   125 O9A    -10.6898  19.6946   7.1759   O.2       5 RES5   0.0000
   126 O9B    -11.7111  17.6106   7.1759   O.3       5 RES5  -1.0000
@<TRIPOS>BOND
     1     1     2   ar
     2     2     3    1
     3     4     2   ar
     4     5     4    1
     5     6     4   ar
     6     7     6    1
     7     8     6   ar
     8     9     8    1
     9    10     1   ar
    10    11    10    1
    11    12     1    1
    12    13    12    1
    13    14    12    1
    14    15    14    1
    15    16    14    1
    16    17    14    1
    17    18    19    1
    18    20    18    1
    19    21    22    1
    20    23    21    2
    21    24    23    1
    22    25    26    1
    23    27    25    1
    24    28    25    1
    25    29    28    1
    26    30    28    2
    27    31    30    1
    28    32    30    1
    29    33    34   ar
    30    34    35    1
    31    36    34   ar
    32    37    36    1
    33    38    36   ar
    34    39    38    1
    35    40    38   ar
    36    41    40    1
    37    42    33   ar
    38    43    42    1
    39    44    33    1
    40    45    44    1
    41    46    44    1
    42    47    46    1
    43    48    46    1
    44    49    46    1
    45    50    51    1
    46    52    50    1
    47    53    54    1
    48    55    53    2
    49    56    55    1
    50    57    58    1
    51    59    57    1
    52    60    57    1
    53    61    60    1
    54    62    60    2
    55    63    62    1
    56    64    62    1
    57    65    66   ar
    58    66    67    1
    59    68    66   ar
    60    69    68    1
    61    70    68   ar
    62    71    70    1
    63    72    70   ar
    64    73    72    1
    65    74    65   ar
    66    75    74    1
    67    76    65    1
    68    77    76    1
    69    78    76    1
    70    79    78    1
    71    80    78    1
    72    81    78    1
    73    82    83    1
    74    84    82    1
    75    85    86    1
    76    87    85    2
    77    88    87    1
    78    89    90    1
    79    91    89    1
    80    92    89    1
    81    93    92    1
    82    94    92    2
    83    95    94    1
    84    96    94    1
    85    97    98    1
    86    98    12    1
    87    99    20    2
    88   100    20    1
    89   101    44    1
    90   102    52    2
    91   103    52    1
    92   104    76    1
    93   105    84    2
    94   106    84    1
    95     8    10   ar
    96    18    98    2
    97    21    99    1
    98    23   100    1
    99    25   100    1
   100    40    42   ar
   101    50   101    2
   102    53   102    1
   103    55   103    1
   104    57   103    1
   105    72    74   ar
   106    82   104    2
   107    85   105    1
   108    87   106    1
   109    89   106    1
   110    97    99    1
   111    97   101    1
   112    97   102    1
   113    97   104    1
   114    97   105    1
   115   107   108    2
   116   109   107    2
   117   110   107    2
   118   111   107    1
   119   112   113    2
   120   114   112    2
   121   115   112    2
   122   116   112    1
   123   117   118    2
   124   119   117    2
   125   120   117    2
   126   121   117    1
   127   122   123    2
   128   124   122    2
   129   125   122    2
   130   126   122    1
@<TRIPOS>SUBSTRUCTURE
     1 RES1        1 GROUP             0 ****  ****    0  
     2 RES2      107 GROUP             0 ****  ****    0  
     3 RES3      112 GROUP             0 ****  ****    0  
     4 RES4      117 GROUP             0 ****  ****    0  
     5 RES5      122 GROUP             0 ****  ****    0  
@<TRIPOS>CRYSIN
   21.1977   21.1977   18.0752   90.0000   90.0000  120.0000   173     1
