@<TRIPOS>MOLECULE
XUGSOJ
   123   131     4     0     0
SMALL
USER_CHARGES
****
Generated from the CSD

@<TRIPOS>ATOM
     1 Fe1     10.1768   7.1999  15.8882   Fe        1 RES1   2.0000
     2 N1      11.6056   5.8228  16.9336   N.2       1 RES1   0.0000
     3 N2       9.0884   6.5557  17.6031   N.2       1 RES1   0.0000
     4 N3       9.0566   5.4048  19.4718   N.pl3     1 RES1   0.0000
     5 C1      11.1392   5.3741  18.0440   C.2       1 RES1   0.0000
     6 H1      11.6424   4.8220  18.5965   H         1 RES1   0.0000
     7 C2       9.7893   5.7720  18.3913   C.2       1 RES1   0.0000
     8 C3       7.8508   6.0054  19.3455   C.2       1 RES1   0.0000
     9 H2       7.1401   5.9394  19.9415   H         1 RES1   0.0000
    10 C4       7.8699   6.7126  18.2038   C.2       1 RES1   0.0000
    11 H3       7.1662   7.2252  17.8754   H         1 RES1   0.0000
    12 C5       9.4512   4.4919  20.5497   C.3       1 RES1   0.0000
    13 H4      10.3565   4.2052  20.4124   H         1 RES1   0.0000
    14 H5       8.8708   3.7273  20.5497   H         1 RES1   0.0000
    15 H6       9.3852   4.9437  21.3942   H         1 RES1   0.0000
    16 C6      13.6876   4.4467  17.4097   C.3       1 RES1   0.0000
    17 H7      13.1350   3.6804  17.5731   H         1 RES1   0.0000
    18 H8      13.8822   4.8846  18.2421   H         1 RES1   0.0000
    19 H9      14.5078   4.1687  16.9962   H         1 RES1   0.0000
    20 C7      12.9649   5.4043  16.4966   C.3       1 RES1   0.0000
    21 H10     12.8535   4.9437  15.6390   H         1 RES1   0.0000
    22 C8      13.8322   6.6139  16.2278   C.ar      1 RES1   0.0000
    23 C9      13.9780   7.6127  17.2151   C.ar      1 RES1   0.0000
    24 H11     13.5052   7.5450  18.0127   H         1 RES1   0.0000
    25 C10     14.8032   8.6744  17.0101   C.ar      1 RES1   0.0000
    26 H12     14.8936   9.3209  17.6721   H         1 RES1   0.0000
    27 C11     15.5233   8.8065  15.8093   C.ar      1 RES1   0.0000
    28 C12     16.3758   9.9169  15.5278   C.ar      1 RES1   0.0000
    29 H13     16.4557  10.5998  16.1534   H         1 RES1   0.0000
    30 C13     17.0657   9.9968  14.3740   C.ar      1 RES1   0.0000
    31 H14     17.6043  10.7388  14.2107   H         1 RES1   0.0000
    32 C14     16.9822   8.9872  13.4287   C.ar      1 RES1   0.0000
    33 H15     17.4688   9.0567  12.6381   H         1 RES1   0.0000
    34 C15     16.1899   7.8855  13.6424   C.ar      1 RES1   0.0000
    35 H16     16.1551   7.2079  13.0065   H         1 RES1   0.0000
    36 C16     15.4322   7.7778  14.8267   C.ar      1 RES1   0.0000
    37 C17     14.5636   6.7038  15.0819   C.ar      1 RES1   0.0000
    38 H17     14.4852   6.0297  14.4453   H         1 RES1   0.0000
    39 N1E      9.1315   5.7711  14.5111   N.2       1 RES1   0.0000
    40 N2E      8.4619   8.2883  15.2441   N.2       1 RES1   0.0000
    41 N3E      6.5932   8.3201  14.0932   N.pl3     1 RES1   0.0000
    42 C1E      8.0211   6.2375  14.0624   C.2       1 RES1   0.0000
    43 H1E      7.4685   5.7343  13.5104   H         1 RES1   0.0000
    44 C2E      7.6737   7.5874  14.4604   C.2       1 RES1   0.0000
    45 C3E      6.7196   9.5259  14.6937   C.2       1 RES1   0.0000
    46 H2E      6.1235  10.2366  14.6277   H         1 RES1   0.0000
    47 C4E      7.8612   9.5068  15.4010   C.2       1 RES1   0.0000
    48 H3E      8.1896  10.2105  15.9136   H         1 RES1   0.0000
    49 C5E      5.5154   7.9255  13.1802   C.3       1 RES1   0.0000
    50 H4E      5.6526   7.0202  12.8935   H         1 RES1   0.0000
    51 H5E      5.5154   8.5059  12.4157   H         1 RES1   0.0000
    52 H6E      4.6709   7.9915  13.6320   H         1 RES1   0.0000
    53 C6E      8.6553   3.6891  13.1350   C.3       1 RES1   0.0000
    54 H7E      8.4920   4.2417  12.3687   H         1 RES1   0.0000
    55 H8E      7.8230   3.4945  13.5729   H         1 RES1   0.0000
    56 H9E      9.0689   2.8689  12.8570   H         1 RES1   0.0000
    57 C7E      9.5685   4.4118  14.0927   C.3       1 RES1   0.0000
    58 H10E    10.4260   4.5232  13.6320   H         1 RES1   0.0000
    59 C8E      9.8373   3.5445  15.3023   C.ar      1 RES1   0.0000
    60 C9E      8.8500   3.3987  16.3011   C.ar      1 RES1   0.0000
    61 H11E     8.0524   3.8715  16.2333   H         1 RES1   0.0000
    62 C10E     9.0550   2.5735  17.3628   C.ar      1 RES1   0.0000
    63 H12E     8.3929   2.4831  18.0092   H         1 RES1   0.0000
    64 C11E    10.2557   1.8534  17.4949   C.ar      1 RES1   0.0000
    65 C12E    10.5372   1.0009  18.6052   C.ar      1 RES1   0.0000
    66 H13E     9.9117   0.9210  19.2881   H         1 RES1   0.0000
    67 C13E    11.6910   0.3110  18.6852   C.ar      1 RES1   0.0000
    68 H14E    11.8544  -0.2276  19.4272   H         1 RES1   0.0000
    69 C14E    12.6363   0.3945  17.6756   C.ar      1 RES1   0.0000
    70 H15E    13.4270  -0.0921  17.7451   H         1 RES1   0.0000
    71 C15E    12.4226   1.1868  16.5739   C.ar      1 RES1   0.0000
    72 H16E    13.0586   1.2216  15.8962   H         1 RES1   0.0000
    73 C16E    11.2384   1.9445  16.4662   C.ar      1 RES1   0.0000
    74 C17E    10.9831   2.8131  15.3921   C.ar      1 RES1   0.0000
    75 H17E    11.6198   2.8915  14.7181   H         1 RES1   0.0000
    76 N1J     11.5539   8.2452  14.4595   N.2       1 RES1   0.0000
    77 N2J     10.8210   8.9148  16.9767   N.2       1 RES1   0.0000
    78 N3J     11.9719  10.7835  17.0085   N.pl3     1 RES1   0.0000
    79 C1J     12.0026   9.3556  14.9259   C.2       1 RES1   0.0000
    80 H1J     12.5547   9.9082  14.4227   H         1 RES1   0.0000
    81 C2J     11.6047   9.7030  16.2757   C.2       1 RES1   0.0000
    82 C3J     11.3713  10.6571  18.2143   C.2       1 RES1   0.0000
    83 H2J     11.4373  11.2532  18.9250   H         1 RES1   0.0000
    84 C4J     10.6641   9.5155  18.1951   C.2       1 RES1   0.0000
    85 H3J     10.1515   9.1871  18.8989   H         1 RES1   0.0000
    86 C5J     12.8848  11.8613  16.6139   C.3       1 RES1   0.0000
    87 H4J     13.1715  11.7241  15.7085   H         1 RES1   0.0000
    88 H5J     13.6494  11.8613  17.1942   H         1 RES1   0.0000
    89 H6J     12.4330  12.7058  16.6799   H         1 RES1   0.0000
    90 C6J     12.9300   8.7214  12.3774   C.3       1 RES1   0.0000
    91 H7J     13.6963   8.8847  12.9300   H         1 RES1   0.0000
    92 H8J     12.4921   9.5537  12.1828   H         1 RES1   0.0000
    93 H9J     13.2080   8.3078  11.5572   H         1 RES1   0.0000
    94 C7J     11.9724   7.8082  13.1001   C.3       1 RES1   0.0000
    95 H10J    12.4330   6.9507  13.2115   H         1 RES1   0.0000
    96 C8J     10.7628   7.5394  12.2328   C.ar      1 RES1   0.0000
    97 C9J      9.7640   8.5267  12.0871   C.ar      1 RES1   0.0000
    98 H11J     9.8317   9.3243  12.5599   H         1 RES1   0.0000
    99 C10J     8.7023   8.3217  11.2618   C.ar      1 RES1   0.0000
   100 H12J     8.0558   8.9838  11.1715   H         1 RES1   0.0000
   101 C11J     8.5702   7.1210  10.5417   C.ar      1 RES1   0.0000
   102 C12J     7.4598   6.8395   9.6892   C.ar      1 RES1   0.0000
   103 H13J     6.7769   7.4650   9.6093   H         1 RES1   0.0000
   104 C13J     7.3799   5.6857   8.9994   C.ar      1 RES1   0.0000
   105 H14J     6.6379   5.5223   8.4607   H         1 RES1   0.0000
   106 C14J     8.3895   4.7404   9.0828   C.ar      1 RES1   0.0000
   107 H15J     8.3200   3.9497   8.5963   H         1 RES1   0.0000
   108 C15J     9.4912   4.9541   9.8752   C.ar      1 RES1   0.0000
   109 H16J    10.1688   4.3181   9.9099   H         1 RES1   0.0000
   110 C16J     9.5989   6.1383  10.6328   C.ar      1 RES1   0.0000
   111 C17J    10.6729   6.3936  11.5015   C.ar      1 RES1   0.0000
   112 H17J    11.3470   5.7569  11.5798   H         1 RES1   0.0000
   113 Cl1      4.5949   4.0934  13.2833   Cl        2 RES2   0.0000
   114 O1       5.4650   3.2234  14.1533   O.3       2 RES2  -1.0000
   115 O2       4.0088   5.0618  14.1464   O.2       2 RES2   0.0000
   116 O2F      5.4580   4.6795  12.3149   O.2       2 RES2   0.0000
   117 O2K      3.6265   3.2303  12.6972   O.2       2 RES2   0.0000
   118 Cl2     13.8727   3.5040  12.1924   Cl        3 RES3   0.0000
   119 O3      13.2932   3.3589  10.9352   O.3       3 RES3  -1.0000
   120 O4      13.0690   4.3077  12.9960   O.2       3 RES3   0.0000
   121 O3E     15.1299   4.0835  12.0473   O.2       3 RES3   0.0000
   122 O3J     14.0178   2.2468  12.7719   O.2       3 RES3   0.0000
   123 O5       1.9723   6.7161  10.6606   O.3       4 RES4   0.0000
@<TRIPOS>BOND
     1     1     2    1
     2     2     5    2
     3     3     1    1
     4     4     7    1
     5     5     6    1
     6     7     3    2
     7     8     4    1
     8     9     8    1
     9    10     3    1
    10    11    10    1
    11    12     4    1
    12    13    12    1
    13    14    12    1
    14    15    12    1
    15    16    17    1
    16    18    16    1
    17    19    16    1
    18    20     2    1
    19    21    20    1
    20    22    20    1
    21    23    22   ar
    22    24    23    1
    23    25    23   ar
    24    26    25    1
    25    27    25   ar
    26    28    27   ar
    27    29    28    1
    28    30    28   ar
    29    31    30    1
    30    32    30   ar
    31    33    32    1
    32    34    32   ar
    33    35    34    1
    34    36    27   ar
    35    37    22   ar
    36    38    37    1
    37    39     1    1
    38    40     1    1
    39    41    44    1
    40    42    39    2
    41    43    42    1
    42    44    40    2
    43    45    41    1
    44    46    45    1
    45    47    40    1
    46    48    47    1
    47    49    41    1
    48    50    49    1
    49    51    49    1
    50    52    49    1
    51    53    54    1
    52    55    53    1
    53    56    53    1
    54    57    39    1
    55    58    57    1
    56    59    57    1
    57    60    59   ar
    58    61    60    1
    59    62    60   ar
    60    63    62    1
    61    64    62   ar
    62    65    64   ar
    63    66    65    1
    64    67    65   ar
    65    68    67    1
    66    69    67   ar
    67    70    69    1
    68    71    69   ar
    69    72    71    1
    70    73    64   ar
    71    74    59   ar
    72    75    74    1
    73    76     1    1
    74    77     1    1
    75    78    81    1
    76    79    76    2
    77    80    79    1
    78    81    77    2
    79    82    78    1
    80    83    82    1
    81    84    77    1
    82    85    84    1
    83    86    78    1
    84    87    86    1
    85    88    86    1
    86    89    86    1
    87    90    91    1
    88    92    90    1
    89    93    90    1
    90    94    76    1
    91    95    94    1
    92    96    94    1
    93    97    96   ar
    94    98    97    1
    95    99    97   ar
    96   100    99    1
    97   101    99   ar
    98   102   101   ar
    99   103   102    1
   100   104   102   ar
   101   105   104    1
   102   106   104   ar
   103   107   106    1
   104   108   106   ar
   105   109   108    1
   106   110   101   ar
   107   111    96   ar
   108   112   111    1
   109     5     7    1
   110     8    10    2
   111    16    20    1
   112    34    36   ar
   113    36    37   ar
   114    42    44    1
   115    45    47    2
   116    53    57    1
   117    71    73   ar
   118    73    74   ar
   119    79    81    1
   120    82    84    2
   121    90    94    1
   122   108   110   ar
   123   110   111   ar
   124   113   114    1
   125   115   113    2
   126   116   113    2
   127   117   113    2
   128   118   119    1
   129   120   118    2
   130   121   118    2
   131   122   118    2
@<TRIPOS>SUBSTRUCTURE
     1 RES1        1 GROUP             0 ****  ****    0  
     2 RES2      113 GROUP             0 ****  ****    0  
     3 RES3      118 GROUP             0 ****  ****    0  
     4 RES4      123 GROUP             0 ****  ****    0  
@<TRIPOS>CRYSIN
   17.3767   17.3767   17.3767   90.0000   90.0000   90.0000   198     1
