@<TRIPOS>MOLECULE
XUHHEP
   372   413     4     0     0
SMALL
NO_CHARGES
****
Generated from the CSD

@<TRIPOS>ATOM
     1 Fe1     -1.2649  30.2171  10.8979   Fe        1 RES1   0.0000
     2 Fe2      1.3037  30.0773  11.7802   Fe        1 RES1   0.0000
     3 Fe3     -3.9621  28.6981  12.3221   Fe        1 RES1   0.0000
     4 Fe4     -3.9322  31.7855  12.2811   Fe        1 RES1   0.0000
     5 Fe5     -0.8267  28.4241  13.7679   Fe        1 RES1   0.0000
     6 Fe6     -0.7539  31.9897  13.6877   Fe        1 RES1   0.0000
     7 Fe7      2.5329  28.6261  14.5857   Fe        1 RES1   0.0000
     8 Fe8      2.5892  31.7044  14.4846   Fe        1 RES1   0.0000
     9 Fe9     -2.9626  26.8484  15.1632   Fe        1 RES1   0.0000
    10 Fe10    -3.0179  30.2806  14.7148   Fe        1 RES1   0.0000
    11 Fe11    -2.8172  33.7249  15.0165   Fe        1 RES1   0.0000
    12 Fe12    -0.0525  26.8301  16.2106   Fe        1 RES1   0.0000
    13 Fe13     0.3568  30.2374  15.8863   Fe        1 RES1   0.0000
    14 Fe14     0.0981  33.6894  16.0312   Fe        1 RES1   0.0000
    15 Fe15    -2.2139  28.9752  17.6962   Fe        1 RES1   0.0000
    16 Fe16    -2.0968  31.6859  17.6693   Fe        1 RES1   0.0000
    17 O1      -0.2698  28.8412  12.1102   O.3       1 RES1   0.0000
    18 O2      -0.1988  31.4821  12.0496   O.3       1 RES1   0.0000
    19 O3      -2.8904  30.2259  11.8753   O.3       1 RES1   0.0000
    20 O4       1.9542  30.1344  13.5655   O.3       1 RES1   0.0000
    21 O5      -2.8485  28.4083  13.9355   O.3       1 RES1   0.0000
    22 O6      -2.7722  32.1054  13.8661   O.3       1 RES1   0.0000
    23 O7       0.6484  28.3688  15.1753   O.3       1 RES1   0.0000
    24 O8       0.7266  32.0596  15.0773   O.3       1 RES1   0.0000
    25 O9      -1.7349  27.7470  16.3236   O.3       1 RES1   0.0000
    26 O10     -1.6167  32.8646  16.2552   O.3       1 RES1   0.0000
    27 O11     -0.6492  30.2936  17.3796   O.3       1 RES1   0.0000
    28 O12     -3.1539  30.3319  16.5045   O.3       1 RES1   0.0000
    29 O13     -1.0613  30.2344  14.5099   O.3       1 RES1   0.0000
    30 O14      0.4870  30.1700   9.9703   O.3       1 RES1   0.0000
    31 O15     -1.0418  26.4486  14.3044   O.3       1 RES1   0.0000
    32 O16     -0.8813  33.9926  14.1198   O.3       1 RES1   0.0000
    33 O17     -4.7331  30.2766  13.5861   O.3       1 RES1   0.0000
    34 O18      2.4188  30.1952  16.0302   O.3       1 RES1   0.0000
    35 O19     -2.5480  30.3659  19.0842   O.3       1 RES1   0.0000
    36 O20     -1.9653  28.7391   9.6594   O.co2     1 RES1   0.0000
    37 O21     -3.0497  27.4125  11.0995   O.co2     1 RES1   0.0000
    38 O22     -1.9247  31.6777   9.6290   O.co2     1 RES1   0.0000
    39 O23     -3.0066  33.0323  11.0498   O.co2     1 RES1   0.0000
    40 O24      2.5173  28.5268  11.2442   O.co2     1 RES1   0.0000
    41 O25      2.4792  27.3010  13.1120   O.co2     1 RES1   0.0000
    42 O26      2.6660  31.4699  11.1911   O.co2     1 RES1   0.0000
    43 O27      2.5931  32.9074  12.9091   O.co2     1 RES1   0.0000
    44 O28     -5.2918  29.1149  10.8685   O.co2     1 RES1   0.0000
    45 O29     -5.2532  31.3511  10.8211   O.co2     1 RES1   0.0000
    46 O30     -5.2861  27.2861  12.8694   O.co2     1 RES1   0.0000
    47 O31     -3.9815  25.7471  13.8370   O.co2     1 RES1   0.0000
    48 O32     -5.2200  33.2055  12.8380   O.co2     1 RES1   0.0000
    49 O33     -3.8638  34.7754  13.6557   O.co2     1 RES1   0.0000
    50 O34      4.4885  28.9928  14.1910   O.co2     1 RES1   0.0000
    51 O35      4.5127  31.2333  14.1440   O.co2     1 RES1   0.0000
    52 O36      3.1883  27.2372  15.8595   O.co2     1 RES1   0.0000
    53 O37      1.5510  25.7180  15.7845   O.co2     1 RES1   0.0000
    54 O38      3.3369  33.1505  15.6646   O.co2     1 RES1   0.0000
    55 O39      1.7451  34.7117  15.5164   O.co2     1 RES1   0.0000
    56 O40     -4.6341  27.4116  16.0779   O.co2     1 RES1   0.0000
    57 O41     -3.9470  28.0195  18.1182   O.co2     1 RES1   0.0000
    58 O42     -4.4662  33.2902  16.0057   O.co2     1 RES1   0.0000
    59 O43     -3.7852  32.7413  18.0738   O.co2     1 RES1   0.0000
    60 O44     -2.6759  35.4957  15.9773   O.co2     1 RES1   0.0000
    61 O45     -0.5575  35.4605  16.7162   O.co2     1 RES1   0.0000
    62 O46      0.8258  33.2243  17.8297   O.co2     1 RES1   0.0000
    63 O47     -0.9932  32.7516  19.0172   O.co2     1 RES1   0.0000
    64 O48     -0.8039  25.1444  17.0008   O.co2     1 RES1   0.0000
    65 O49     -2.9224  25.1678  16.2867   O.co2     1 RES1   0.0000
    66 O50      0.6710  27.3721  17.9864   O.co2     1 RES1   0.0000
    67 O51     -1.2202  27.8673  19.0713   O.co2     1 RES1   0.0000
    68 C1       0.8777  29.5740   8.7810   C.3       1 RES1   0.0000
    69 H1       0.7385  28.5988   8.8584   H         1 RES1   0.0000
    70 H2       1.8453  29.7289   8.6521   H         1 RES1   0.0000
    71 C2       0.1557  30.0631   7.5771   C.3       1 RES1   0.0000
    72 H3      -0.8050  29.8960   7.6802   H         1 RES1   0.0000
    73 H4       0.4827  29.5891   6.7856   H         1 RES1   0.0000
    74 H5       0.3089  31.0230   7.4688   H         1 RES1   0.0000
    75 C3      -0.7622  25.4643  13.2798   C.3       1 RES1   0.0000
    76 H6       0.1878  25.5335  13.0195   H         1 RES1   0.0000
    77 H7      -1.3093  25.6642  12.4806   H         1 RES1   0.0000
    78 C4      -1.0463  24.0632  13.7259   C.3       1 RES1   0.0000
    79 H8      -0.4781  23.8445  14.4941   H         1 RES1   0.0000
    80 H9      -0.8604  23.4404  12.9937   H         1 RES1   0.0000
    81 H10     -1.9856  23.9873  13.9863   H         1 RES1   0.0000
    82 C5      -0.4920  34.8718  13.0478   C.3       1 RES1   0.0000
    83 H11     -1.0140  34.6381  12.2383   H         1 RES1   0.0000
    84 H12      0.4623  34.7262  12.8441   H         1 RES1   0.0000
    85 C6      -0.7111  36.3154  13.3623   C.3       1 RES1   0.0000
    86 H13     -1.6585  36.4730  13.5351   H         1 RES1   0.0000
    87 H14     -0.4232  36.8619  12.6018   H         1 RES1   0.0000
    88 H15     -0.1892  36.5581  14.1564   H         1 RES1   0.0000
    89 C7      -5.9704  30.3304  14.3395   C.3       1 RES1   0.0000
    90 H16     -5.9813  31.1567  14.8834   H         1 RES1   0.0000
    91 H17     -6.0039  29.5588  14.9582   H         1 RES1   0.0000
    92 C8      -7.1757  30.3061  13.4732   C.3       1 RES1   0.0000
    93 H18     -7.1536  31.0716  12.8596   H         1 RES1   0.0000
    94 H19     -7.9789  30.3608  14.0327   H         1 RES1   0.0000
    95 H20     -7.1920  29.4737  12.9576   H         1 RES1   0.0000
    96 C9       3.0192  30.2058  17.3430   C.3       1 RES1   0.0000
    97 H21      2.7095  29.4099  17.8457   H         1 RES1   0.0000
    98 H22      2.7076  31.0078  17.8328   H         1 RES1   0.0000
    99 C10      4.5028  30.2058  17.3043   C.3       1 RES1   0.0000
   100 H23      4.8182  29.3917  16.8634   H         1 RES1   0.0000
   101 H24      4.8544  30.2393  18.2195   H         1 RES1   0.0000
   102 H25      4.8140  30.9896  16.8067   H         1 RES1   0.0000
   103 C11     -3.5780  30.3425  20.0500   C.3       1 RES1   0.0000
   104 H26     -3.6820  29.4190  20.3903   H         1 RES1   0.0000
   105 H27     -4.4315  30.6038  19.6194   H         1 RES1   0.0000
   106 C12     -3.3144  31.2509  21.1895   C.3       1 RES1   0.0000
   107 H28     -2.4717  30.9957  21.6200   H         1 RES1   0.0000
   108 H29     -4.0450  31.1840  21.8366   H         1 RES1   0.0000
   109 H30     -3.2480  32.1744  20.8621   H         1 RES1   0.0000
   110 C13     -2.5238  27.6668   9.9670   C.2       1 RES1   0.0000
   111 C14     -2.5592  26.5500   8.9203   C.3       1 RES1   0.0000
   112 C15     -3.9649  25.9589   8.8661   C.3       1 RES1   0.0000
   113 H31     -4.5929  26.6393   8.5464   H         1 RES1   0.0000
   114 H32     -4.2280  25.6642   9.7633   H         1 RES1   0.0000
   115 H33     -3.9733  25.1933   8.2551   H         1 RES1   0.0000
   116 C16     -2.1882  27.0890   7.5564   C.3       1 RES1   0.0000
   117 H34     -1.2442  27.3563   7.5564   H         1 RES1   0.0000
   118 H35     -2.7467  27.8667   7.3502   H         1 RES1   0.0000
   119 H36     -2.3319  26.3963   6.8810   H         1 RES1   0.0000
   120 C17     -1.5637  25.4971   9.3689   C.3       1 RES1   0.0000
   121 H37     -1.5297  24.7771   8.7063   H         1 RES1   0.0000
   122 H38     -1.8469  25.1295  10.2325   H         1 RES1   0.0000
   123 H39     -0.6762  25.9042   9.4617   H         1 RES1   0.0000
   124 C18     -2.4701  32.7641   9.9206   C.2       1 RES1   0.0000
   125 C19     -2.5474  33.8692   8.8455   C.3       1 RES1   0.0000
   126 C20     -4.0223  34.1399   8.5413   C.3       1 RES1   0.0000
   127 H40     -4.0904  34.8660   7.8864   H         1 RES1   0.0000
   128 H41     -4.4835  34.3981   9.3663   H         1 RES1   0.0000
   129 H42     -4.4300  33.3318   8.1726   H         1 RES1   0.0000
   130 C21     -1.9114  35.1303   9.4101   C.3       1 RES1   0.0000
   131 H43     -0.9758  34.9510   9.6370   H         1 RES1   0.0000
   132 H44     -2.3944  35.4098  10.2145   H         1 RES1   0.0000
   133 H45     -1.9510  35.8442   8.7398   H         1 RES1   0.0000
   134 C22     -1.8361  33.4169   7.5822   C.3       1 RES1   0.0000
   135 H46     -2.1873  32.5481   7.3038   H         1 RES1   0.0000
   136 H47     -0.8741  33.3410   7.7601   H         1 RES1   0.0000
   137 H48     -1.9838  34.0731   6.8707   H         1 RES1   0.0000
   138 C23      2.7165  27.4584  11.8696   C.2       1 RES1   0.0000
   139 C24      3.3509  26.2845  11.1271   C.3       1 RES1   0.0000
   140 C25      2.8814  24.9655  11.6917   C.3       1 RES1   0.0000
   141 H49      1.9316  24.8379  11.4752   H         1 RES1   0.0000
   142 H50      2.9978  24.9655  12.6637   H         1 RES1   0.0000
   143 H51      3.4048  24.2364  11.2999   H         1 RES1   0.0000
   144 C26      4.8733  26.4115  11.3566   C.3       1 RES1   0.0000
   145 H52      5.3319  25.6460  10.9492   H         1 RES1   0.0000
   146 H53      5.0578  26.4267  12.3182   H         1 RES1   0.0000
   147 H54      5.1991  27.2408  10.9492   H         1 RES1   0.0000
   148 C27      3.0692  26.3842   9.6473   C.3       1 RES1   0.0000
   149 H55      2.1057  26.2900   9.4926   H         1 RES1   0.0000
   150 H56      3.5450  25.6733   9.1729   H         1 RES1   0.0000
   151 H57      3.3689  27.2560   9.3147   H         1 RES1   0.0000
   152 C28      2.8263  32.6079  11.7020   C.2       1 RES1   0.0000
   153 C29      3.2948  33.7201  10.7585   C.3       1 RES1   0.0000
   154 C30      3.7986  34.9146  11.5370   C.3       1 RES1   0.0000
   155 H58      4.5175  34.6321  12.1377   H         1 RES1   0.0000
   156 H59      3.0649  35.2943  12.0630   H         1 RES1   0.0000
   157 H60      4.1363  35.5890  10.9131   H         1 RES1   0.0000
   158 C31      4.3687  33.1921   9.8303   C.3       1 RES1   0.0000
   159 H61      4.6201  33.8908   9.1910   H         1 RES1   0.0000
   160 H62      4.0260  32.4144   9.3457   H         1 RES1   0.0000
   161 H63      5.1550  32.9339  10.3537   H         1 RES1   0.0000
   162 C32      2.0673  34.0944   9.9309   C.3       1 RES1   0.0000
   163 H64      2.3133  34.7840   9.2786   H         1 RES1   0.0000
   164 H65      1.3649  34.4407  10.5213   H         1 RES1   0.0000
   165 H66      1.7374  33.3015   9.4591   H         1 RES1   0.0000
   166 C33     -5.5850  30.2332  10.3563   C.2       1 RES1   0.0000
   167 C34     -6.4077  30.1952   9.0646   C.3       1 RES1   0.0000
   168 C35     -7.2726  28.9512   9.0053   C.3       1 RES1   0.0000
   169 H67     -7.9359  28.9816   9.7272   H         1 RES1   0.0000
   170 H68     -6.7115  28.1583   9.1136   H         1 RES1   0.0000
   171 H69     -7.7324  28.9147   8.1417   H         1 RES1   0.0000
   172 C36     -7.2429  31.4544   8.9306   C.3       1 RES1   0.0000
   173 H70     -7.7758  31.4058   8.1107   H         1 RES1   0.0000
   174 H71     -6.6511  32.2352   8.8893   H         1 RES1   0.0000
   175 H72     -7.8356  31.5364   9.7066   H         1 RES1   0.0000
   176 C37     -5.3730  30.1633   7.9303   C.3       1 RES1   0.0000
   177 H73     -5.8328  30.1512   7.0666   H         1 RES1   0.0000
   178 H74     -4.8193  29.3552   8.0179   H         1 RES1   0.0000
   179 H75     -4.8017  30.9562   7.9870   H         1 RES1   0.0000
   180 C38     -5.0252  26.1089  13.1999   C.2       1 RES1   0.0000
   181 C39     -6.0125  25.0016  12.8390   C.3       1 RES1   0.0000
   182 C40     -5.2597  23.8171  12.2589   C.3       1 RES1   0.0000
   183 H76     -4.6012  23.5012  12.9112   H         1 RES1   0.0000
   184 H77     -4.8020  24.0936  11.4391   H         1 RES1   0.0000
   185 H78     -5.8918  23.0972  12.0552   H         1 RES1   0.0000
   186 C41     -7.0320  25.5092  11.8284   C.3       1 RES1   0.0000
   187 H79     -7.6501  24.7862  11.5938   H         1 RES1   0.0000
   188 H80     -6.5634  25.8161  11.0240   H         1 RES1   0.0000
   189 H81     -7.5356  26.2566  12.2177   H         1 RES1   0.0000
   190 C42     -6.7202  24.5766  14.1023   C.3       1 RES1   0.0000
   191 H82     -7.1554  25.3543  14.5122   H         1 RES1   0.0000
   192 H83     -6.0692  24.1969  14.7287   H         1 RES1   0.0000
   193 H84     -7.3973  23.9022  13.8857   H         1 RES1   0.0000
   194 C43     -4.9295  34.4103  13.0813   C.2       1 RES1   0.0000
   195 C44     -5.9157  35.4960  12.6663   C.3       1 RES1   0.0000
   196 C45     -6.9845  34.9085  11.7433   C.3       1 RES1   0.0000
   197 H85     -7.5014  34.2341  12.2306   H         1 RES1   0.0000
   198 H86     -6.5532  34.4923  10.9673   H         1 RES1   0.0000
   199 H87     -7.5835  35.6224  11.4391   H         1 RES1   0.0000
   200 C46     -5.1392  36.5945  11.9470   C.3       1 RES1   0.0000
   201 H88     -5.7522  37.3084  11.6840   H         1 RES1   0.0000
   202 H89     -4.7118  36.2209  11.1503   H         1 RES1   0.0000
   203 H90     -4.4526  36.9561  12.5477   H         1 RES1   0.0000
   204 C47     -6.5661  36.0477  13.9141   C.3       1 RES1   0.0000
   205 H91     -7.0077  35.3186  14.4013   H         1 RES1   0.0000
   206 H92     -7.2328  36.7221  13.6666   H         1 RES1   0.0000
   207 H93     -5.8852  36.4548  14.4864   H         1 RES1   0.0000
   208 C48      5.0608  30.0971  14.0146   C.2       1 RES1   0.0000
   209 C49      6.5307  30.1050  13.5970   C.3       1 RES1   0.0000
   210 C50      7.1689  28.7631  13.8728   C.3       1 RES1   0.0000
   211 H94      7.0338  28.5259  14.8138   H         1 RES1   0.0000
   212 H95      8.1270  28.8114  13.6846   H         1 RES1   0.0000
   213 H96      6.7572  28.0823  13.3005   H         1 RES1   0.0000
   214 C51      7.2657  31.1871  14.3601   C.3       1 RES1   0.0000
   215 H97      6.9272  32.0681  14.0894   H         1 RES1   0.0000
   216 H98      8.2237  31.1354  14.1616   H         1 RES1   0.0000
   217 H99      7.1236  31.0625  15.3217   H         1 RES1   0.0000
   218 C52      6.5468  30.3972  12.1094   C.3       1 RES1   0.0000
   219 H100     6.0966  29.6681  11.6299   H         1 RES1   0.0000
   220 H101     7.4731  30.4701  11.8000   H         1 RES1   0.0000
   221 H102     6.0766  31.2387  11.9367   H         1 RES1   0.0000
   222 C53      2.7705  26.0454  15.9276   C.2       1 RES1   0.0000
   223 C54      3.7905  24.9488  16.2241   C.3       1 RES1   0.0000
   224 C55      3.1986  23.5793  15.9482   C.3       1 RES1   0.0000
   225 H103     2.3605  23.4799  16.4432   H         1 RES1   0.0000
   226 H104     3.8316  22.8875  16.2344   H         1 RES1   0.0000
   227 H105     3.0267  23.4860  14.9891   H         1 RES1   0.0000
   228 C56      4.1114  25.0870  17.7168   C.3       1 RES1   0.0000
   229 H106     4.4525  25.9892  17.8947   H         1 RES1   0.0000
   230 H107     4.7889  24.4278  17.9694   H         1 RES1   0.0000
   231 H108     3.2988  24.9381  18.2427   H         1 RES1   0.0000
   232 C57      5.0499  25.1660  15.3887   C.3       1 RES1   0.0000
   233 H109     4.8386  25.0444  14.4400   H         1 RES1   0.0000
   234 H110     5.7347  24.5189  15.6569   H         1 RES1   0.0000
   235 H111     5.3852  26.0773  15.5331   H         1 RES1   0.0000
   236 C58      2.9467  34.3520  15.6904   C.2       1 RES1   0.0000
   237 C59      3.9817  35.4274  15.9843   C.3       1 RES1   0.0000
   238 C60      4.1970  35.4098  17.4976   C.3       1 RES1   0.0000
   239 H112     4.8869  36.0629  17.7374   H         1 RES1   0.0000
   240 H113     4.4835  34.5136  17.7761   H         1 RES1   0.0000
   241 H114     3.3566  35.6376  17.9488   H         1 RES1   0.0000
   242 C61      3.4690  36.7978  15.5641   C.3       1 RES1   0.0000
   243 H115     3.3257  36.8102  14.5947   H         1 RES1   0.0000
   244 H116     4.1230  37.4816  15.8090   H         1 RES1   0.0000
   245 H117     2.6197  36.9804  16.0178   H         1 RES1   0.0000
   246 C62      5.2854  35.0969  15.2701   C.3       1 RES1   0.0000
   247 H118     5.1350  35.0938  14.3008   H         1 RES1   0.0000
   248 H119     5.5990  34.2128  15.5563   H         1 RES1   0.0000
   249 H120     5.9608  35.7713  15.4944   H         1 RES1   0.0000
   250 C63     -4.8281  27.6212  17.3069   C.2       1 RES1   0.0000
   251 C64     -6.2072  27.3320  17.8895   C.3       1 RES1   0.0000
   252 C65     -7.2595  27.3593  16.8325   C.3       1 RES1   0.0000
   253 H121    -8.1166  27.0859  17.2192   H         1 RES1   0.0000
   254 H122    -7.0160  26.7396  16.1106   H         1 RES1   0.0000
   255 H123    -7.3370  28.2646  16.4690   H         1 RES1   0.0000
   256 C66     -6.5068  28.1765  19.0548   C.3       1 RES1   0.0000
   257 H124    -6.6805  29.0940  18.7583   H         1 RES1   0.0000
   258 H125    -5.7428  28.1735  19.6684   H         1 RES1   0.0000
   259 H126    -7.2949  27.8241  19.5189   H         1 RES1   0.0000
   260 C67     -6.1583  25.8981  18.4258   C.3       1 RES1   0.0000
   261 H127    -5.4670  25.8313  19.1193   H         1 RES1   0.0000
   262 H128    -5.9473  25.2814  17.6936   H         1 RES1   0.0000
   263 H129    -7.0299  25.6611  18.8073   H         1 RES1   0.0000
   264 C68     -4.6436  33.1872  17.2733   C.2       1 RES1   0.0000
   265 C69     -5.9643  33.7028  17.8122   C.3       1 RES1   0.0000
   266 C70     -5.9056  35.2357  17.7271   C.3       1 RES1   0.0000
   267 H130    -6.7565  35.6133  18.0365   H         1 RES1   0.0000
   268 H131    -5.7434  35.5070  16.7990   H         1 RES1   0.0000
   269 H132    -5.1781  35.5647  18.2943   H         1 RES1   0.0000
   270 C71     -7.1111  33.2042  16.9459   C.3       1 RES1   0.0000
   271 H133    -7.1218  32.2230  16.9511   H         1 RES1   0.0000
   272 H134    -6.9918  33.5232  16.0281   H         1 RES1   0.0000
   273 H135    -7.9578  33.5415  17.3017   H         1 RES1   0.0000
   274 C72     -6.1548  33.2863  19.2430   C.3       1 RES1   0.0000
   275 H136    -6.2386  32.3111  19.2920   H         1 RES1   0.0000
   276 H137    -6.9728  33.6994  19.5988   H         1 RES1   0.0000
   277 H138    -5.3863  33.5749  19.7767   H         1 RES1   0.0000
   278 C73     -1.7078  35.9961  16.6030   C.2       1 RES1   0.0000
   279 C74     -1.9081  37.3270  17.3301   C.3       1 RES1   0.0000
   280 C75     -0.6773  38.1955  17.1367   C.3       1 RES1   0.0000
   281 H139     0.1224  37.6943  17.4048   H         1 RES1   0.0000
   282 H140    -0.7557  39.0036  17.6858   H         1 RES1   0.0000
   283 H141    -0.6014  38.4507  16.1931   H         1 RES1   0.0000
   284 C76     -3.1537  38.0345  16.8170   C.3       1 RES1   0.0000
   285 H142    -3.0817  38.1621  15.8476   H         1 RES1   0.0000
   286 H143    -3.2368  38.9064  17.2579   H         1 RES1   0.0000
   287 H144    -3.9429  37.4907  17.0155   H         1 RES1   0.0000
   288 C77     -2.0914  36.9834  18.7970   C.3       1 RES1   0.0000
   289 H145    -2.8530  36.3819  18.8976   H         1 RES1   0.0000
   290 H146    -2.2509  37.8036  19.3075   H         1 RES1   0.0000
   291 H147    -1.2784  36.5429  19.1296   H         1 RES1   0.0000
   292 C78      0.1995  33.1131  18.9259   C.2       1 RES1   0.0000
   293 C79      0.9696  33.4670  20.2047   C.3       1 RES1   0.0000
   294 C80      2.3278  32.7911  20.1815   C.3       1 RES1   0.0000
   295 H148     2.2089  31.8190  20.1686   H         1 RES1   0.0000
   296 H149     2.8332  33.0463  20.9807   H         1 RES1   0.0000
   297 H150     2.8176  33.0675  19.3797   H         1 RES1   0.0000
   298 C81      0.1876  33.0888  21.4318   C.3       1 RES1   0.0000
   299 H151    -0.6794  33.5475  21.4189   H         1 RES1   0.0000
   300 H152     0.6879  33.3531  22.2310   H         1 RES1   0.0000
   301 H153     0.0423  32.1197  21.4396   H         1 RES1   0.0000
   302 C82      1.1790  34.9890  20.1840   C.3       1 RES1   0.0000
   303 H154     1.5897  35.2518  19.3333   H         1 RES1   0.0000
   304 H155     1.7666  35.2488  20.9239   H         1 RES1   0.0000
   305 H156     0.3132  35.4371  20.2794   H         1 RES1   0.0000
   306 C83     -1.9836  24.7015  16.9846   C.2       1 RES1   0.0000
   307 C84     -2.2763  23.5054  17.8947   C.3       1 RES1   0.0000
   308 C85     -3.6087  22.8663  17.5492   C.3       1 RES1   0.0000
   309 H157    -4.3336  23.5012  17.7271   H         1 RES1   0.0000
   310 H158    -3.7356  22.0643  18.0958   H         1 RES1   0.0000
   311 H159    -3.6154  22.6202  16.6005   H         1 RES1   0.0000
   312 C86     -1.1427  22.4956  17.7426   C.3       1 RES1   0.0000
   313 H160    -1.1115  22.1736  16.8170   H         1 RES1   0.0000
   314 H161    -1.2941  21.7392  18.3458   H         1 RES1   0.0000
   315 H162    -0.2897  22.9240  17.9694   H         1 RES1   0.0000
   316 C87     -2.3046  24.0511  19.3229   C.3       1 RES1   0.0000
   317 H163    -1.4336  24.4338  19.5447   H         1 RES1   0.0000
   318 H164    -2.5078  23.3220  19.9443   H         1 RES1   0.0000
   319 H165    -2.9948  24.7437  19.3925   H         1 RES1   0.0000
   320 C88      0.0120  27.6106  19.0445   C.2       1 RES1   0.0000
   321 C89      0.7343  27.6601  20.3825   C.3       1 RES1   0.0000
   322 C90      2.1278  27.1315  20.3026   C.3       1 RES1   0.0000
   323 H166     2.6034  27.3411  21.1328   H         1 RES1   0.0000
   324 H167     2.5897  27.5446  19.5447   H         1 RES1   0.0000
   325 H168     2.1013  26.1594  20.1789   H         1 RES1   0.0000
   326 C91     -0.0884  27.0677  21.4679   C.3       1 RES1   0.0000
   327 H169    -0.9730  27.4900  21.4757   H         1 RES1   0.0000
   328 H170     0.3499  27.2135  22.3316   H         1 RES1   0.0000
   329 H171    -0.1870  26.1047  21.3132   H         1 RES1   0.0000
   330 C92      0.8433  29.1912  20.6687   C.3       1 RES1   0.0000
   331 H172    -0.0551  29.5770  20.7332   H         1 RES1   0.0000
   332 H173     1.3343  29.6256  19.9417   H         1 RES1   0.0000
   333 H174     1.3190  29.3309  21.5143   H         1 RES1   0.0000
   334 O52    -10.9697  22.6324  16.7474   O.3       2 RES2   0.0000
   335 C93     -9.6564  22.6232  16.2241   C.3       2 RES2   0.0000
   336 H175    -9.6505  22.9301  15.2830   H         2 RES2   0.0000
   337 H176    -9.2647  21.7149  16.2653   H         2 RES2   0.0000
   338 C94     -8.8968  23.5741  17.1006   C.3       2 RES2   0.0000
   339 H177    -8.1808  23.0911  17.5904   H         2 RES2   0.0000
   340 H178    -8.4756  24.2850  16.5540   H         2 RES2   0.0000
   341 C95     -9.8413  24.1483  18.0339   C.3       2 RES2   0.0000
   342 H179    -9.4814  24.0966  18.9543   H         2 RES2   0.0000
   343 H180    -9.9927  25.1022  17.8147   H         2 RES2   0.0000
   344 C96    -11.0626  23.4283  17.9462   C.3       2 RES2   0.0000
   345 H181   -11.8295  24.0511  17.8921   H         2 RES2   0.0000
   346 H182   -11.1832  22.8480  18.7403   H         2 RES2   0.0000
   347 O53    -10.8692   7.8985  17.5801   O.3       3 RES3   0.0000
   348 C97    -10.8549   6.8687  18.4026   C.3       3 RES3   0.0000
   349 H183   -11.7377   6.4160  18.4077   H         3 RES3   0.0000
   350 H184   -10.6421   7.1634  19.3229   H         3 RES3   0.0000
   351 C98     -9.7892   5.9482  17.8792   C.3       3 RES3   0.0000
   352 H185    -9.2285   5.5988  18.6165   H         3 RES3   0.0000
   353 H186   -10.1858   5.1887  17.3842   H         3 RES3   0.0000
   354 C99     -8.9916   6.8353  16.9614   C.3       3 RES3   0.0000
   355 H187    -8.1809   7.1755  17.4177   H         3 RES3   0.0000
   356 H188    -8.7187   6.3462  16.1441   H         3 RES3   0.0000
   357 C100    -9.8869   7.8985  16.6494   C.3       3 RES3   0.0000
   358 H189    -9.4094   8.7643  16.6598   H         3 RES3   0.0000
   359 H190   -10.2735   7.7649  15.7471   H         3 RES3   0.0000
   360 O54     -8.7602   8.6732  13.3082   O.3       4 RES4   0.0000
   361 C101    -7.6105   9.4053  13.7516   C.3       4 RES4   0.0000
   362 H191    -6.7858   9.0317  13.3443   H         4 RES4   0.0000
   363 H192    -7.5245   9.3507  14.7365   H         4 RES4   0.0000
   364 C102    -7.8018  10.8240  13.3237   C.3       4 RES4   0.0000
   365 H193    -8.1833  11.3709  14.0533   H         4 RES4   0.0000
   366 H194    -6.9454  11.2281  13.0272   H         4 RES4   0.0000
   367 C103    -8.7490  10.6904  12.1919   C.3       4 RES4   0.0000
   368 H195    -9.2851  11.5167  12.0681   H         4 RES4   0.0000
   369 H196    -8.2826  10.4716  11.3488   H         4 RES4   0.0000
   370 C104    -9.5911   9.5694  12.6456   C.3       4 RES4   0.0000
   371 H197   -10.2969   9.8975  13.2566   H         4 RES4   0.0000
   372 H198   -10.0230   9.1289  11.8722   H         4 RES4   0.0000
@<TRIPOS>BOND
     1     1    17    1
     2     2    17    1
     3     3    19    1
     4     4    19    1
     5     5    17    1
     6     6    18    1
     7     7    20    1
     8     8    20    1
     9     9    21    1
    10    10    21    1
    11    11    22    1
    12    12    23    1
    13    13    23    1
    14    14    24    1
    15    15    25    1
    16    16    26    1
    17    18     1    1
    18    19     1    1
    19    20     2    1
    20    21     3    1
    21    22     4    1
    22    23     5    1
    23    24     6    1
    24    25     9    1
    25    26    11    1
    26    27    13    1
    27    28    10    1
    28    29     5    1
    29    30     1    1
    30    31     5    1
    31    32     6    1
    32    33     3    1
    33    34     7    1
    34    35    15    1
    35    36     1    1
    36    37     3    1
    37    38     1    1
    38    39     4    1
    39    40     2    1
    40    41     7    1
    41    42     2    1
    42    43     8    1
    43    44     3    1
    44    45     4    1
    45    46     3    1
    46    47     9    1
    47    48     4    1
    48    49    11    1
    49    50     7    1
    50    51     8    1
    51    52     7    1
    52    53    12    1
    53    54     8    1
    54    55    14    1
    55    56     9    1
    56    57    15    1
    57    58    11    1
    58    59    16    1
    59    60    11    1
    60    61    14    1
    61    62    14    1
    62    63    16    1
    63    64    12    1
    64    65     9    1
    65    66    12    1
    66    67    15    1
    67    68    30    1
    68    69    68    1
    69    70    68    1
    70    71    68    1
    71    72    71    1
    72    73    71    1
    73    74    71    1
    74    75    31    1
    75    76    75    1
    76    77    75    1
    77    78    75    1
    78    79    78    1
    79    80    78    1
    80    81    78    1
    81    82    32    1
    82    83    82    1
    83    84    82    1
    84    85    82    1
    85    86    85    1
    86    87    85    1
    87    88    85    1
    88    89    33    1
    89    90    89    1
    90    91    89    1
    91    92    89    1
    92    93    92    1
    93    94    92    1
    94    95    92    1
    95    96    34    1
    96    97    96    1
    97    98    96    1
    98    99    96    1
    99   100    99    1
   100   101    99    1
   101   102    99    1
   102   103    35    1
   103   104   103    1
   104   105   103    1
   105   106   103    1
   106   107   106    1
   107   108   106    1
   108   109   106    1
   109   110    36   un
   110   111   110    1
   111   112   111    1
   112   113   112    1
   113   114   112    1
   114   115   112    1
   115   116   111    1
   116   117   116    1
   117   118   116    1
   118   119   116    1
   119   120   111    1
   120   121   120    1
   121   122   120    1
   122   123   120    1
   123   124    38   un
   124   125   124    1
   125   126   125    1
   126   127   126    1
   127   128   126    1
   128   129   126    1
   129   130   125    1
   130   131   130    1
   131   132   130    1
   132   133   130    1
   133   134   125    1
   134   135   134    1
   135   136   134    1
   136   137   134    1
   137   138    40   un
   138   139   138    1
   139   140   139    1
   140   141   140    1
   141   142   140    1
   142   143   140    1
   143   144   139    1
   144   145   144    1
   145   146   144    1
   146   147   144    1
   147   148   139    1
   148   149   148    1
   149   150   148    1
   150   151   148    1
   151   152    42   un
   152   153   152    1
   153   154   153    1
   154   155   154    1
   155   156   154    1
   156   157   154    1
   157   158   153    1
   158   159   158    1
   159   160   158    1
   160   161   158    1
   161   162   153    1
   162   163   162    1
   163   164   162    1
   164   165   162    1
   165   166    44   un
   166   167   166    1
   167   168   167    1
   168   169   168    1
   169   170   168    1
   170   171   168    1
   171   172   167    1
   172   173   172    1
   173   174   172    1
   174   175   172    1
   175   176   167    1
   176   177   176    1
   177   178   176    1
   178   179   176    1
   179   180    46   un
   180   181   180    1
   181   182   181    1
   182   183   182    1
   183   184   182    1
   184   185   182    1
   185   186   181    1
   186   187   186    1
   187   188   186    1
   188   189   186    1
   189   190   181    1
   190   191   190    1
   191   192   190    1
   192   193   190    1
   193   194    48   un
   194   195   194    1
   195   196   195    1
   196   197   196    1
   197   198   196    1
   198   199   196    1
   199   200   195    1
   200   201   200    1
   201   202   200    1
   202   203   200    1
   203   204   195    1
   204   205   204    1
   205   206   204    1
   206   207   204    1
   207   208    50   un
   208   209   208    1
   209   210   209    1
   210   211   210    1
   211   212   210    1
   212   213   210    1
   213   214   209    1
   214   215   214    1
   215   216   214    1
   216   217   214    1
   217   218   209    1
   218   219   218    1
   219   220   218    1
   220   221   218    1
   221   222    52   un
   222   223   222    1
   223   224   223    1
   224   225   224    1
   225   226   224    1
   226   227   224    1
   227   228   223    1
   228   229   228    1
   229   230   228    1
   230   231   228    1
   231   232   223    1
   232   233   232    1
   233   234   232    1
   234   235   232    1
   235   236    54   un
   236   237   236    1
   237   238   237    1
   238   239   238    1
   239   240   238    1
   240   241   238    1
   241   242   237    1
   242   243   242    1
   243   244   242    1
   244   245   242    1
   245   246   237    1
   246   247   246    1
   247   248   246    1
   248   249   246    1
   249   250    56   un
   250   251   250    1
   251   252   251    1
   252   253   252    1
   253   254   252    1
   254   255   252    1
   255   256   251    1
   256   257   256    1
   257   258   256    1
   258   259   256    1
   259   260   251    1
   260   261   260    1
   261   262   260    1
   262   263   260    1
   263   264    58   un
   264   265   264    1
   265   266   265    1
   266   267   266    1
   267   268   266    1
   268   269   266    1
   269   270   265    1
   270   271   270    1
   271   272   270    1
   272   273   270    1
   273   274   265    1
   274   275   274    1
   275   276   274    1
   276   277   274    1
   277   278    60   un
   278   279   278    1
   279   280   279    1
   280   281   280    1
   281   282   280    1
   282   283   280    1
   283   284   279    1
   284   285   284    1
   285   286   284    1
   286   287   284    1
   287   288   279    1
   288   289   288    1
   289   290   288    1
   290   291   288    1
   291   292    62   un
   292   293   292    1
   293   294   293    1
   294   295   294    1
   295   296   294    1
   296   297   294    1
   297   298   293    1
   298   299   298    1
   299   300   298    1
   300   301   298    1
   301   302   293    1
   302   303   302    1
   303   304   302    1
   304   305   302    1
   305   306    64   un
   306   307   306    1
   307   308   307    1
   308   309   308    1
   309   310   308    1
   310   311   308    1
   311   312   307    1
   312   313   312    1
   313   314   312    1
   314   315   312    1
   315   316   307    1
   316   317   316    1
   317   318   316    1
   318   319   316    1
   319   320    66   un
   320   321   320    1
   321   322   321    1
   322   323   322    1
   323   324   322    1
   324   325   322    1
   325   326   321    1
   326   327   326    1
   327   328   326    1
   328   329   326    1
   329   330   321    1
   330   331   330    1
   331   332   330    1
   332   333   330    1
   333     2    18    1
   334     2    30    1
   335     4    33    1
   336     5    21    1
   337     6    22    1
   338     6    29    1
   339     7    23    1
   340     8    24    1
   341     8    34    1
   342     9    31    1
   343    10    22    1
   344    10    29    1
   345    10    33    1
   346    11    32    1
   347    12    25    1
   348    12    31    1
   349    13    24    1
   350    13    29    1
   351    13    34    1
   352    14    26    1
   353    14    32    1
   354    15    27    1
   355    15    28    1
   356    16    27    1
   357    16    28    1
   358    16    35    1
   359    37   110   un
   360    39   124   un
   361    41   138   un
   362    43   152   un
   363    45   166   un
   364    47   180   un
   365    49   194   un
   366    51   208   un
   367    53   222   un
   368    55   236   un
   369    57   250   un
   370    59   264   un
   371    61   278   un
   372    63   292   un
   373    65   306   un
   374    67   320   un
   375   334   335    1
   376   335   336    1
   377   337   335    1
   378   338   335    1
   379   339   338    1
   380   340   338    1
   381   341   338    1
   382   342   341    1
   383   343   341    1
   384   344   334    1
   385   345   344    1
   386   346   344    1
   387   341   344    1
   388   347   348    1
   389   348   349    1
   390   350   348    1
   391   351   348    1
   392   352   351    1
   393   353   351    1
   394   354   351    1
   395   355   354    1
   396   356   354    1
   397   357   347    1
   398   358   357    1
   399   359   357    1
   400   354   357    1
   401   360   361    1
   402   361   362    1
   403   363   361    1
   404   364   361    1
   405   365   364    1
   406   366   364    1
   407   367   364    1
   408   368   367    1
   409   369   367    1
   410   370   360    1
   411   371   370    1
   412   372   370    1
   413   367   370    1
@<TRIPOS>SUBSTRUCTURE
     1 RES1        1 GROUP             0 ****  ****    0  
     2 RES2      334 GROUP             0 ****  ****    0  
     3 RES3      347 GROUP             0 ****  ****    0  
     4 RES4      360 GROUP             0 ****  ****    0  
@<TRIPOS>CRYSIN
   35.8910   30.3790   31.2530   90.0000  124.4200   90.0000    15     1
