@<TRIPOS>MOLECULE
XUKPEZ
   107   114     1     0     0
SMALL
NO_CHARGES
****
Generated from the CSD

@<TRIPOS>ATOM
     1 Fe1     -0.4060  10.7015   4.5657   Fe        1 RES1   0.0000
     2 Se1      2.3077   9.5942   0.4915   Se        1 RES1   0.0000
     3 N1       0.7209  10.6263   2.7440   N.2       1 RES1   0.0000
     4 C1       1.3412  10.2194   1.8555   C.1       1 RES1   0.0000
     5 N2      -1.7372   9.1591   3.6690   N.ar      1 RES1   0.0000
     6 C2      -1.2582   8.2301   2.8326   C.ar      1 RES1   0.0000
     7 H1      -0.3175   8.1798   2.7047   H         1 RES1   0.0000
     8 C3      -2.0591   7.3461   2.1514   C.ar      1 RES1   0.0000
     9 H2      -1.6642   6.7073   1.5706   H         1 RES1   0.0000
    10 C4      -3.4382   7.3779   2.3015   C.ar      1 RES1   0.0000
    11 C5      -3.9262   8.3189   3.1955   C.ar      1 RES1   0.0000
    12 H3      -4.8604   8.3772   3.3586   H         1 RES1   0.0000
    13 C6      -3.0636   9.1684   3.8456   C.ar      1 RES1   0.0000
    14 H4      -3.4293   9.7993   4.4543   H         1 RES1   0.0000
    15 C7      -4.2580   6.3707   1.6028   C.2       1 RES1   0.0000
    16 H5      -3.8179   5.5437   1.4501   H         1 RES1   0.0000
    17 C8      -5.5109   6.4211   1.1462   C.2       1 RES1   0.0000
    18 H6      -5.8372   5.5835   0.8401   H         1 RES1   0.0000
    19 C9      -6.4847   7.5118   1.0224   C.ar      1 RES1   0.0000
    20 C10     -6.1274   8.8437   0.8620   C.ar      1 RES1   0.0000
    21 H7      -5.2104   9.0902   0.8766   H         1 RES1   0.0000
    22 C11     -7.0930   9.8178   0.6830   C.ar      1 RES1   0.0000
    23 H8      -6.8329  10.7257   0.5789   H         1 RES1   0.0000
    24 C12     -8.4293   9.4772   0.6538   C.ar      1 RES1   0.0000
    25 H9      -9.0882  10.1505   0.5351   H         1 RES1   0.0000
    26 C13     -8.8055   8.1718   0.7981   C.ar      1 RES1   0.0000
    27 H10     -9.7269   7.9372   0.7890   H         1 RES1   0.0000
    28 C14     -7.8422   7.1964   0.9581   C.ar      1 RES1   0.0000
    29 H11     -8.1109   6.2872   1.0264   H         1 RES1   0.0000
    30 N3      -1.7547  12.3635   3.9256   N.ar      1 RES1   0.0000
    31 C15     -2.1771  12.5784   2.6834   C.ar      1 RES1   0.0000
    32 H12     -1.9220  11.9648   2.0053   H         1 RES1   0.0000
    33 C16     -2.9685  13.6546   2.3367   C.ar      1 RES1   0.0000
    34 H13     -3.2478  13.7593   1.4355   H         1 RES1   0.0000
    35 C17     -3.3602  14.5823   3.2855   C.ar      1 RES1   0.0000
    36 C18     -2.9217  14.3543   4.5778   C.ar      1 RES1   0.0000
    37 H14     -3.1629  14.9494   5.2780   H         1 RES1   0.0000
    38 C19     -2.1347  13.2583   4.8395   C.ar      1 RES1   0.0000
    39 H15     -1.8407  13.1297   5.7327   H         1 RES1   0.0000
    40 C20     -4.3156  15.6478   2.9056   C.2       1 RES1   0.0000
    41 H16     -4.8387  15.4490   2.1368   H         1 RES1   0.0000
    42 C21     -4.5700  16.8260   3.4462   C.2       1 RES1   0.0000
    43 H17     -5.3355  17.2554   3.0828   H         1 RES1   0.0000
    44 C22     -3.8976  17.6026   4.5018   C.ar      1 RES1   0.0000
    45 C23     -2.5321  17.5788   4.7137   C.ar      1 RES1   0.0000
    46 H18     -1.9946  16.9903   4.1987   H         1 RES1   0.0000
    47 C24     -1.9361  18.3806   5.6506   C.ar      1 RES1   0.0000
    48 H19     -0.9947  18.3488   5.7674   H         1 RES1   0.0000
    49 C25     -2.6919  19.2341   6.4213   C.ar      1 RES1   0.0000
    50 H20     -2.2818  19.7894   7.0732   H         1 RES1   0.0000
    51 C26     -4.0476  19.2685   6.2331   C.ar      1 RES1   0.0000
    52 H21     -4.5828  19.8450   6.7664   H         1 RES1   0.0000
    53 C27     -4.6438  18.4747   5.2762   C.ar      1 RES1   0.0000
    54 H22     -5.5840  18.5264   5.1447   H         1 RES1   0.0000
    55 Se1A    -3.1196   9.5942   8.6400   Se        1 RES1   0.0000
    56 N1A     -1.5328  10.6263   6.3875   N.2       1 RES1   0.0000
    57 C1A     -2.1531  10.2194   7.2760   C.1       1 RES1   0.0000
    58 N2A      0.9253   9.1591   5.4624   N.ar      1 RES1   0.0000
    59 C2A      0.4463   8.2301   6.2989   C.ar      1 RES1   0.0000
    60 H1A     -0.4944   8.1798   6.4267   H         1 RES1   0.0000
    61 C3A      1.2471   7.3461   6.9801   C.ar      1 RES1   0.0000
    62 H2A      0.8523   6.7073   7.5609   H         1 RES1   0.0000
    63 C4A      2.6263   7.3779   6.8300   C.ar      1 RES1   0.0000
    64 C5A      3.1143   8.3189   5.9360   C.ar      1 RES1   0.0000
    65 H3A      4.0485   8.3772   5.7729   H         1 RES1   0.0000
    66 C6A      2.2517   9.1684   5.2858   C.ar      1 RES1   0.0000
    67 H4A      2.6174   9.7993   4.6771   H         1 RES1   0.0000
    68 C7A      3.4461   6.3707   7.5287   C.2       1 RES1   0.0000
    69 H5A      3.0059   5.5437   7.6814   H         1 RES1   0.0000
    70 C8A      4.6990   6.4211   7.9853   C.2       1 RES1   0.0000
    71 H6A      5.0253   5.5835   8.2914   H         1 RES1   0.0000
    72 C9A      5.6728   7.5118   8.1091   C.ar      1 RES1   0.0000
    73 C10A     5.3155   8.8437   8.2695   C.ar      1 RES1   0.0000
    74 H7A      4.3985   9.0902   8.2549   H         1 RES1   0.0000
    75 C11A     6.2811   9.8178   8.4484   C.ar      1 RES1   0.0000
    76 H8A      6.0210  10.7257   8.5525   H         1 RES1   0.0000
    77 C12A     7.6174   9.4772   8.4777   C.ar      1 RES1   0.0000
    78 H9A      8.2763  10.1505   8.5964   H         1 RES1   0.0000
    79 C13A     7.9936   8.1718   8.3334   C.ar      1 RES1   0.0000
    80 H10A     8.9150   7.9372   8.3425   H         1 RES1   0.0000
    81 C14A     7.0303   7.1964   8.1734   C.ar      1 RES1   0.0000
    82 H11A     7.2990   6.2872   8.1051   H         1 RES1   0.0000
    83 N3A      0.9428  12.3635   5.2059   N.ar      1 RES1   0.0000
    84 C15A     1.3651  12.5784   6.4481   C.ar      1 RES1   0.0000
    85 H12A     1.1101  11.9648   7.1262   H         1 RES1   0.0000
    86 C16A     2.1566  13.6546   6.7947   C.ar      1 RES1   0.0000
    87 H13A     2.4359  13.7593   7.6960   H         1 RES1   0.0000
    88 C17A     2.5483  14.5823   5.8460   C.ar      1 RES1   0.0000
    89 C18A     2.1098  14.3543   4.5537   C.ar      1 RES1   0.0000
    90 H14A     2.3510  14.9494   3.8535   H         1 RES1   0.0000
    91 C19A     1.3228  13.2583   4.2920   C.ar      1 RES1   0.0000
    92 H15A     1.0288  13.1297   3.3987   H         1 RES1   0.0000
    93 C20A     3.5037  15.6478   6.2258   C.2       1 RES1   0.0000
    94 H16A     4.0268  15.4490   6.9947   H         1 RES1   0.0000
    95 C21A     3.7581  16.8260   5.6853   C.2       1 RES1   0.0000
    96 H17A     4.5236  17.2554   6.0487   H         1 RES1   0.0000
    97 C22A     3.0857  17.6026   4.6297   C.ar      1 RES1   0.0000
    98 C23A     1.7202  17.5788   4.4178   C.ar      1 RES1   0.0000
    99 H18A     1.1827  16.9903   4.9328   H         1 RES1   0.0000
   100 C24A     1.1242  18.3806   3.4809   C.ar      1 RES1   0.0000
   101 H19A     0.1827  18.3488   3.3640   H         1 RES1   0.0000
   102 C25A     1.8800  19.2341   2.7102   C.ar      1 RES1   0.0000
   103 H20A     1.4699  19.7894   2.0582   H         1 RES1   0.0000
   104 C26A     3.2357  19.2685   2.8983   C.ar      1 RES1   0.0000
   105 H21A     3.7709  19.8450   2.3651   H         1 RES1   0.0000
   106 C27A     3.8319  18.4747   3.8553   C.ar      1 RES1   0.0000
   107 H22A     4.7721  18.5264   3.9868   H         1 RES1   0.0000
@<TRIPOS>BOND
     1     1     3    1
     2     2     4    2
     3     3     4    2
     4     5     1    1
     5     6     5   ar
     6     7     6    1
     7     8     6   ar
     8     9     8    1
     9    10     8   ar
    10    11    10   ar
    11    12    11    1
    12    13     5   ar
    13    14    13    1
    14    15    10    1
    15    16    15    1
    16    17    15    2
    17    18    17    1
    18    19    17    1
    19    20    19   ar
    20    21    20    1
    21    22    20   ar
    22    23    22    1
    23    24    22   ar
    24    25    24    1
    25    26    24   ar
    26    27    26    1
    27    28    19   ar
    28    29    28    1
    29    30     1    1
    30    31    30   ar
    31    32    31    1
    32    33    31   ar
    33    34    33    1
    34    35    33   ar
    35    36    35   ar
    36    37    36    1
    37    38    30   ar
    38    39    38    1
    39    40    35    1
    40    41    40    1
    41    42    40    2
    42    43    42    1
    43    44    42    1
    44    45    44   ar
    45    46    45    1
    46    47    45   ar
    47    48    47    1
    48    49    47   ar
    49    50    49    1
    50    51    49   ar
    51    52    51    1
    52    53    44   ar
    53    54    53    1
    54    55    57    2
    55    56     1    1
    56    57    56    2
    57    58     1    1
    58    59    58   ar
    59    60    59    1
    60    61    59   ar
    61    62    61    1
    62    63    61   ar
    63    64    63   ar
    64    65    64    1
    65    66    58   ar
    66    67    66    1
    67    68    63    1
    68    69    68    1
    69    70    68    2
    70    71    70    1
    71    72    70    1
    72    73    72   ar
    73    74    73    1
    74    75    73   ar
    75    76    75    1
    76    77    75   ar
    77    78    77    1
    78    79    77   ar
    79    80    79    1
    80    81    72   ar
    81    82    81    1
    82    83     1    1
    83    84    83   ar
    84    85    84    1
    85    86    84   ar
    86    87    86    1
    87    88    86   ar
    88    89    88   ar
    89    90    89    1
    90    91    83   ar
    91    92    91    1
    92    93    88    1
    93    94    93    1
    94    95    93    2
    95    96    95    1
    96    97    95    1
    97    98    97   ar
    98    99    98    1
    99   100    98   ar
   100   101   100    1
   101   102   100   ar
   102   103   102    1
   103   104   102   ar
   104   105   104    1
   105   106    97   ar
   106   107   106    1
   107    11    13   ar
   108    26    28   ar
   109    36    38   ar
   110    51    53   ar
   111    64    66   ar
   112    79    81   ar
   113    89    91   ar
   114   104   106   ar
@<TRIPOS>SUBSTRUCTURE
     1 RES1        1 GROUP             0 ****  ****    0  
@<TRIPOS>CRYSIN
   19.7480   13.2530   18.3350   90.0000   95.0810   90.0000    15     1
