@<TRIPOS>MOLECULE
XUXLAF
   121   129     2     0     0
SMALL
USER_CHARGES
****
Generated from the CSD

@<TRIPOS>ATOM
     1 Fe1      7.7401   3.1433   3.0937   Fe        1 RES1   1.0000
     2 Br1      7.5266   3.2368   0.6633   Br        1 RES1   0.0000
     3 P1       8.7621   1.1218   3.2700   P.3       1 RES1   0.0000
     4 P2       6.6896   5.1374   3.3758   P.3       1 RES1   0.0000
     5 O1       5.2349   1.6347   3.3559   O.2       1 RES1   0.0000
     6 O2      10.4578   4.2200   2.6326   O.2       1 RES1   0.0000
     7 N1       7.8803   3.2246   5.0670   N.2       1 RES1   0.0000
     8 C1       8.7159   0.9451   5.0901   C.3       1 RES1   0.0000
     9 H1       7.8624   0.5240   5.3661   H         1 RES1   0.0000
    10 H2       9.4588   0.3632   5.3907   H         1 RES1   0.0000
    11 C2       8.8437   2.3094   5.7237   C.3       1 RES1   0.0000
    12 H3       8.6504   2.2539   6.6918   H         1 RES1   0.0000
    13 H4       9.7654   2.6509   5.6081   H         1 RES1   0.0000
    14 C3       7.1592   4.0004   5.7777   C.2       1 RES1   0.0000
    15 H5       7.2493   3.9954   6.7226   H         1 RES1   0.0000
    16 C4       6.1755   4.9163   5.1302   C.3       1 RES1   0.0000
    17 H6       6.1651   5.7903   5.5958   H         1 RES1   0.0000
    18 H7       5.2660   4.5269   5.1734   H         1 RES1   0.0000
    19 C5       6.1503   2.2400   3.2372   C.1       1 RES1   0.0000
    20 C6       9.4060   3.8495   2.8241   C.1       1 RES1   0.0000
    21 C7      10.4906   1.0194   2.7223   C.ar      1 RES1   0.0000
    22 C8      11.5334   0.7435   3.5918   C.ar      1 RES1   0.0000
    23 H8      11.3499   0.5662   4.5074   H         1 RES1   0.0000
    24 C9      12.8388   0.7226   3.1355   C.ar      1 RES1   0.0000
    25 H9      13.5480   0.5309   3.7398   H         1 RES1   0.0000
    26 C10     13.1175   0.9777   1.8082   C.ar      1 RES1   0.0000
    27 H10     14.0170   0.9685   1.5015   H         1 RES1   0.0000
    28 C11     12.0928   1.2473   0.9295   C.ar      1 RES1   0.0000
    29 H11     12.2839   1.4175   0.0154   H         1 RES1   0.0000
    30 C12     10.7690   1.2684   1.3828   C.ar      1 RES1   0.0000
    31 H12     10.0617   1.4534   0.7754   H         1 RES1   0.0000
    32 C13      7.9580  -0.3639   2.6175   C.ar      1 RES1   0.0000
    33 C14      7.1667  -0.3162   1.4830   C.ar      1 RES1   0.0000
    34 H13      7.0549   0.5083   1.0236   H         1 RES1   0.0000
    35 C15      6.5355  -1.4546   1.0082   C.ar      1 RES1   0.0000
    36 H14      6.0107  -1.4074   0.2174   H         1 RES1   0.0000
    37 C16      6.6645  -2.6521   1.6726   C.ar      1 RES1   0.0000
    38 H15      6.2008  -3.4244   1.3689   H         1 RES1   0.0000
    39 C17      7.4745  -2.7177   2.7855   C.ar      1 RES1   0.0000
    40 H16      7.5967  -3.5468   3.2295   H         1 RES1   0.0000
    41 C18      8.1087  -1.5876   3.2588   C.ar      1 RES1   0.0000
    42 H17      8.6567  -1.6476   4.0326   H         1 RES1   0.0000
    43 C19      7.7194   6.6653   3.3667   C.3       1 RES1   0.0000
    44 H18      7.0979   7.4324   3.5270   H         1 RES1   0.0000
    45 C20      8.7482   6.6825   4.5105   C.3       1 RES1   0.0000
    46 H19      8.2750   6.6605   5.3799   H         1 RES1   0.0000
    47 H20      9.3194   5.8762   4.4519   H         1 RES1   0.0000
    48 C21      9.6171   7.9247   4.4412   C.3       1 RES1   0.0000
    49 H21     10.2844   7.8984   5.1718   H         1 RES1   0.0000
    50 H22      9.0532   8.7273   4.5722   H         1 RES1   0.0000
    51 C22     10.3386   8.0283   3.1062   C.3       1 RES1   0.0000
    52 H23     10.9031   8.8412   3.0908   H         1 RES1   0.0000
    53 H24     10.9253   7.2407   2.9798   H         1 RES1   0.0000
    54 C23      9.3148   8.0918   1.9840   C.3       1 RES1   0.0000
    55 H25      9.7874   8.1208   1.1145   H         1 RES1   0.0000
    56 H26      8.7894   8.9253   2.0718   H         1 RES1   0.0000
    57 C24      8.3631   6.8999   1.9932   C.3       1 RES1   0.0000
    58 H27      8.8620   6.0872   1.7281   H         1 RES1   0.0000
    59 H28      7.6497   7.0502   1.3242   H         1 RES1   0.0000
    60 C25      5.1861   5.6201   2.4202   C.3       1 RES1   0.0000
    61 H29      5.5107   6.0342   1.5693   H         1 RES1   0.0000
    62 C26      4.2864   4.4738   2.0194   C.3       1 RES1   0.0000
    63 H30      3.9390   4.0288   2.8333   H         1 RES1   0.0000
    64 H31      4.8123   3.8080   1.5092   H         1 RES1   0.0000
    65 C27      3.1138   4.9521   1.1669   C.3       1 RES1   0.0000
    66 H32      3.4565   5.3013   0.3068   H         1 RES1   0.0000
    67 H33      2.5189   4.1849   0.9696   H         1 RES1   0.0000
    68 C28      2.3168   6.0370   1.8668   C.3       1 RES1   0.0000
    69 H34      1.6129   6.3728   1.2563   H         1 RES1   0.0000
    70 H35      1.8722   5.6545   2.6653   H         1 RES1   0.0000
    71 C29      3.2050   7.1888   2.2892   C.3       1 RES1   0.0000
    72 H36      2.6705   7.8446   2.8025   H         1 RES1   0.0000
    73 H37      3.5555   7.6444   1.4830   H         1 RES1   0.0000
    74 C30      4.3784   6.7028   3.1509   C.3       1 RES1   0.0000
    75 H38      4.0326   6.3374   4.0034   H         1 RES1   0.0000
    76 H39      4.9708   7.4677   3.3621   H         1 RES1   0.0000
    77 B1       4.0975   2.3327   8.7066   B         2 RES2  -1.0000
    78 C31      3.5059   2.2318  10.2419   C.ar      2 RES2   0.0000
    79 C32      4.2708   2.5419  11.3672   C.ar      2 RES2   0.0000
    80 H40      5.1383   2.9066  11.2393   H         2 RES2   0.0000
    81 C33      3.8171   2.3419  12.6652   C.ar      2 RES2   0.0000
    82 H41      4.3822   2.5496  13.4005   H         2 RES2   0.0000
    83 C34      2.5559   1.8463  12.8887   C.ar      2 RES2   0.0000
    84 H42      2.2496   1.6934  13.7751   H         2 RES2   0.0000
    85 C35      1.7400   1.5717  11.8143   C.ar      2 RES2   0.0000
    86 H43      0.8564   1.2547  11.9592   H         2 RES2   0.0000
    87 C36      2.2044   1.7579  10.5148   C.ar      2 RES2   0.0000
    88 H44      1.6264   1.5593   9.7872   H         2 RES2   0.0000
    89 C37      4.4343   0.8197   8.1254   C.ar      2 RES2   0.0000
    90 C38      3.6341  -0.2783   8.4460   C.ar      2 RES2   0.0000
    91 H45      2.9377  -0.1584   9.0812   H         2 RES2   0.0000
    92 C39      3.8055  -1.5443   7.8818   C.ar      2 RES2   0.0000
    93 H46      3.2303  -2.2578   8.1300   H         2 RES2   0.0000
    94 C40      4.8067  -1.7575   6.9662   C.ar      2 RES2   0.0000
    95 H47      4.9347  -2.6146   6.5777   H         2 RES2   0.0000
    96 C41      5.6197  -0.7053   6.6224   C.ar      2 RES2   0.0000
    97 H48      6.3169  -0.8395   5.9904   H         2 RES2   0.0000
    98 C42      5.4347   0.5604   7.1897   C.ar      2 RES2   0.0000
    99 H49      6.0117   1.2678   6.9292   H         2 RES2   0.0000
   100 C43      5.4233   3.3002   8.7544   C.ar      2 RES2   0.0000
   101 C44      5.3377   4.7012   8.6279   C.ar      2 RES2   0.0000
   102 H50      4.5021   5.0799   8.3798   H         2 RES2   0.0000
   103 C45      6.3975   5.5497   8.8407   C.ar      2 RES2   0.0000
   104 H51      6.2840   6.4873   8.7374   H         2 RES2   0.0000
   105 C46      7.6319   5.0371   9.2076   C.ar      2 RES2   0.0000
   106 H52      8.3676   5.6161   9.3648   H         2 RES2   0.0000
   107 C47      7.7745   3.6734   9.3386   C.ar      2 RES2   0.0000
   108 H53      8.6170   3.3089   9.5837   H         2 RES2   0.0000
   109 C48      6.6951   2.8242   9.1166   C.ar      2 RES2   0.0000
   110 H54      6.8221   1.8871   9.2122   H         2 RES2   0.0000
   111 C49      2.9869   3.0243   7.6784   C.ar      2 RES2   0.0000
   112 C50      1.9781   3.8740   8.1316   C.ar      2 RES2   0.0000
   113 H55      1.9186   4.0527   9.0627   H         2 RES2   0.0000
   114 C51      1.0510   4.4724   7.2791   C.ar      2 RES2   0.0000
   115 H56      0.3643   5.0234   7.6352   H         2 RES2   0.0000
   116 C52      1.1317   4.2638   5.9195   C.ar      2 RES2   0.0000
   117 H57      0.5132   4.6806   5.3291   H         2 RES2   0.0000
   118 C53      2.1203   3.4432   5.4293   C.ar      2 RES2   0.0000
   119 H58      2.1841   3.2900   4.4936   H         2 RES2   0.0000
   120 C54      3.0259   2.8361   6.2879   C.ar      2 RES2   0.0000
   121 H59      3.6964   2.2718   5.9210   H         2 RES2   0.0000
@<TRIPOS>BOND
     1     1     2    1
     2     3     1    1
     3     4     1    1
     4     5    19    3
     5     6    20    3
     6     7     1    1
     7     8     3    1
     8     9     8    1
     9    10     8    1
    10    11     7    1
    11    12    11    1
    12    13    11    1
    13    14     7    2
    14    15    14    1
    15    16     4    1
    16    17    16    1
    17    18    16    1
    18    19     1    1
    19    20     1    1
    20    21     3    1
    21    22    21   ar
    22    23    22    1
    23    24    22   ar
    24    25    24    1
    25    26    24   ar
    26    27    26    1
    27    28    26   ar
    28    29    28    1
    29    30    21   ar
    30    31    30    1
    31    32     3    1
    32    33    32   ar
    33    34    33    1
    34    35    33   ar
    35    36    35    1
    36    37    35   ar
    37    38    37    1
    38    39    37   ar
    39    40    39    1
    40    41    32   ar
    41    42    41    1
    42    43     4    1
    43    44    43    1
    44    45    43    1
    45    46    45    1
    46    47    45    1
    47    48    45    1
    48    49    48    1
    49    50    48    1
    50    51    48    1
    51    52    51    1
    52    53    51    1
    53    54    51    1
    54    55    54    1
    55    56    54    1
    56    57    43    1
    57    58    57    1
    58    59    57    1
    59    60     4    1
    60    61    60    1
    61    62    60    1
    62    63    62    1
    63    64    62    1
    64    65    62    1
    65    66    65    1
    66    67    65    1
    67    68    65    1
    68    69    68    1
    69    70    68    1
    70    71    68    1
    71    72    71    1
    72    73    71    1
    73    74    60    1
    74    75    74    1
    75    76    74    1
    76     8    11    1
    77    14    16    1
    78    28    30   ar
    79    39    41   ar
    80    54    57    1
    81    71    74    1
    82    77    78    1
    83    78    79   ar
    84    79    80    1
    85    81    79   ar
    86    82    81    1
    87    83    81   ar
    88    84    83    1
    89    85    83   ar
    90    86    85    1
    91    87    78   ar
    92    88    87    1
    93    89    77    1
    94    90    89   ar
    95    91    90    1
    96    92    90   ar
    97    93    92    1
    98    94    92   ar
    99    95    94    1
   100    96    94   ar
   101    97    96    1
   102    98    89   ar
   103    99    98    1
   104   100    77    1
   105   101   100   ar
   106   102   101    1
   107   103   101   ar
   108   104   103    1
   109   105   103   ar
   110   106   105    1
   111   107   105   ar
   112   108   107    1
   113   109   100   ar
   114   110   109    1
   115   111    77    1
   116   112   111   ar
   117   113   112    1
   118   114   112   ar
   119   115   114    1
   120   116   114   ar
   121   117   116    1
   122   118   116   ar
   123   119   118    1
   124   120   111   ar
   125   121   120    1
   126    85    87   ar
   127    96    98   ar
   128   107   109   ar
   129   118   120   ar
@<TRIPOS>SUBSTRUCTURE
     1 RES1        1 GROUP             0 ****  ****    0  
     2 RES2       77 GROUP             0 ****  ****    0  
@<TRIPOS>CRYSIN
   11.0699   14.9971   15.9716   88.2970   75.3640   68.4510     2     1
