@<TRIPOS>MOLECULE
XUYYOG
   100    94    12     0     0
SMALL
USER_CHARGES
****
Generated from the CSD

@<TRIPOS>ATOM
     1 Fe1      5.6431  -6.5161   8.0859   Fe        1 RES1  -3.0000
     2 N1       5.4945  -3.5715   9.0035   N.1       1 RES1   0.0000
     3 N2       7.5726  -5.5931   5.8462   N.1       1 RES1   0.0000
     4 N3       8.0473  -7.0557   9.9255   N.1       1 RES1   0.0000
     5 N4       5.7770  -9.4672   7.1921   N.1       1 RES1   0.0000
     6 N5       3.6702  -7.4626  10.3029   N.1       1 RES1   0.0000
     7 N6       3.2197  -5.9883   6.1968   N.1       1 RES1   0.0000
     8 C1       5.5548  -4.6865   8.6638   C.1       1 RES1   0.0000
     9 C2       6.8612  -5.9365   6.6712   C.1       1 RES1   0.0000
    10 C3       7.1617  -6.8542   9.2491   C.1       1 RES1   0.0000
    11 C4       5.7472  -8.3661   7.5229   C.1       1 RES1   0.0000
    12 C5       4.3999  -7.0945   9.4660   C.1       1 RES1   0.0000
    13 C6       4.1434  -6.1943   6.9019   C.1       1 RES1   0.0000
    14 N7       6.2302  -5.3242   1.8708   N.ar      2 RES2   1.0000
    15 H1       7.0900  -5.3123   1.8837   H         2 RES2   0.0000
    16 N8      -0.8296  -5.3980   1.8025   N.ar      2 RES2   0.0000
    17 C7       5.5058  -5.6383   2.9830   C.ar      2 RES2   0.0000
    18 H4       5.9666  -5.8679   3.7813   H         2 RES2   0.0000
    19 C8       5.5289  -5.0215   0.7448   C.ar      2 RES2   0.0000
    20 H5       6.0074  -4.7929  -0.0436   H         2 RES2   0.0000
    21 C9       4.1516  -5.6342   2.9850   C.ar      2 RES2   0.0000
    22 H6       3.6906  -5.8194   3.7951   H         2 RES2   0.0000
    23 C10      4.1827  -5.0329   0.7051   C.ar      2 RES2   0.0000
    24 H7       3.7438  -4.8095  -0.1070   H         2 RES2   0.0000
    25 C11      3.4115  -5.3655   1.8272   C.ar      2 RES2   0.0000
    26 C12      1.9397  -5.4113   1.8243   C.ar      2 RES2   0.0000
    27 C13      1.2192  -5.5857   2.9949   C.ar      2 RES2   0.0000
    28 H8       1.6728  -5.7272   3.8179   H         2 RES2   0.0000
    29 C14      1.2039  -5.2417   0.6051   C.ar      2 RES2   0.0000
    30 H9       1.6525  -5.1291  -0.2238   H         2 RES2   0.0000
    31 C15     -0.1517  -5.5523   2.9602   C.ar      2 RES2   0.0000
    32 H10     -0.6373  -5.6407   3.7723   H         2 RES2   0.0000
    33 C16     -0.1335  -5.2478   0.6685   C.ar      2 RES2   0.0000
    34 H11     -0.6183  -5.1377  -0.1416   H         2 RES2   0.0000
    35 N9       6.5592  -2.5050   4.3408   N.ar      3 RES3   1.0000
    36 H2       7.4188  -2.5220   4.3359   H         3 RES3   0.0000
    37 N10     -0.4848  -2.5674   4.3022   N.ar      3 RES3   0.0000
    38 C17      5.9169  -2.6907   5.4916   C.ar      3 RES3   0.0000
    39 H12      6.4013  -2.8276   6.2978   H         3 RES3   0.0000
    40 C18      5.9053  -2.3012   3.1989   C.ar      3 RES3   0.0000
    41 H13      6.3940  -2.1582   2.3967   H         3 RES3   0.0000
    42 C19      4.5064  -2.6825   5.4996   C.ar      3 RES3   0.0000
    43 H14      4.0415  -2.8110   6.3176   H         3 RES3   0.0000
    44 C20      4.5351  -2.2935   3.1662   C.ar      3 RES3   0.0000
    45 H15      4.0806  -2.1542   2.3432   H         3 RES3   0.0000
    46 C21      3.7995  -2.4901   4.3458   C.ar      3 RES3   0.0000
    47 C22      2.2966  -2.4983   4.3319   C.ar      3 RES3   0.0000
    48 C23      1.5861  -2.9376   5.4391   C.ar      3 RES3   0.0000
    49 H16      2.0374  -3.2244   6.2245   H         3 RES3   0.0000
    50 C24      1.5883  -2.0807   3.2108   C.ar      3 RES3   0.0000
    51 H17      2.0416  -1.7444   2.4472   H         3 RES3   0.0000
    52 C25      0.1854  -2.9486   5.3708   C.ar      3 RES3   0.0000
    53 H18     -0.3022  -3.2436   6.1304   H         3 RES3   0.0000
    54 C26      0.2134  -2.1657   3.2356   C.ar      3 RES3   0.0000
    55 H19     -0.2645  -1.9257   2.4512   H         3 RES3   0.0000
    56 N11      8.6823   1.2780   3.0771   N.ar      4 RES4   1.0000
    57 H3       9.5421   1.2842   3.0791   H         4 RES4   0.0000
    58 N12      1.6320   1.2785   3.0603   N.ar      4 RES4   0.0000
    59 C27      8.0073   0.7992   1.9976   C.ar      4 RES4   0.0000
    60 H20      8.4919   0.4817   1.2449   H         4 RES4   0.0000
    61 C28      7.9933   1.7315   4.1338   C.ar      4 RES4   0.0000
    62 H21      8.4682   2.0728   4.8826   H         4 RES4   0.0000
    63 C29      6.6646   0.7693   1.9798   C.ar      4 RES4   0.0000
    64 H22      6.2167   0.4177   1.2192   H         4 RES4   0.0000
    65 C30      6.6401   1.7172   4.1675   C.ar      4 RES4   0.0000
    66 H23      6.1780   2.0255   4.9380   H         4 RES4   0.0000
    67 C31      5.9187   1.2409   3.0474   C.ar      4 RES4   0.0000
    68 C32      4.4237   1.2234   3.0513   C.ar      4 RES4   0.0000
    69 C33      3.7088   1.1175   4.2210   C.ar      4 RES4   0.0000
    70 H24      4.1728   1.0065   5.0430   H         4 RES4   0.0000
    71 C34      3.7152   1.3297   1.8728   C.ar      4 RES4   0.0000
    72 H25      4.1764   1.3913   1.0448   H         4 RES4   0.0000
    73 C35      2.3326   1.1696   4.2259   C.ar      4 RES4   0.0000
    74 H26      1.8650   1.1296   5.0519   H         4 RES4   0.0000
    75 C36      2.3290   1.3478   1.8956   C.ar      4 RES4   0.0000
    76 H27      1.8536   1.4093   1.0755   H         4 RES4   0.0000
    77 O1       8.2566  -2.5359   8.6064   O.3       5 RES5   0.0000
    78 H28      7.4674  -2.9190   8.7668   H         5 RES5   0.0000
    79 H29      8.2497  -1.8184   8.1191   H         5 RES5   0.0000
    80 O2       3.0237 -10.5062   7.3516   O.3       6 RES6   0.0000
    81 H30      3.8168 -10.1888   7.3357   H         6 RES6   0.0000
    82 H31      3.0748 -11.1660   7.8329   H         6 RES6   0.0000
    83 O3      10.7689  -6.3542   9.7215   O.3       7 RES7   0.0000
    84 H32     11.5035  -6.9632   9.7096   H         7 RES7   0.0000
    85 H33      9.9313  -6.7260   9.8344   H         7 RES7   0.0000
    86 O4       0.8844  -3.9103   8.4687   O.3       8 RES8   0.0000
    87 H34      0.1131  -3.5263   8.5450   H         8 RES8   0.0000
    88 H35      0.8648  -4.6707   8.8817   H         8 RES8   0.0000
    89 O5       8.3315 -10.8610   6.7900   O.3       9 RES9   0.0000
    90 H36      7.5808 -10.4507   6.9128   H         9 RES9   0.0000
    91 H37      8.9827 -10.3316   6.9990   H         9 RES9   0.0000
    92 O6       2.9205  -2.2326   9.1798   O.3      10 RES10   0.0000
    93 H38      3.6777  -2.6340   9.1253   H        10 RES10   0.0000
    94 H39      2.2842  -2.7641   8.9570   H        10 RES10   0.0000
    95 O7       0.5357  -6.7875   6.1146   O.3      11 RES11   0.0000
    96 H40      1.2717  -6.3279   6.1205   H        11 RES11   0.0000
    97 H41     -0.1328  -6.2394   6.0314   H        11 RES11   0.0000
    98 O8      10.4016  -9.1922   7.4447   O.3      12 RES12   0.0000
    99 H42     10.1626  -8.4566   6.9960   H        12 RES12   0.0000
   100 H43     11.3708  -9.4539   7.4189   H        12 RES12   0.0000
@<TRIPOS>BOND
     1     1     8    1
     2     2     8    3
     3     3     9    3
     4     4    10    3
     5     5    11    3
     6     6    12    3
     7     7    13    3
     8     9     1    1
     9    10     1    1
    10    11     1    1
    11    12     1    1
    12    13     1    1
    13    14    15    1
    14    16    31   ar
    15    17    14   ar
    16    18    17    1
    17    19    14   ar
    18    20    19    1
    19    21    17   ar
    20    22    21    1
    21    23    19   ar
    22    24    23    1
    23    25    21   ar
    24    26    25    1
    25    27    26   ar
    26    28    27    1
    27    29    26   ar
    28    30    29    1
    29    31    27   ar
    30    32    31    1
    31    33    16   ar
    32    34    33    1
    33    23    25   ar
    34    29    33   ar
    35    35    36    1
    36    37    52   ar
    37    38    35   ar
    38    39    38    1
    39    40    35   ar
    40    41    40    1
    41    42    38   ar
    42    43    42    1
    43    44    40   ar
    44    45    44    1
    45    46    42   ar
    46    47    46    1
    47    48    47   ar
    48    49    48    1
    49    50    47   ar
    50    51    50    1
    51    52    48   ar
    52    53    52    1
    53    54    37   ar
    54    55    54    1
    55    44    46   ar
    56    50    54   ar
    57    56    57    1
    58    58    73   ar
    59    59    56   ar
    60    60    59    1
    61    61    56   ar
    62    62    61    1
    63    63    59   ar
    64    64    63    1
    65    65    61   ar
    66    66    65    1
    67    67    63   ar
    68    68    67    1
    69    69    68   ar
    70    70    69    1
    71    71    68   ar
    72    72    71    1
    73    73    69   ar
    74    74    73    1
    75    75    58   ar
    76    76    75    1
    77    65    67   ar
    78    71    75   ar
    79    77    78    1
    80    79    77    1
    81    80    81    1
    82    82    80    1
    83    83    84    1
    84    85    83    1
    85    86    87    1
    86    88    86    1
    87    89    90    1
    88    91    89    1
    89    92    93    1
    90    94    92    1
    91    95    96    1
    92    97    95    1
    93    98    99    1
    94   100    98    1
@<TRIPOS>SUBSTRUCTURE
     1 RES1        1 GROUP             0 ****  ****    0  
     2 RES2       14 GROUP             0 ****  ****    0  
     3 RES3       35 GROUP             0 ****  ****    0  
     4 RES4       56 GROUP             0 ****  ****    0  
     5 RES5       77 GROUP             0 ****  ****    0  
     6 RES6       80 GROUP             0 ****  ****    0  
     7 RES7       83 GROUP             0 ****  ****    0  
     8 RES8       86 GROUP             0 ****  ****    0  
     9 RES9       89 GROUP             0 ****  ****    0  
    10 RES10      92 GROUP             0 ****  ****    0  
    11 RES11      95 GROUP             0 ****  ****    0  
    12 RES12      98 GROUP             0 ****  ****    0  
@<TRIPOS>CRYSIN
    9.7496   10.3079   11.9451  114.9200  110.9330   91.3740     1     1
