@<TRIPOS>MOLECULE
YACNIB
   123   134     3     0     0
SMALL
USER_CHARGES
****
Generated from the CSD

@<TRIPOS>ATOM
     1 Fe1     20.1930   3.7555   0.0000   Fe        1 RES1   2.0000
     2 P1      18.5195   5.2547   0.1301   P.3       1 RES1   0.0000
     3 N1      21.5385   2.2792   0.0151   N.ar      1 RES1   0.0000
     4 N2      21.4672   2.7800   2.2377   N.pl3     1 RES1   0.0000
     5 N3      20.4007   3.6071   1.9253   N.2       1 RES1   0.0000
     6 C1      21.9666   1.4943  -0.9950   C.ar      1 RES1   0.0000
     7 C2      22.8450   0.4663  -0.8100   C.ar      1 RES1   0.0000
     8 C3      23.3231   0.2053   0.4679   C.ar      1 RES1   0.0000
     9 C4      22.8833   0.9673   1.5245   C.ar      1 RES1   0.0000
    10 C5      21.9618   2.0077   1.2465   C.ar      1 RES1   0.0000
    11 C6      19.7238   4.0277   2.9534   C.2       1 RES1   0.0000
    12 C7      18.5605   4.9072   2.9509   C.ar      1 RES1   0.0000
    13 C8      17.9974   5.1150   4.2251   C.ar      1 RES1   0.0000
    14 C9      16.8822   5.9141   4.3987   C.ar      1 RES1   0.0000
    15 C10     16.2801   6.5178   3.3132   C.ar      1 RES1   0.0000
    16 C11     16.8044   6.3136   2.0515   C.ar      1 RES1   0.0000
    17 C12     17.9542   5.5343   1.8427   C.ar      1 RES1   0.0000
    18 C13     18.7275   6.9161  -0.6113   C.ar      1 RES1   0.0000
    19 C14     18.5618   8.0974   0.1220   C.ar      1 RES1   0.0000
    20 C15     18.7054   9.3332  -0.4968   C.ar      1 RES1   0.0000
    21 C16     19.0560   9.4235  -1.8239   C.ar      1 RES1   0.0000
    22 C17     19.2473   8.2693  -2.5597   C.ar      1 RES1   0.0000
    23 C18     19.0954   7.0200  -1.9585   C.ar      1 RES1   0.0000
    24 C19     16.9363   4.6697  -0.6163   C.ar      1 RES1   0.0000
    25 C20     16.5330   4.9839  -1.8868   C.ar      1 RES1   0.0000
    26 C21     15.3694   4.4334  -2.4213   C.ar      1 RES1   0.0000
    27 C22     14.5937   3.5811  -1.6780   C.ar      1 RES1   0.0000
    28 C23     14.9762   3.2521  -0.3887   C.ar      1 RES1   0.0000
    29 C24     16.1345   3.7902   0.1421   C.ar      1 RES1   0.0000
    30 H1      21.6449   1.6650  -1.8717   H         1 RES1   0.0000
    31 H2      23.1239  -0.0656  -1.5459   H         1 RES1   0.0000
    32 H3      23.9514  -0.4936   0.6113   H         1 RES1   0.0000
    33 H4      23.1839   0.8016   2.4100   H         1 RES1   0.0000
    34 H5      20.0193   3.7258   3.8037   H         1 RES1   0.0000
    35 H6      18.3938   4.6994   4.9810   H         1 RES1   0.0000
    36 H7      16.5298   6.0489   5.2704   H         1 RES1   0.0000
    37 H8      15.5129   7.0657   3.4314   H         1 RES1   0.0000
    38 H9      16.3756   6.7132   1.3044   H         1 RES1   0.0000
    39 H10     18.3515   8.0541   1.0478   H         1 RES1   0.0000
    40 H11     18.5611  10.1273   0.0050   H         1 RES1   0.0000
    41 H12     19.1620  10.2745  -2.2314   H         1 RES1   0.0000
    42 H13     19.4831   8.3275  -3.4779   H         1 RES1   0.0000
    43 H14     19.2444   6.2320  -2.4679   H         1 RES1   0.0000
    44 H15     17.0527   5.5838  -2.4100   H         1 RES1   0.0000
    45 H16     15.1118   4.6536  -3.3106   H         1 RES1   0.0000
    46 H17     13.7970   3.2174  -2.0465   H         1 RES1   0.0000
    47 H18     14.4451   2.6583   0.1270   H         1 RES1   0.0000
    48 H19     16.3915   3.5650   1.0289   H         1 RES1   0.0000
    49 H20     21.5459   2.5482   3.0188   H         1 RES1   0.0000
    50 P1A     21.8665   5.2547  -0.1301   P.3       1 RES1   0.0000
    51 N1A     18.8475   2.2792  -0.0151   N.ar      1 RES1   0.0000
    52 N2A     18.9188   2.7800  -2.2377   N.pl3     1 RES1   0.0000
    53 N3A     19.9853   3.6071  -1.9253   N.2       1 RES1   0.0000
    54 C1A     18.4194   1.4943   0.9950   C.ar      1 RES1   0.0000
    55 C2A     17.5410   0.4663   0.8100   C.ar      1 RES1   0.0000
    56 C3A     17.0629   0.2053  -0.4679   C.ar      1 RES1   0.0000
    57 C4A     17.5027   0.9673  -1.5245   C.ar      1 RES1   0.0000
    58 C5A     18.4242   2.0077  -1.2465   C.ar      1 RES1   0.0000
    59 C6A     20.6622   4.0277  -2.9534   C.2       1 RES1   0.0000
    60 C7A     21.8255   4.9072  -2.9509   C.ar      1 RES1   0.0000
    61 C8A     22.3886   5.1150  -4.2251   C.ar      1 RES1   0.0000
    62 C9A     23.5038   5.9141  -4.3987   C.ar      1 RES1   0.0000
    63 C10A    24.1059   6.5178  -3.3132   C.ar      1 RES1   0.0000
    64 C11A    23.5816   6.3136  -2.0515   C.ar      1 RES1   0.0000
    65 C12A    22.4318   5.5343  -1.8427   C.ar      1 RES1   0.0000
    66 C13A    21.6585   6.9161   0.6113   C.ar      1 RES1   0.0000
    67 C14A    21.8242   8.0974  -0.1220   C.ar      1 RES1   0.0000
    68 C15A    21.6806   9.3332   0.4968   C.ar      1 RES1   0.0000
    69 C16A    21.3300   9.4235   1.8239   C.ar      1 RES1   0.0000
    70 C17A    21.1387   8.2693   2.5597   C.ar      1 RES1   0.0000
    71 C18A    21.2906   7.0200   1.9585   C.ar      1 RES1   0.0000
    72 C19A    23.4497   4.6697   0.6163   C.ar      1 RES1   0.0000
    73 C20A    23.8530   4.9839   1.8868   C.ar      1 RES1   0.0000
    74 C21A    25.0166   4.4334   2.4213   C.ar      1 RES1   0.0000
    75 C22A    25.7923   3.5811   1.6780   C.ar      1 RES1   0.0000
    76 C23A    25.4098   3.2521   0.3887   C.ar      1 RES1   0.0000
    77 C24A    24.2515   3.7902  -0.1421   C.ar      1 RES1   0.0000
    78 H1A     18.7411   1.6650   1.8717   H         1 RES1   0.0000
    79 H2A     17.2621  -0.0656   1.5459   H         1 RES1   0.0000
    80 H3A     16.4346  -0.4936  -0.6113   H         1 RES1   0.0000
    81 H4A     17.2021   0.8016  -2.4100   H         1 RES1   0.0000
    82 H5A     20.3667   3.7258  -3.8037   H         1 RES1   0.0000
    83 H6A     21.9922   4.6994  -4.9810   H         1 RES1   0.0000
    84 H7A     23.8562   6.0489  -5.2704   H         1 RES1   0.0000
    85 H8A     24.8731   7.0657  -3.4314   H         1 RES1   0.0000
    86 H9A     24.0104   6.7132  -1.3044   H         1 RES1   0.0000
    87 H10A    22.0345   8.0541  -1.0478   H         1 RES1   0.0000
    88 H11A    21.8249  10.1273  -0.0050   H         1 RES1   0.0000
    89 H12A    21.2240  10.2745   2.2314   H         1 RES1   0.0000
    90 H13A    20.9029   8.3275   3.4779   H         1 RES1   0.0000
    91 H14A    21.1416   6.2320   2.4679   H         1 RES1   0.0000
    92 H15A    23.3333   5.5838   2.4100   H         1 RES1   0.0000
    93 H16A    25.2742   4.6536   3.3106   H         1 RES1   0.0000
    94 H17A    26.5890   3.2174   2.0465   H         1 RES1   0.0000
    95 H18A    25.9409   2.6583  -0.1270   H         1 RES1   0.0000
    96 H19A    23.9945   3.5650  -1.0289   H         1 RES1   0.0000
    97 H20A    18.8401   2.5482  -3.0188   H         1 RES1   0.0000
    98 Cl1     26.0449   4.5879   7.8391   Cl        2 RES2   0.0000
    99 Cl2     20.4603   6.7764   5.8041   Cl        2 RES2   0.0000
   100 O1      24.6017   7.0187   8.7231   O.2       2 RES2   0.0000
   101 O2      22.1801   7.9440   7.9820   O.3       2 RES2  -1.0000
   102 O3      22.1279   4.5955   4.6980   O.2       2 RES2   0.0000
   103 O4      24.3321   3.4871   5.6754   O.3       2 RES2   0.0000
   104 C25     24.5542   5.2090   7.2376   C.2       2 RES2   0.0000
   105 C26     24.0277   6.4138   7.8426   C.2       2 RES2   0.0000
   106 C27     22.6447   6.9297   7.3760   C.2       2 RES2   0.0000
   107 C28     22.0229   6.2456   6.3546   C.2       2 RES2   0.0000
   108 C29     22.5860   5.1484   5.6980   C.2       2 RES2   0.0000
   109 C30     23.8905   4.5856   6.2439   C.2       2 RES2   0.0000
   110 H21     23.5231   3.0307   5.3081   H         2 RES2   0.0000
   111 O5       4.1803   9.3010   5.0968   O.3       3 RES3   0.0000
   112 C31      4.4936   9.0660   3.5823   C.3       3 RES3   0.0000
   113 C32      5.3727   8.0566   3.8741   C.3       3 RES3   0.0000
   114 C33      6.0522   8.0677   5.0062   C.3       3 RES3   0.0000
   115 C34      5.0915   8.7691   5.8288   C.3       3 RES3   0.0000
   116 H22      3.7081   8.7530   3.0691   H         3 RES3   0.0000
   117 H23      4.9250   9.8329   3.1484   H         3 RES3   0.0000
   118 H24      4.8463   7.2129   3.8641   H         3 RES3   0.0000
   119 H25      6.0104   8.0108   3.1333   H         3 RES3   0.0000
   120 H26      6.9040   8.5576   4.8905   H         3 RES3   0.0000
   121 H27      6.2336   7.1449   5.3131   H         3 RES3   0.0000
   122 H28      4.6894   8.1296   6.4590   H         3 RES3   0.0000
   123 H29      5.5669   9.4655   6.3357   H         3 RES3   0.0000
@<TRIPOS>BOND
     1     1     2    1
     2     2    17    1
     3     3     1    1
     4     4     5    1
     5     5     1    1
     6     6     3   ar
     7     7     6   ar
     8     8     7   ar
     9     9     8   ar
    10    10     3   ar
    11    11     5    2
    12    12    11    1
    13    13    12   ar
    14    14    13   ar
    15    15    14   ar
    16    16    15   ar
    17    17    12   ar
    18    18     2    1
    19    19    18   ar
    20    20    19   ar
    21    21    20   ar
    22    22    21   ar
    23    23    18   ar
    24    24     2    1
    25    25    24   ar
    26    26    25   ar
    27    27    26   ar
    28    28    27   ar
    29    29    24   ar
    30    30     6    1
    31    31     7    1
    32    32     8    1
    33    33     9    1
    34    34    11    1
    35    35    13    1
    36    36    14    1
    37    37    15    1
    38    38    16    1
    39    39    19    1
    40    40    20    1
    41    41    21    1
    42    42    22    1
    43    43    23    1
    44    44    25    1
    45    45    26    1
    46    46    27    1
    47    47    28    1
    48    48    29    1
    49    49     4    1
    50    50     1    1
    51    51     1    1
    52    52    53    1
    53    53     1    1
    54    54    51   ar
    55    55    54   ar
    56    56    55   ar
    57    57    56   ar
    58    58    51   ar
    59    59    53    2
    60    60    59    1
    61    61    60   ar
    62    62    61   ar
    63    63    62   ar
    64    64    63   ar
    65    65    50    1
    66    66    50    1
    67    67    66   ar
    68    68    67   ar
    69    69    68   ar
    70    70    69   ar
    71    71    66   ar
    72    72    50    1
    73    73    72   ar
    74    74    73   ar
    75    75    74   ar
    76    76    75   ar
    77    77    72   ar
    78    78    54    1
    79    79    55    1
    80    80    56    1
    81    81    57    1
    82    82    59    1
    83    83    61    1
    84    84    62    1
    85    85    63    1
    86    86    64    1
    87    87    67    1
    88    88    68    1
    89    89    69    1
    90    90    70    1
    91    91    71    1
    92    92    73    1
    93    93    74    1
    94    94    75    1
    95    95    76    1
    96    96    77    1
    97    97    52    1
    98     4    10    1
    99     9    10   ar
   100    16    17   ar
   101    22    23   ar
   102    28    29   ar
   103    52    58    1
   104    57    58   ar
   105    60    65   ar
   106    64    65   ar
   107    70    71   ar
   108    76    77   ar
   109    98   104    1
   110    99   107    1
   111   100   105    2
   112   101   106    1
   113   102   108    2
   114   103   109    1
   115   104   105    1
   116   105   106    1
   117   106   107    2
   118   107   108    1
   119   108   109    1
   120   109   104    2
   121   110   103    1
   122   111   112    1
   123   112   113    1
   124   113   114    1
   125   114   115    1
   126   115   111    1
   127   116   112    1
   128   117   112    1
   129   118   113    1
   130   119   113    1
   131   120   114    1
   132   121   114    1
   133   122   115    1
   134   123   115    1
@<TRIPOS>SUBSTRUCTURE
     1 RES1        1 GROUP             0 ****  ****    0  
     2 RES2       98 GROUP             0 ****  ****    0  
     3 RES3      111 GROUP             0 ****  ****    0  
@<TRIPOS>CRYSIN
   20.1930   12.3700   13.8890   90.0000  115.0907   90.0000     5     1
