@<TRIPOS>MOLECULE
YACNAT
   100   108     4     0     0
SMALL
USER_CHARGES
****
Generated from the CSD

@<TRIPOS>ATOM
     1 Fe1      8.7464   4.6246   3.2648   Fe        1 RES1   2.0000
     2 P1      10.9521   4.4644   2.8516   P.3       1 RES1   0.0000
     3 P2       8.0495   3.9588   1.2318   P.3       1 RES1   0.0000
     4 N1       6.8361   4.6924   3.8224   N.ar      1 RES1   0.0000
     5 N2       7.3220   2.5043   4.4874   N.2       1 RES1  -1.0000
     6 N3       8.5847   2.8492   4.0274   N.2       1 RES1   0.0000
     7 N4       9.1949   5.3505   5.0505   N.ar      1 RES1   0.0000
     8 N5       9.1337   7.3666   3.8662   N.2       1 RES1  -1.0000
     9 N6       8.7492   6.5169   2.8334   N.2       1 RES1   0.0000
    10 C1       5.9451   5.7061   3.7578   C.ar      1 RES1   0.0000
    11 C2       4.6438   5.5965   4.2028   C.ar      1 RES1   0.0000
    12 C3       4.2307   4.3770   4.7564   C.ar      1 RES1   0.0000
    13 C4       5.1152   3.3378   4.8375   C.ar      1 RES1   0.0000
    14 C5       6.4448   3.5095   4.3692   C.ar      1 RES1   0.0000
    15 C6       9.4689   1.9197   4.3099   C.2       1 RES1   0.0000
    16 C7      10.9030   1.9190   4.0971   C.ar      1 RES1   0.0000
    17 C8      11.5567   0.7533   4.5597   C.ar      1 RES1   0.0000
    18 C9      12.9314   0.6401   4.5343   C.ar      1 RES1   0.0000
    19 C10     13.7118   1.6915   4.0596   C.ar      1 RES1   0.0000
    20 C11     13.0865   2.8239   3.5655   C.ar      1 RES1   0.0000
    21 C12     11.6904   2.9548   3.5502   C.ar      1 RES1   0.0000
    22 C13     12.0206   5.7394   3.6557   C.ar      1 RES1   0.0000
    23 C14     12.3463   5.5850   5.0022   C.ar      1 RES1   0.0000
    24 C15     13.0940   6.5447   5.6674   C.ar      1 RES1   0.0000
    25 C16     13.5300   7.6674   5.0030   C.ar      1 RES1   0.0000
    26 C17     13.2379   7.8306   3.6680   C.ar      1 RES1   0.0000
    27 C18     12.4805   6.8732   2.9896   C.ar      1 RES1   0.0000
    28 C19     11.5652   4.5023   1.1191   C.ar      1 RES1   0.0000
    29 C20     12.3883   3.5135   0.5736   C.ar      1 RES1   0.0000
    30 C21     12.8558   3.6324  -0.7325   C.ar      1 RES1   0.0000
    31 C22     12.5061   4.7227  -1.5048   C.ar      1 RES1   0.0000
    32 C23     11.6637   5.6933  -0.9884   C.ar      1 RES1   0.0000
    33 C24     11.1961   5.5846   0.3178   C.ar      1 RES1   0.0000
    34 C25      9.3544   4.7027   6.2307   C.ar      1 RES1   0.0000
    35 C26      9.7052   5.3461   7.3945   C.ar      1 RES1   0.0000
    36 C27      9.9211   6.7317   7.3507   C.ar      1 RES1   0.0000
    37 C28      9.7470   7.4117   6.1821   C.ar      1 RES1   0.0000
    38 C29      9.3487   6.7066   5.0137   C.ar      1 RES1   0.0000
    39 C30      8.3892   7.1793   1.7682   C.2       1 RES1   0.0000
    40 C31      7.8937   6.6838   0.4941   C.ar      1 RES1   0.0000
    41 C32      7.5541   7.7038  -0.4161   C.ar      1 RES1   0.0000
    42 C33      6.9865   7.4202  -1.6429   C.ar      1 RES1   0.0000
    43 C34      6.7466   6.0984  -2.0074   C.ar      1 RES1   0.0000
    44 C35      7.0905   5.0798  -1.1339   C.ar      1 RES1   0.0000
    45 C36      7.6867   5.3404   0.1038   C.ar      1 RES1   0.0000
    46 C37      9.0687   2.7658   0.2630   C.ar      1 RES1   0.0000
    47 C38      9.4586   2.9637  -1.0681   C.ar      1 RES1   0.0000
    48 C39     10.2067   1.9921  -1.7348   C.ar      1 RES1   0.0000
    49 C40     10.5841   0.8281  -1.0953   C.ar      1 RES1   0.0000
    50 C41     10.2257   0.6319   0.2330   C.ar      1 RES1   0.0000
    51 C42      9.4807   1.5938   0.9055   C.ar      1 RES1   0.0000
    52 C43      6.4053   3.1119   1.2340   C.ar      1 RES1   0.0000
    53 C44      6.2676   1.7285   1.3397   C.ar      1 RES1   0.0000
    54 C45      4.9974   1.1499   1.3987   C.ar      1 RES1   0.0000
    55 C46      3.8660   1.9406   1.3622   C.ar      1 RES1   0.0000
    56 C47      3.9905   3.3173   1.2675   C.ar      1 RES1   0.0000
    57 C48      5.2475   3.9017   1.1981   C.ar      1 RES1   0.0000
    58 H1       6.2284   6.5336   3.3890   H         1 RES1   0.0000
    59 H2       4.0430   6.3299   4.1359   H         1 RES1   0.0000
    60 H3       3.3410   4.2739   5.0728   H         1 RES1   0.0000
    61 H4       4.8417   2.5052   5.2047   H         1 RES1   0.0000
    62 H5       9.1180   1.1333   4.7120   H         1 RES1   0.0000
    63 H6      11.0383   0.0313   4.8963   H         1 RES1   0.0000
    64 H7      13.3474  -0.1567   4.8420   H         1 RES1   0.0000
    65 H8      14.6600   1.6330   4.0738   H         1 RES1   0.0000
    66 H9      13.6201   3.5340   3.2260   H         1 RES1   0.0000
    67 H10     12.0517   4.8118   5.4705   H         1 RES1   0.0000
    68 H11     13.3064   6.4257   6.5859   H         1 RES1   0.0000
    69 H12     14.0314   8.3285   5.4647   H         1 RES1   0.0000
    70 H13     13.5531   8.5983   3.2047   H         1 RES1   0.0000
    71 H14     12.2773   6.9949   2.0699   H         1 RES1   0.0000
    72 H15     12.6305   2.7576   1.0960   H         1 RES1   0.0000
    73 H16     13.4194   2.9595  -1.0960   H         1 RES1   0.0000
    74 H17     12.8427   4.8066  -2.3900   H         1 RES1   0.0000
    75 H18     11.4056   6.4326  -1.5248   H         1 RES1   0.0000
    76 H19     10.6191   6.2533   0.6673   H         1 RES1   0.0000
    77 H20      9.2176   3.7621   6.2542   H         1 RES1   0.0000
    78 H21      9.7994   4.8641   8.2077   H         1 RES1   0.0000
    79 H22     10.1886   7.1969   8.1359   H         1 RES1   0.0000
    80 H23      9.8911   8.3511   6.1495   H         1 RES1   0.0000
    81 H24      8.4621   8.1248   1.8351   H         1 RES1   0.0000
    82 H25      7.7191   8.6088  -0.1804   H         1 RES1   0.0000
    83 H26      6.7588   8.1265  -2.2367   H         1 RES1   0.0000
    84 H27      6.3507   5.8964  -2.8478   H         1 RES1   0.0000
    85 H28      6.9168   4.1799  -1.3831   H         1 RES1   0.0000
    86 H29      9.2124   3.7638  -1.5189   H         1 RES1   0.0000
    87 H30     10.4597   2.1326  -2.6402   H         1 RES1   0.0000
    88 H31     11.0844   0.1671  -1.5597   H         1 RES1   0.0000
    89 H32     10.4908  -0.1619   0.6828   H         1 RES1   0.0000
    90 H33      9.2479   1.4519   1.8157   H         1 RES1   0.0000
    91 H34      7.0403   1.1768   1.3715   H         1 RES1   0.0000
    92 H35      4.9123   0.2054   1.4646   H         1 RES1   0.0000
    93 H36      3.0045   1.5424   1.4025   H         1 RES1   0.0000
    94 H37      3.2137   3.8631   1.2493   H         1 RES1   0.0000
    95 H38      5.3244   4.8467   1.1251   H         1 RES1   0.0000
    96 O1       7.3683   0.9761   6.8795   O.3       2 RES2   0.0000
    97 H39      7.3237   1.4101   6.2077   H         2 RES2   0.0000
    98 H40      7.7375   0.2089   6.5219   H         2 RES2   0.0000
    99 O2      10.7118   9.0736   0.1824   O.3       3 RES3   0.0000
   100 O3       8.8844  10.7831   0.6693   O.3       4 RES4   0.0000
@<TRIPOS>BOND
     1     1     2    1
     2     2    21    1
     3     3     1    1
     4     4     1    1
     5     5     6    1
     6     6     1    1
     7     7     1    1
     8     8     9    1
     9     9     1    1
    10    10     4   ar
    11    11    10   ar
    12    12    11   ar
    13    13    12   ar
    14    14     4   ar
    15    15     6    2
    16    16    15    1
    17    17    16   ar
    18    18    17   ar
    19    19    18   ar
    20    20    19   ar
    21    21    16   ar
    22    22     2    1
    23    23    22   ar
    24    24    23   ar
    25    25    24   ar
    26    26    25   ar
    27    27    22   ar
    28    28     2    1
    29    29    28   ar
    30    30    29   ar
    31    31    30   ar
    32    32    31   ar
    33    33    28   ar
    34    34     7   ar
    35    35    34   ar
    36    36    35   ar
    37    37    36   ar
    38    38     7   ar
    39    39     9    2
    40    40    39    1
    41    41    40   ar
    42    42    41   ar
    43    43    42   ar
    44    44    43   ar
    45    45     3    1
    46    46     3    1
    47    47    46   ar
    48    48    47   ar
    49    49    48   ar
    50    50    49   ar
    51    51    46   ar
    52    52     3    1
    53    53    52   ar
    54    54    53   ar
    55    55    54   ar
    56    56    55   ar
    57    57    52   ar
    58    58    10    1
    59    59    11    1
    60    60    12    1
    61    61    13    1
    62    62    15    1
    63    63    17    1
    64    64    18    1
    65    65    19    1
    66    66    20    1
    67    67    23    1
    68    68    24    1
    69    69    25    1
    70    70    26    1
    71    71    27    1
    72    72    29    1
    73    73    30    1
    74    74    31    1
    75    75    32    1
    76    76    33    1
    77    77    34    1
    78    78    35    1
    79    79    36    1
    80    80    37    1
    81    81    39    1
    82    82    41    1
    83    83    42    1
    84    84    43    1
    85    85    44    1
    86    86    47    1
    87    87    48    1
    88    88    49    1
    89    89    50    1
    90    90    51    1
    91    91    53    1
    92    92    54    1
    93    93    55    1
    94    94    56    1
    95    95    57    1
    96     5    14    1
    97     8    38    1
    98    13    14   ar
    99    20    21   ar
   100    26    27   ar
   101    32    33   ar
   102    37    38   ar
   103    40    45   ar
   104    44    45   ar
   105    50    51   ar
   106    56    57   ar
   107    96    97    1
   108    98    96    1
@<TRIPOS>SUBSTRUCTURE
     1 RES1        1 GROUP             0 ****  ****    0  
     2 RES2       96 GROUP             0 ****  ****    0  
     3 RES3       99 GROUP             0 ****  ****    0  
     4 RES4      100 GROUP             0 ****  ****    0  
@<TRIPOS>CRYSIN
   12.0629   17.4090   19.4060   90.0000   91.5441   90.0000   231     1
