@<TRIPOS>MOLECULE
YAKPOT
   109   118     1     0     0
SMALL
NO_CHARGES
****
Generated from the CSD

@<TRIPOS>ATOM
     1 Fe1      5.2367   6.8181   4.4802   Fe        1 RES1   0.0000
     2 O1       3.8570   7.8883   3.6287   O.3       1 RES1   0.0000
     3 O2       3.7742   5.7836   5.2410   O.3       1 RES1   0.0000
     4 N1       5.3299   7.9651   6.0346   N.2       1 RES1   0.0000
     5 N2       6.5270   5.7382   5.4824   N.ar      1 RES1   0.0000
     6 N3       5.3463   5.7049   2.9075   N.2       1 RES1   0.0000
     7 N4       6.6584   7.8370   3.5713   N.ar      1 RES1   0.0000
     8 C1       7.0167   4.5317   5.2098   C.ar      1 RES1   0.0000
     9 H1       6.7166   4.0954   4.4452   H         1 RES1   0.0000
    10 C2       7.9664   3.8826   6.0205   C.ar      1 RES1   0.0000
    11 H2       8.2649   3.0302   5.7985   H         1 RES1   0.0000
    12 C3       8.4475   4.5085   7.1341   C.ar      1 RES1   0.0000
    13 H3       9.0997   4.1006   7.6569   H         1 RES1   0.0000
    14 C4       7.9431   5.7877   7.4867   C.ar      1 RES1   0.0000
    15 C5       8.3509   6.5223   8.6284   C.ar      1 RES1   0.0000
    16 H4       9.0064   6.1807   9.1928   H         1 RES1   0.0000
    17 C6       7.7760   7.7384   8.8991   C.ar      1 RES1   0.0000
    18 H5       8.0571   8.2174   9.6451   H         1 RES1   0.0000
    19 C7       6.7694   8.2790   8.0734   C.ar      1 RES1   0.0000
    20 H6       6.3911   9.1024   8.2826   H         1 RES1   0.0000
    21 C8       6.3429   7.5902   6.9548   C.ar      1 RES1   0.0000
    22 C9       6.9580   6.3531   6.6413   C.ar      1 RES1   0.0000
    23 C10      4.6322   9.0507   6.2215   C.2       1 RES1   0.0000
    24 H7       4.8214   9.5494   6.9833   H         1 RES1   0.0000
    25 C11      3.6050   9.5417   5.3630   C.ar      1 RES1   0.0000
    26 C12      2.9674  10.7396   5.7758   C.ar      1 RES1   0.0000
    27 H8       3.2573  11.1511   6.5579   H         1 RES1   0.0000
    28 C13      1.9423  11.3171   5.0719   C.ar      1 RES1   0.0000
    29 C14      1.5164  10.6235   3.9073   C.ar      1 RES1   0.0000
    30 H9       0.7999  10.9782   3.4321   H         1 RES1   0.0000
    31 C15      2.0889   9.4606   3.4301   C.ar      1 RES1   0.0000
    32 C16      3.2268   8.8990   4.1301   C.ar      1 RES1   0.0000
    33 C17      1.3618  12.6763   5.4983   C.3       1 RES1   0.0000
    34 C18      2.4179  13.7581   5.2303   C.3       1 RES1   0.0000
    35 H10      3.2208  13.5482   5.7129   H         1 RES1   0.0000
    36 H11      2.0840  14.6102   5.5199   H         1 RES1   0.0000
    37 H12      2.6095  13.7923   4.2901   H         1 RES1   0.0000
    38 C19      0.0867  13.0331   4.7355   C.3       1 RES1   0.0000
    39 H13      0.2911  13.1418   3.8039   H         1 RES1   0.0000
    40 H14     -0.2743  13.8526   5.0817   H         1 RES1   0.0000
    41 H15     -0.5574  12.3294   4.8421   H         1 RES1   0.0000
    42 C20      1.0393  12.6803   7.0016   C.3       1 RES1   0.0000
    43 H16      0.4045  11.9866   7.1946   H         1 RES1   0.0000
    44 H17      0.6682  13.5310   7.2470   H         1 RES1   0.0000
    45 H18      1.8440  12.5259   7.5019   H         1 RES1   0.0000
    46 C21      1.5445   8.7448   2.1765   C.3       1 RES1   0.0000
    47 C22      1.0791   7.3276   2.5621   C.3       1 RES1   0.0000
    48 H19      1.8212   6.8324   2.9168   H         1 RES1   0.0000
    49 H20      0.7383   6.8799   1.7842   H         1 RES1   0.0000
    50 H21      0.3878   7.3871   3.2256   H         1 RES1   0.0000
    51 C23      2.6280   8.6566   1.0836   C.3       1 RES1   0.0000
    52 H22      3.3660   8.1341   1.4062   H         1 RES1   0.0000
    53 H23      2.9331   9.5397   0.8635   H         1 RES1   0.0000
    54 H24      2.2596   8.2408   0.3007   H         1 RES1   0.0000
    55 C24      0.3374   9.4862   1.5757   C.3       1 RES1   0.0000
    56 H25      0.0085   8.9995   0.8164   H         1 RES1   0.0000
    57 H26      0.6068  10.3655   1.2999   H         1 RES1   0.0000
    58 H27     -0.3560   9.5564   2.2358   H         1 RES1   0.0000
    59 C25      7.2543   8.9750   3.9184   C.ar      1 RES1   0.0000
    60 H28      6.9585   9.4098   4.6855   H         1 RES1   0.0000
    61 C26      8.3040   9.5549   3.1907   C.ar      1 RES1   0.0000
    62 H29      8.6795  10.3580   3.4715   H         1 RES1   0.0000
    63 C27      8.7711   8.9350   2.0693   C.ar      1 RES1   0.0000
    64 H30      9.4750   9.3047   1.5870   H         1 RES1   0.0000
    65 C28      8.1732   7.7221   1.6466   C.ar      1 RES1   0.0000
    66 C29      8.5927   6.9777   0.5172   C.ar      1 RES1   0.0000
    67 H31      9.2872   7.2928  -0.0148   H         1 RES1   0.0000
    68 C30      7.9779   5.7969   0.2079   C.ar      1 RES1   0.0000
    69 H32      8.2780   5.3053  -0.5222   H         1 RES1   0.0000
    70 C31      6.8949   5.3062   0.9746   C.ar      1 RES1   0.0000
    71 H33      6.4977   4.4954   0.7518   H         1 RES1   0.0000
    72 C32      6.4278   6.0293   2.0524   C.ar      1 RES1   0.0000
    73 C33      7.1014   7.2258   2.4203   C.ar      1 RES1   0.0000
    74 C34      4.5234   4.7450   2.5924   C.2       1 RES1   0.0000
    75 H34      4.6509   4.3328   1.7685   H         1 RES1   0.0000
    76 C35      3.4475   4.2696   3.3928   C.ar      1 RES1   0.0000
    77 C36      2.7081   3.1872   2.8574   C.ar      1 RES1   0.0000
    78 H35      2.9454   2.8573   2.0209   H         1 RES1   0.0000
    79 C37      1.6584   2.6047   3.5171   C.ar      1 RES1   0.0000
    80 C38      1.3219   3.1640   4.7748   C.ar      1 RES1   0.0000
    81 H36      0.6042   2.7930   5.2354   H         1 RES1   0.0000
    82 C39      1.9882   4.2254   5.3655   C.ar      1 RES1   0.0000
    83 C40      3.1177   4.8153   4.6845   C.ar      1 RES1   0.0000
    84 C41      0.9209   1.3994   2.9011   C.3       1 RES1   0.0000
    85 C42      0.2281   1.8312   1.6006   C.3       1 RES1   0.0000
    86 H37     -0.3726   2.5574   1.7838   H         1 RES1   0.0000
    87 H38     -0.2654   1.0910   1.2399   H         1 RES1   0.0000
    88 H39      0.8890   2.1153   0.9650   H         1 RES1   0.0000
    89 C43      1.9341   0.2971   2.5844   C.3       1 RES1   0.0000
    90 H40      2.5616   0.6170   1.9322   H         1 RES1   0.0000
    91 H41      1.4738  -0.4701   2.2363   H         1 RES1   0.0000
    92 H42      2.4023   0.0528   3.3861   H         1 RES1   0.0000
    93 C44     -0.1279   0.8251   3.8449   C.3       1 RES1   0.0000
    94 H43      0.2893   0.5748   4.6725   H         1 RES1   0.0000
    95 H44     -0.5308   0.0519   3.4430   H         1 RES1   0.0000
    96 H45     -0.8028   1.4864   4.0138   H         1 RES1   0.0000
    97 C45      1.5281   4.8109   6.7100   C.3       1 RES1   0.0000
    98 C46      2.6852   4.7995   7.7355   C.3       1 RES1   0.0000
    99 H46      2.9771   3.8962   7.8785   H         1 RES1   0.0000
   100 H47      2.3806   5.1726   8.5658   H         1 RES1   0.0000
   101 H48      3.4164   5.3225   7.3987   H         1 RES1   0.0000
   102 C47      1.0305   6.2523   6.4806   C.3       1 RES1   0.0000
   103 H49      1.7445   6.7840   6.1215   H         1 RES1   0.0000
   104 H50      0.7409   6.6275   7.3155   H         1 RES1   0.0000
   105 H51      0.2962   6.2428   5.8623   H         1 RES1   0.0000
   106 C48      0.3732   4.0116   7.3326   C.3       1 RES1   0.0000
   107 H52     -0.3812   4.0242   6.7390   H         1 RES1   0.0000
   108 H53      0.1265   4.4070   8.1720   H         1 RES1   0.0000
   109 H54      0.6526   3.1045   7.4760   H         1 RES1   0.0000
@<TRIPOS>BOND
     1     1     2    1
     2     2    32    1
     3     3     1    1
     4     4     1    1
     5     5     1    1
     6     6     1    1
     7     7     1    1
     8     8     5   ar
     9     9     8    1
    10    10     8   ar
    11    11    10    1
    12    12    10   ar
    13    13    12    1
    14    14    12   ar
    15    15    14   ar
    16    16    15    1
    17    17    15   ar
    18    18    17    1
    19    19    17   ar
    20    20    19    1
    21    21     4    1
    22    22     5   ar
    23    23     4    2
    24    24    23    1
    25    25    23    1
    26    26    25   ar
    27    27    26    1
    28    28    26   ar
    29    29    28   ar
    30    30    29    1
    31    31    29   ar
    32    32    25   ar
    33    33    28    1
    34    34    33    1
    35    35    34    1
    36    36    34    1
    37    37    34    1
    38    38    33    1
    39    39    38    1
    40    40    38    1
    41    41    38    1
    42    42    33    1
    43    43    42    1
    44    44    42    1
    45    45    42    1
    46    46    31    1
    47    47    46    1
    48    48    47    1
    49    49    47    1
    50    50    47    1
    51    51    46    1
    52    52    51    1
    53    53    51    1
    54    54    51    1
    55    55    46    1
    56    56    55    1
    57    57    55    1
    58    58    55    1
    59    59     7   ar
    60    60    59    1
    61    61    59   ar
    62    62    61    1
    63    63    61   ar
    64    64    63    1
    65    65    63   ar
    66    66    65   ar
    67    67    66    1
    68    68    66   ar
    69    69    68    1
    70    70    68   ar
    71    71    70    1
    72    72     6    1
    73    73     7   ar
    74    74     6    2
    75    75    74    1
    76    76    74    1
    77    77    76   ar
    78    78    77    1
    79    79    77   ar
    80    80    79   ar
    81    81    80    1
    82    82    80   ar
    83    83     3    1
    84    84    79    1
    85    85    84    1
    86    86    85    1
    87    87    85    1
    88    88    85    1
    89    89    84    1
    90    90    89    1
    91    91    89    1
    92    92    89    1
    93    93    84    1
    94    94    93    1
    95    95    93    1
    96    96    93    1
    97    97    82    1
    98    98    97    1
    99    99    98    1
   100   100    98    1
   101   101    98    1
   102   102    97    1
   103   103   102    1
   104   104   102    1
   105   105   102    1
   106   106    97    1
   107   107   106    1
   108   108   106    1
   109   109   106    1
   110    14    22   ar
   111    19    21   ar
   112    21    22   ar
   113    31    32   ar
   114    65    73   ar
   115    70    72   ar
   116    72    73   ar
   117    76    83   ar
   118    82    83   ar
@<TRIPOS>SUBSTRUCTURE
     1 RES1        1 GROUP             0 ****  ****    0  
@<TRIPOS>CRYSIN
   14.5228   16.1311   18.2405   90.0000  102.1140   90.0000    14     1
