@<TRIPOS>MOLECULE
YAXJUD
   101   104     1     0     0
SMALL
NO_CHARGES
****
Generated from the CSD

@<TRIPOS>ATOM
     1 C1       2.3342   1.5810   6.1611   C.1       1 RES1   0.0000
     2 C2       2.9766   2.4870   6.5937   C.1       1 RES1   0.0000
     3 C3       3.9182   3.6586   6.9315   C.3       1 RES1   0.0000
     4 C4       5.2218   3.3218   6.3077   C.1       1 RES1   0.0000
     5 C5       1.6962  -2.7803   7.3908   C.3       1 RES1   0.0000
     6 H1       1.0091  -3.1012   6.7849   H         1 RES1   0.0000
     7 H2       2.5507  -3.0008   6.9851   H         1 RES1   0.0000
     8 C6       3.0334  -0.5508   8.4794   C.3       1 RES1   0.0000
     9 H3       3.7236  -1.2006   8.2774   H         1 RES1   0.0000
    10 H4       3.3653   0.3130   8.1880   H         1 RES1   0.0000
    11 C7       0.1447  -0.7159   8.4901   C.3       1 RES1   0.0000
    12 H5      -0.5550  -1.3393   8.2434   H         1 RES1   0.0000
    13 H6       0.3960  -0.8942   9.4106   H         1 RES1   0.0000
    14 C8       2.9045  -0.4966   9.9182   C.3       1 RES1   0.0000
    15 H7       3.7560  -0.2774  10.3061   H         1 RES1   0.0000
    16 H8       2.6149  -1.3512  10.2453   H         1 RES1   0.0000
    17 H9       2.2617   0.1730  10.1559   H         1 RES1   0.0000
    18 C9       1.5863  -3.5833   8.6349   C.3       1 RES1   0.0000
    19 H10      1.6820  -4.5158   8.4239   H         1 RES1   0.0000
    20 H11      0.7290  -3.4327   9.0388   H         1 RES1   0.0000
    21 H12      2.2782  -3.3218   9.2461   H         1 RES1   0.0000
    22 C10      4.6404  -0.4213   5.2495   C.3       1 RES1   0.0000
    23 H13      4.6256   0.4187   5.7357   H         1 RES1   0.0000
    24 H14      4.7170  -1.1240   5.9127   H         1 RES1   0.0000
    25 C11      5.8924  -0.4372   4.4631   C.3       1 RES1   0.0000
    26 H15      6.6419  -0.3276   5.0511   H         1 RES1   0.0000
    27 H16      5.8784   0.2813   3.8250   H         1 RES1   0.0000
    28 H17      5.9677  -1.2746   3.9984   H         1 RES1   0.0000
    29 C12      3.2464   0.3196   2.9206   C.3       1 RES1   0.0000
    30 H18      3.7795   1.1121   3.0886   H         1 RES1   0.0000
    31 H19      3.7111  -0.2311   2.2718   H         1 RES1   0.0000
    32 C13      3.0932  -2.3748   4.0306   C.3       1 RES1   0.0000
    33 H20      3.7196  -2.7499   4.6686   H         1 RES1   0.0000
    34 H21      2.2240  -2.7354   4.2718   H         1 RES1   0.0000
    35 C14      3.3575  -2.9084   2.9921   C.3       1 RES1   0.0000
    36 H22      3.3611  -3.8607   3.1118   H         1 RES1   0.0000
    37 H23      4.2344  -2.6244   2.7043   H         1 RES1   0.0000
    38 H24      2.7132  -2.6680   2.3290   H         1 RES1   0.0000
    39 C15     -0.3742   0.7093   8.3721   C.3       1 RES1   0.0000
    40 H25      0.2225   1.3155   8.8368   H         1 RES1   0.0000
    41 H26     -1.2531   0.7727   8.7814   H         1 RES1   0.0000
    42 C16     -2.2112   0.7502   6.1182   C.3       1 RES1   0.0000
    43 H27     -2.3669   1.1398   5.2424   H         1 RES1   0.0000
    44 H28     -2.2694  -0.2140   6.0181   H         1 RES1   0.0000
    45 C17     -0.5475   3.0405   6.6616   C.3       1 RES1   0.0000
    46 H29      0.3671   3.3601   6.6062   H         1 RES1   0.0000
    47 H30     -0.9906   3.3205   5.8465   H         1 RES1   0.0000
    48 C18     -3.3286   1.1940   7.0334   C.3       1 RES1   0.0000
    49 H31     -4.1732   0.9417   6.6544   H         1 RES1   0.0000
    50 H32     -3.2970   2.1489   7.1388   H         1 RES1   0.0000
    51 H33     -3.2246   0.7753   7.8913   H         1 RES1   0.0000
    52 C19     -1.1861   3.7576   7.7680   C.3       1 RES1   0.0000
    53 H34     -1.1276   4.7020   7.6125   H         1 RES1   0.0000
    54 H35     -0.7421   3.5384   8.5902   H         1 RES1   0.0000
    55 H36     -2.1095   3.4988   7.8252   H         1 RES1   0.0000
    56 C20      1.1678   3.1712   3.6659   C.3       1 RES1   0.0000
    57 H37      0.3616   3.5992   3.9984   H         1 RES1   0.0000
    58 H38      1.8526   3.3165   4.3362   H         1 RES1   0.0000
    59 C21      1.9961   0.6762   2.4362   C.3       1 RES1   0.0000
    60 H39      1.5898  -0.1083   2.0340   H         1 RES1   0.0000
    61 H40      2.1197   1.3300   1.7302   H         1 RES1   0.0000
    62 C22      1.5562   3.8844   2.5506   C.3       1 RES1   0.0000
    63 H41      1.6617   4.8090   2.7830   H         1 RES1   0.0000
    64 H42      0.8872   3.7999   1.8678   H         1 RES1   0.0000
    65 H43      2.3914   3.5384   2.2253   H         1 RES1   0.0000
    66 C23     -0.8871   1.2561   2.8402   C.3       1 RES1   0.0000
    67 H44     -1.2329   0.3632   2.9939   H         1 RES1   0.0000
    68 H45     -1.4727   1.8755   3.3013   H         1 RES1   0.0000
    69 C24     -0.9796   1.5348   1.3906   C.3       1 RES1   0.0000
    70 H46     -1.8968   1.4700   1.1118   H         1 RES1   0.0000
    71 H47     -0.4523   0.8955   0.9062   H         1 RES1   0.0000
    72 H48     -0.6540   2.4197   1.2136   H         1 RES1   0.0000
    73 C25      3.3163   4.9067   6.3470   C.ar      1 RES1   0.0000
    74 C26      2.2613   5.4667   6.8207   C.ar      1 RES1   0.0000
    75 H49      1.9127   5.0784   7.5892   H         1 RES1   0.0000
    76 C27      1.5871   6.5511   6.3506   C.ar      1 RES1   0.0000
    77 H50      0.8147   6.8707   6.7581   H         1 RES1   0.0000
    78 C28      2.1212   7.1349   5.2495   C.ar      1 RES1   0.0000
    79 H51      1.7014   7.8812   4.8867   H         1 RES1   0.0000
    80 C29      3.2644   6.6515   4.6544   C.ar      1 RES1   0.0000
    81 H52      3.6383   7.0517   3.9036   H         1 RES1   0.0000
    82 C30      3.8514   5.4760   5.2817   C.ar      1 RES1   0.0000
    83 H53      4.6277   5.1128   4.9207   H         1 RES1   0.0000
    84 C31      4.1178   3.8686   8.4114   C.ar      1 RES1   0.0000
    85 C32      5.1189   4.7033   8.9369   C.ar      1 RES1   0.0000
    86 H54      5.6591   5.1471   8.3239   H         1 RES1   0.0000
    87 C33      5.3657   4.9133  10.2024   C.ar      1 RES1   0.0000
    88 H55      6.0807   5.4456  10.4723   H         1 RES1   0.0000
    89 C34      4.5390   4.3256  11.1193   C.ar      1 RES1   0.0000
    90 H56      4.6413   4.5131  12.0255   H         1 RES1   0.0000
    91 C35      3.5511   3.4578  10.7046   C.ar      1 RES1   0.0000
    92 H57      3.0306   3.0180  11.3374   H         1 RES1   0.0000
    93 C36      3.3310   3.2346   9.3856   C.ar      1 RES1   0.0000
    94 H58      2.6510   2.6561   9.1246   H         1 RES1   0.0000
    95 N1       6.1930   3.0391   5.8322   N.1       1 RES1   0.0000
    96 P1       1.5744  -0.9589   7.4176   P.3       1 RES1   0.0000
    97 P2       2.9935  -0.6089   4.4649   P.3       1 RES1   0.0000
    98 P3      -0.4787   1.1715   6.6348   P.3       1 RES1   0.0000
    99 P4       0.8274   1.3631   3.6498   P.3       1 RES1   0.0000
   100 Fe1      1.2180   0.2097   5.5321   Fe        1 RES1   0.0000
   101 Br1     -0.2591  -1.6617   4.6946   Br        1 RES1   0.0000
@<TRIPOS>BOND
     1     1     2    3
     2     2     3    1
     3     3     4    1
     4     4    95    3
     5     5     6    1
     6     7     5    1
     7     8     9    1
     8    10     8    1
     9    11    12    1
    10    13    11    1
    11    14     8    1
    12    15    14    1
    13    16    14    1
    14    17    14    1
    15    18     5    1
    16    19    18    1
    17    20    18    1
    18    21    18    1
    19    22    23    1
    20    24    22    1
    21    25    22    1
    22    26    25    1
    23    27    25    1
    24    28    25    1
    25    29    30    1
    26    31    29    1
    27    32    33    1
    28    34    32    1
    29    35    32    1
    30    36    35    1
    31    37    35    1
    32    38    35    1
    33    39    11    1
    34    40    39    1
    35    41    39    1
    36    42    43    1
    37    44    42    1
    38    45    46    1
    39    47    45    1
    40    48    42    1
    41    49    48    1
    42    50    48    1
    43    51    48    1
    44    52    45    1
    45    53    52    1
    46    54    52    1
    47    55    52    1
    48    56    57    1
    49    58    56    1
    50    59    29    1
    51    60    59    1
    52    61    59    1
    53    62    56    1
    54    63    62    1
    55    64    62    1
    56    65    62    1
    57    66    67    1
    58    68    66    1
    59    69    66    1
    60    70    69    1
    61    71    69    1
    62    72    69    1
    63    73     3    1
    64    74    73   ar
    65    75    74    1
    66    76    74   ar
    67    77    76    1
    68    78    76   ar
    69    79    78    1
    70    80    78   ar
    71    81    80    1
    72    82    73   ar
    73    83    82    1
    74    84     3    1
    75    85    84   ar
    76    86    85    1
    77    87    85   ar
    78    88    87    1
    79    89    87   ar
    80    90    89    1
    81    91    89   ar
    82    92    91    1
    83    93    84   ar
    84    94    93    1
    85    96     5    1
    86    97    22    1
    87    98    39    1
    88    99    56    1
    89   100     1    1
    90   101   100    1
    91     8    96    1
    92    11    96    1
    93    29    97    1
    94    32    97    1
    95    42    98    1
    96    45    98    1
    97    59    99    1
    98    66    99    1
    99    80    82   ar
   100    91    93   ar
   101    96   100    1
   102    97   100    1
   103    98   100    1
   104    99   100    1
@<TRIPOS>SUBSTRUCTURE
     1 RES1        1 GROUP             0 ****  ****    0  
@<TRIPOS>CRYSIN
   16.5520   13.2079   18.9008   90.0000  108.9740   90.0000    14     1
