@<TRIPOS>MOLECULE
YAXKAK
   170   176     3     0     0
SMALL
USER_CHARGES
****
Generated from the CSD

@<TRIPOS>ATOM
     1 C1       8.7502   8.3117   6.6736   C.1       1 RES1   0.0000
     2 C2       9.3847   7.7172   7.5080   C.1       1 RES1   0.0000
     3 C3      10.2331   7.0468   8.5387   C.3       1 RES1   0.0000
     4 C4      12.2283   5.5819   8.7765   C.3       1 RES1   0.0000
     5 H1      12.5337   6.1678   9.4718   H         1 RES1   0.0000
     6 H2      12.9828   5.2388   8.2941   H         1 RES1   0.0000
     7 H3      11.7374   4.8531   9.1659   H         1 RES1   0.0000
     8 C5      10.9106   5.4216   6.7845   C.3       1 RES1   0.0000
     9 H4      10.3428   5.9024   6.1760   H         1 RES1   0.0000
    10 H5      10.4231   4.6879   7.1666   H         1 RES1   0.0000
    11 H6      11.6752   5.0885   6.3130   H         1 RES1   0.0000
    12 C6       6.7391  11.1512   3.0903   C.1       1 RES1   0.0000
    13 C7       6.2719  12.0026   1.9989   C.3       1 RES1   0.0000
    14 H7       6.2505  12.9167   2.2915   H         1 RES1   0.0000
    15 H8       5.3897  11.7297   1.7346   H         1 RES1   0.0000
    16 H9       6.8680  11.9200   1.2507   H         1 RES1   0.0000
    17 C8       4.5368  10.1545   5.8743   C.3       1 RES1   0.0000
    18 H10      4.7947  10.9258   5.3453   H         1 RES1   0.0000
    19 H11      4.2213   9.4809   5.2540   H         1 RES1   0.0000
    20 C9       3.3673  10.5677   6.6969   C.3       1 RES1   0.0000
    21 H12      2.6683  10.8883   6.1213   H         1 RES1   0.0000
    22 H13      3.6308  11.2664   7.2990   H         1 RES1   0.0000
    23 H14      3.0472   9.8140   7.1985   H         1 RES1   0.0000
    24 C10      6.3658  10.7105   7.9937   C.3       1 RES1   0.0000
    25 H15      5.8919  11.5318   7.8011   H         1 RES1   0.0000
    26 H16      6.0186  10.3524   8.8281   H         1 RES1   0.0000
    27 C11     10.3767  11.3240   6.8868   C.3       1 RES1   0.0000
    28 H17     10.7534  10.4400   7.0159   H         1 RES1   0.0000
    29 H18     10.8031  11.7046   6.1030   H         1 RES1   0.0000
    30 C12     10.7805  12.1654   8.0704   C.3       1 RES1   0.0000
    31 H19     11.7363  12.1604   8.1571   H         1 RES1   0.0000
    32 H20     10.3869  11.8023   8.8692   H         1 RES1   0.0000
    33 H21     10.4751  13.0644   7.9426   H         1 RES1   0.0000
    34 C13      7.8329  11.0010   8.1484   C.3       1 RES1   0.0000
    35 H22      8.2559  10.2948   8.6592   H         1 RES1   0.0000
    36 H23      7.9528  11.8374   8.6273   H         1 RES1   0.0000
    37 C14      8.0466  12.7664   5.9291   C.3       1 RES1   0.0000
    38 H24      8.4584  12.9142   5.0623   H         1 RES1   0.0000
    39 H25      7.0909  12.7013   5.7743   H         1 RES1   0.0000
    40 C15      8.2627  13.9860   6.7138   C.3       1 RES1   0.0000
    41 H26      7.9200  14.7422   6.2308   H         1 RES1   0.0000
    42 H27      9.2026  14.1062   6.8699   H         1 RES1   0.0000
    43 H28      7.8069  13.9108   7.5546   H         1 RES1   0.0000
    44 C16      7.2775   5.8974   5.1294   C.3       1 RES1   0.0000
    45 H29      8.1530   5.9099   5.5461   H         1 RES1   0.0000
    46 H30      6.6215   5.8573   5.8428   H         1 RES1   0.0000
    47 C17      7.1678   4.6177   4.3255   C.3       1 RES1   0.0000
    48 H31      7.2933   3.8615   4.9071   H         1 RES1   0.0000
    49 H32      7.8408   4.6102   3.6426   H         1 RES1   0.0000
    50 H33      6.2991   4.5677   3.9211   H         1 RES1   0.0000
    51 C18      5.3354   7.2897   3.6312   C.3       1 RES1   0.0000
    52 H34      5.2540   6.4032   3.2455   H         1 RES1   0.0000
    53 H35      4.7303   7.3348   4.3867   H         1 RES1   0.0000
    54 C19      4.8750   8.2864   2.6074   C.3       1 RES1   0.0000
    55 H36      3.9668   8.0961   2.3599   H         1 RES1   0.0000
    56 H37      5.4361   8.2288   1.8304   H         1 RES1   0.0000
    57 H38      4.9271   9.1704   2.9762   H         1 RES1   0.0000
    58 C20      8.0421   7.2597   2.7438   C.3       1 RES1   0.0000
    59 H39      7.8702   6.3882   2.3554   H         1 RES1   0.0000
    60 H40      7.8193   7.9408   2.0906   H         1 RES1   0.0000
    61 C21     11.3913   8.8273   4.7564   C.3       1 RES1   0.0000
    62 H41     11.7533   9.7188   4.8705   H         1 RES1   0.0000
    63 H42     11.2997   8.4366   5.6420   H         1 RES1   0.0000
    64 C22     12.4104   7.9959   3.9740   C.3       1 RES1   0.0000
    65 H43     13.2452   7.9859   4.4506   H         1 RES1   0.0000
    66 H44     12.5416   8.3866   3.1040   H         1 RES1   0.0000
    67 H45     12.0858   7.0994   3.8754   H         1 RES1   0.0000
    68 C23     10.0227  10.0819   2.5864   C.3       1 RES1   0.0000
    69 H46     10.7805   9.7338   2.0906   H         1 RES1   0.0000
    70 H47      9.2490  10.0318   2.0039   H         1 RES1   0.0000
    71 C24     10.2896  11.5419   2.8922   C.3       1 RES1   0.0000
    72 H48     10.4389  12.0202   2.0724   H         1 RES1   0.0000
    73 H49     11.0667  11.6170   3.4509   H         1 RES1   0.0000
    74 H50      9.5318  11.9175   3.3459   H         1 RES1   0.0000
    75 C25      9.4967   7.3774   3.1597   C.3       1 RES1   0.0000
    76 H51     10.0702   7.3398   2.3782   H         1 RES1   0.0000
    77 H52      9.7354   6.6436   3.7476   H         1 RES1   0.0000
    78 C50      9.4085   6.0627   9.4028   C.ar      1 RES1   0.0000
    79 C51      9.7965   5.7547  10.7106   C.ar      1 RES1   0.0000
    80 H73     10.5294   6.1829  11.0922   H         1 RES1   0.0000
    81 C52      9.0940   4.8106  11.4437   C.ar      1 RES1   0.0000
    82 H74      9.3734   4.5927  12.3019   H         1 RES1   0.0000
    83 C53      8.0082   4.2020  10.9206   C.ar      1 RES1   0.0000
    84 H75      7.5241   3.5960  11.4346   H         1 RES1   0.0000
    85 C54      7.6089   4.4750   9.6251   C.ar      1 RES1   0.0000
    86 H76      6.8827   4.0293   9.2526   H         1 RES1   0.0000
    87 C55      8.3068   5.4191   8.8870   C.ar      1 RES1   0.0000
    88 H77      8.0252   5.6219   8.0247   H         1 RES1   0.0000
    89 C56     10.8224   8.1867   9.3841   C.ar      1 RES1   0.0000
    90 C57     10.0668   8.7973  10.3810   C.ar      1 RES1   0.0000
    91 H78      9.2004   8.5018  10.5445   H         1 RES1   0.0000
    92 C58     10.5803   9.8340  11.1283   C.ar      1 RES1   0.0000
    93 H79     10.0521  10.2372  11.7769   H         1 RES1   0.0000
    94 C59     11.8732  10.2797  10.9229   C.ar      1 RES1   0.0000
    95 H80     12.2328  10.9534  11.4528   H         1 RES1   0.0000
    96 C60     12.6095   9.7088   9.9223   C.ar      1 RES1   0.0000
    97 H81     13.4703  10.0193   9.7502   H         1 RES1   0.0000
    98 C61     12.0926   8.6771   9.1586   C.ar      1 RES1   0.0000
    99 H82     12.6106   8.3064   8.4812   H         1 RES1   0.0000
   100 Fe1      7.8656   9.3542   5.3125   Fe        1 RES1   1.0000
   101 P1       6.0668   9.4992   6.6412   P.3       1 RES1   0.0000
   102 P2       8.6027  11.1184   6.5038   P.3       1 RES1   0.0000
   103 P3       7.0556   7.4858   4.2611   P.3       1 RES1   0.0000
   104 P4       9.7226   8.9786   4.0288   P.3       1 RES1   0.0000
   105 N1      11.3540   6.3264   7.8577   N.3       1 RES1   0.0000
   106 N2       7.1146  10.4726   3.9202   N.1       1 RES1   0.0000
   107 C62      5.5594   7.9558   7.4724   C.3       1 RES1   0.0000
   108 H83      5.0368   7.4625   6.8197   H         1 RES1   0.0000
   109 H84      6.3737   7.4475   7.6094   H         1 RES1   0.0000
   110 C63      4.8456   7.8707   8.6775   C.3       1 RES1   0.0000
   111 H85      4.7438   6.9492   8.9286   H         1 RES1   0.0000
   112 H86      3.9792   8.2689   8.5679   H         1 RES1   0.0000
   113 H87      5.3252   8.3365   9.3668   H         1 RES1   0.0000
   114 C26      3.1999   1.1645   2.2577   C.ar      2 RES2   0.0000
   115 C27      3.6139   0.7337   0.9787   C.ar      2 RES2   0.0000
   116 H53      3.8423   1.3648   0.3378   H         2 RES2   0.0000
   117 C28      3.3582  -1.5852   1.5620   C.ar      2 RES2   0.0000
   118 H54      3.3944  -2.4842   1.3329   H         2 RES2   0.0000
   119 C29      3.6863  -0.6110   0.6623   C.ar      2 RES2   0.0000
   120 H55      3.9679  -0.8589  -0.1872   H         2 RES2   0.0000
   121 C30      2.9714  -1.1895   2.8224   C.ar      2 RES2   0.0000
   122 H56      2.7746  -1.8281   3.4692   H         2 RES2   0.0000
   123 C31      2.8764   0.1402   3.1264   C.ar      2 RES2   0.0000
   124 H57      2.5733   0.3706   3.9759   H         2 RES2   0.0000
   125 C32      1.3324   2.9199   2.4403   C.ar      2 RES2   0.0000
   126 C33      0.7341   2.9474   1.1772   C.ar      2 RES2   0.0000
   127 H58      1.2815   2.9324   0.4245   H         2 RES2   0.0000
   128 C34     -0.6402   3.0000   0.9956   C.ar      2 RES2   0.0000
   129 H59     -0.9965   3.0126   0.1369   H         2 RES2   0.0000
   130 C35     -1.4761   3.0301   2.0865   C.ar      2 RES2   0.0000
   131 H60     -2.3979   3.0676   1.9720   H         2 RES2   0.0000
   132 C36     -0.9366   3.0050   3.3482   C.ar      2 RES2   0.0000
   133 H61     -1.4908   3.0251   4.0945   H         2 RES2   0.0000
   134 C37      0.4400   2.9499   3.5016   C.ar      2 RES2   0.0000
   135 H62      0.7850   2.9324   4.3639   H         2 RES2   0.0000
   136 C38      3.4363   3.1503   4.1388   C.ar      2 RES2   0.0000
   137 C39      3.0461   4.4099   4.6505   C.ar      2 RES2   0.0000
   138 H63      2.5088   4.9558   4.1219   H         2 RES2   0.0000
   139 C40      3.4193   4.8657   5.8862   C.ar      2 RES2   0.0000
   140 H64      3.1207   5.6920   6.1852   H         2 RES2   0.0000
   141 C41      4.2247   4.1069   6.6718   C.ar      2 RES2   0.0000
   142 H65      4.4837   4.4199   7.5089   H         2 RES2   0.0000
   143 C42      4.6533   2.8949   6.2381   C.ar      2 RES2   0.0000
   144 H66      5.2019   2.3740   6.7786   H         2 RES2   0.0000
   145 C43      4.2642   2.4241   4.9586   C.ar      2 RES2   0.0000
   146 H67      4.5787   1.6002   4.6651   H         2 RES2   0.0000
   147 C44      3.8231   3.7338   1.6319   C.ar      2 RES2   0.0000
   148 C45      3.3107   4.9208   1.0878   C.ar      2 RES2   0.0000
   149 H68      2.4115   5.1211   1.2188   H         2 RES2   0.0000
   150 C46      4.0957   5.8097   0.3574   C.ar      2 RES2   0.0000
   151 H69      3.7202   6.5886   0.0091   H         2 RES2   0.0000
   152 C47      5.4248   5.5368   0.1511   C.ar      2 RES2   0.0000
   153 H70      5.9552   6.1228  -0.3378   H         2 RES2   0.0000
   154 C48      5.9632   4.3849   0.6710   C.ar      2 RES2   0.0000
   155 H71      6.8635   4.1945   0.5341   H         2 RES2   0.0000
   156 C49      5.1838   3.5134   1.3904   C.ar      2 RES2   0.0000
   157 H72      5.5775   2.7446   1.7300   H         2 RES2   0.0000
   158 B1       2.9612   2.7421   2.6078   B         2 RES2  -1.0000
   159 C64      5.7121   1.8431  13.2833   C.ar      3 RES3   0.0000
   160 H88      4.8705   2.2212  13.3883   H         3 RES3   0.0000
   161 C65      7.8069   1.3448  14.0958   C.ar      3 RES3   0.0000
   162 H89      8.4301   1.3498  14.7851   H         3 RES3   0.0000
   163 C66      6.6282   1.8882  14.2464   C.ar      3 RES3   0.0000
   164 H90      6.4269   2.3214  15.0407   H         3 RES3   0.0000
   165 C67      6.0401   1.2671  12.2197   C.ar      3 RES3   0.0000
   166 H91      5.3999   1.2246  11.5487   H         3 RES3   0.0000
   167 C68      7.2051   0.7112  11.9595   C.ar      3 RES3   0.0000
   168 H92      7.3997   0.3005  11.1470   H         3 RES3   0.0000
   169 C69      8.0794   0.7863  12.9364   C.ar      3 RES3   0.0000
   170 H93      8.9278   0.4282  12.8040   H         3 RES3   0.0000
@<TRIPOS>BOND
     1     1     2    3
     2     2     3    1
     3     3    78    1
     4     4     5    1
     5     6     4    1
     6     7     4    1
     7     8     9    1
     8    10     8    1
     9    11     8    1
    10    12    13    1
    11    13    14    1
    12    15    13    1
    13    16    13    1
    14    17    18    1
    15    19    17    1
    16    20    17    1
    17    21    20    1
    18    22    20    1
    19    23    20    1
    20    24    25    1
    21    26    24    1
    22    27    28    1
    23    29    27    1
    24    30    27    1
    25    31    30    1
    26    32    30    1
    27    33    30    1
    28    34    24    1
    29    35    34    1
    30    36    34    1
    31    37    38    1
    32    39    37    1
    33    40    37    1
    34    41    40    1
    35    42    40    1
    36    43    40    1
    37    44    45    1
    38    46    44    1
    39    47    44    1
    40    48    47    1
    41    49    47    1
    42    50    47    1
    43    51    52    1
    44    53    51    1
    45    54    51    1
    46    55    54    1
    47    56    54    1
    48    57    54    1
    49    58    59    1
    50    60    58    1
    51    61    62    1
    52    63    61    1
    53    64    61    1
    54    65    64    1
    55    66    64    1
    56    67    64    1
    57    68    69    1
    58    70    68    1
    59    71    68    1
    60    72    71    1
    61    73    71    1
    62    74    71    1
    63    75    58    1
    64    76    75    1
    65    77    75    1
    66    78    79   ar
    67    79    80    1
    68    81    79   ar
    69    82    81    1
    70    83    81   ar
    71    84    83    1
    72    85    83   ar
    73    86    85    1
    74    87    78   ar
    75    88    87    1
    76    89     3    1
    77    90    89   ar
    78    91    90    1
    79    92    90   ar
    80    93    92    1
    81    94    92   ar
    82    95    94    1
    83    96    94   ar
    84    97    96    1
    85    98    89   ar
    86    99    98    1
    87   100     1    1
    88   101    17    1
    89   102    27    1
    90   103    44    1
    91   104    61    1
    92   105     3    1
    93   106    12    3
    94   107   101    1
    95   108   107    1
    96   109   107    1
    97   110   107    1
    98   111   110    1
    99   112   110    1
   100   113   110    1
   101     4   105    1
   102     8   105    1
   103    24   101    1
   104    34   102    1
   105    37   102    1
   106    51   103    1
   107    58   103    1
   108    68   104    1
   109    75   104    1
   110    85    87   ar
   111    96    98   ar
   112   100   101    1
   113   100   102    1
   114   100   103    1
   115   100   104    1
   116   100   106    1
   117   114   115   ar
   118   115   116    1
   119   117   118    1
   120   119   115   ar
   121   120   119    1
   122   121   117   ar
   123   122   121    1
   124   123   114   ar
   125   124   123    1
   126   125   126   ar
   127   126   127    1
   128   128   126   ar
   129   129   128    1
   130   130   128   ar
   131   131   130    1
   132   132   130   ar
   133   133   132    1
   134   134   125   ar
   135   135   134    1
   136   136   137   ar
   137   137   138    1
   138   139   137   ar
   139   140   139    1
   140   141   139   ar
   141   142   141    1
   142   143   141   ar
   143   144   143    1
   144   145   136   ar
   145   146   145    1
   146   147   148   ar
   147   148   149    1
   148   150   148   ar
   149   151   150    1
   150   152   150   ar
   151   153   152    1
   152   154   152   ar
   153   155   154    1
   154   156   147   ar
   155   157   156    1
   156   158   114    1
   157   117   119   ar
   158   121   123   ar
   159   125   158    1
   160   132   134   ar
   161   136   158    1
   162   143   145   ar
   163   147   158    1
   164   154   156   ar
   165   159   160    1
   166   161   162    1
   167   163   159   ar
   168   164   163    1
   169   165   159   ar
   170   166   165    1
   171   167   165   ar
   172   168   167    1
   173   169   161   ar
   174   170   169    1
   175   161   163   ar
   176   167   169   ar
@<TRIPOS>SUBSTRUCTURE
     1 RES1        1 GROUP             0 ****  ****    0  
     2 RES2      114 GROUP             0 ****  ****    0  
     3 RES3      159 GROUP             0 ****  ****    0  
@<TRIPOS>CRYSIN
   11.3110   25.0420   45.6470   90.0000   90.0000   90.0000    61     1
