@<TRIPOS>MOLECULE
YAXVEC
   106   118     2     0     0
SMALL
USER_CHARGES
****
Generated from the CSD

@<TRIPOS>ATOM
     1 Fe1      5.9368   2.3972   4.1135   Fe        1 RES1   1.0000
     2 Cl1     12.6785   4.8615   3.6515   Cl        1 RES1   0.0000
     3 Cl2      6.5400  -4.5304   6.0026   Cl        1 RES1   0.0000
     4 O1       7.3987   2.8486   5.2104   O.3       1 RES1   0.0000
     5 O2       6.6894   0.7902   3.5519   O.3       1 RES1   0.0000
     6 N1       6.7007   3.1847   2.5190   N.2       1 RES1   0.0000
     7 N2       4.3800   2.1208   2.9315   N.ar      1 RES1   0.0000
     8 N3       5.0487   1.6338   5.6560   N.2       1 RES1   0.0000
     9 N4       5.0579   4.0446   4.7067   N.ar      1 RES1   0.0000
    10 C1       8.5504   3.3318   4.7944   C.ar      1 RES1   0.0000
    11 C2       9.5043   3.6745   5.7765   C.ar      1 RES1   0.0000
    12 H1       9.2805   3.5812   6.6948   H         1 RES1   0.0000
    13 C3      10.7488   4.1390   5.4316   C.ar      1 RES1   0.0000
    14 H2      11.3770   4.3615   6.1085   H         1 RES1   0.0000
    15 C4      11.0925   4.2841   4.0852   C.ar      1 RES1   0.0000
    16 C5      10.1914   4.0022   3.1101   C.ar      1 RES1   0.0000
    17 H3      10.4347   4.1120   2.1993   H         1 RES1   0.0000
    18 C6       8.8926   3.5465   3.4367   C.ar      1 RES1   0.0000
    19 C7       7.9512   3.4742   2.3648   C.2       1 RES1   0.0000
    20 H4       8.2638   3.6500   1.4855   H         1 RES1   0.0000
    21 C8       5.7836   3.3105   1.4405   C.ar      1 RES1   0.0000
    22 C9       5.9809   3.9699   0.2534   C.ar      1 RES1   0.0000
    23 H5       6.8085   4.4025   0.0811   H         1 RES1   0.0000
    24 C10      4.9592   4.0040  -0.7013   C.ar      1 RES1   0.0000
    25 H6       5.1070   4.4523  -1.5260   H         1 RES1   0.0000
    26 C11      3.7527   3.4062  -0.4729   C.ar      1 RES1   0.0000
    27 H7       3.0744   3.4418  -1.1366   H         1 RES1   0.0000
    28 C12      3.5085   2.7384   0.7380   C.ar      1 RES1   0.0000
    29 C13      2.3018   2.0829   1.0705   C.ar      1 RES1   0.0000
    30 H8       1.5791   2.0767   0.4532   H         1 RES1   0.0000
    31 C14      2.1726   1.4602   2.2734   C.ar      1 RES1   0.0000
    32 H9       1.3709   0.9996   2.4917   H         1 RES1   0.0000
    33 C15      3.2335   1.5040   3.1867   C.ar      1 RES1   0.0000
    34 H10      3.1277   1.0727   4.0265   H         1 RES1   0.0000
    35 C16      4.5341   2.7154   1.6979   C.ar      1 RES1   0.0000
    36 C17      6.6324  -0.3679   4.1731   C.ar      1 RES1   0.0000
    37 C18      7.3001  -1.4527   3.5805   C.ar      1 RES1   0.0000
    38 H11      7.7875  -1.3144   2.7770   H         1 RES1   0.0000
    39 C19      7.2646  -2.7041   4.1352   C.ar      1 RES1   0.0000
    40 H12      7.7211  -3.4222   3.7123   H         1 RES1   0.0000
    41 C20      6.5608  -2.9295   5.3204   C.ar      1 RES1   0.0000
    42 C21      5.9131  -1.9128   5.9385   C.ar      1 RES1   0.0000
    43 H13      5.4485  -2.0772   6.7513   H         1 RES1   0.0000
    44 C22      5.9219  -0.6028   5.3861   C.ar      1 RES1   0.0000
    45 C23      5.1683   0.3949   6.0543   C.2       1 RES1   0.0000
    46 H14      4.7160   0.1442   6.8512   H         1 RES1   0.0000
    47 C24      4.1844   2.5456   6.3168   C.ar      1 RES1   0.0000
    48 C25      3.3545   2.2972   7.3852   C.ar      1 RES1   0.0000
    49 H15      3.3241   1.4282   7.7691   H         1 RES1   0.0000
    50 C26      2.5549   3.3186   7.9083   C.ar      1 RES1   0.0000
    51 H16      1.9826   3.1337   8.6436   H         1 RES1   0.0000
    52 C27      2.5853   4.5799   7.3801   C.ar      1 RES1   0.0000
    53 H17      2.0278   5.2567   7.7474   H         1 RES1   0.0000
    54 C28      3.4354   4.8873   6.2951   C.ar      1 RES1   0.0000
    55 C29      3.5710   6.1605   5.6978   C.ar      1 RES1   0.0000
    56 H18      3.0374   6.8855   6.0028   H         1 RES1   0.0000
    57 C30      4.4605   6.3524   4.6884   C.ar      1 RES1   0.0000
    58 H19      4.5862   7.2188   4.3189   H         1 RES1   0.0000
    59 C31      5.1905   5.2633   4.1992   C.ar      1 RES1   0.0000
    60 H20      5.7985   5.4010   3.4821   H         1 RES1   0.0000
    61 C32      4.2191   3.8458   5.7711   C.ar      1 RES1   0.0000
    62 B1       5.8169  10.4346   2.9306   B         2 RES2  -1.0000
    63 C33      6.6826   9.3861   3.8634   C.ar      2 RES2   0.0000
    64 C34      7.6101   8.5138   3.3127   C.ar      2 RES2   0.0000
    65 H21      7.8578   8.6261   2.4020   H         2 RES2   0.0000
    66 C35      8.1955   7.4732   4.0467   C.ar      2 RES2   0.0000
    67 H22      8.8176   6.8851   3.6326   H         2 RES2   0.0000
    68 C36      7.8587   7.3089   5.3787   C.ar      2 RES2   0.0000
    69 H23      8.2447   6.6010   5.8811   H         2 RES2   0.0000
    70 C37      6.9829   8.1522   5.9666   C.ar      2 RES2   0.0000
    71 H24      6.7700   8.0501   6.8859   H         2 RES2   0.0000
    72 C38      6.3953   9.1693   5.2261   C.ar      2 RES2   0.0000
    73 H25      5.7724   9.7429   5.6567   H         2 RES2   0.0000
    74 C39      4.6492   9.4426   2.3257   C.ar      2 RES2   0.0000
    75 C40      3.4614   9.1798   3.0164   C.ar      2 RES2   0.0000
    76 H26      3.2283   9.7328   3.7528   H         2 RES2   0.0000
    77 C41      2.6027   8.1349   2.6630   C.ar      2 RES2   0.0000
    78 H27      1.8139   7.9767   3.1679   H         2 RES2   0.0000
    79 C42      2.9011   7.3340   1.5810   C.ar      2 RES2   0.0000
    80 H28      2.3214   6.6212   1.3378   H         2 RES2   0.0000
    81 C43      4.0461   7.5760   0.8557   C.ar      2 RES2   0.0000
    82 H29      4.2572   7.0347   0.1042   H         2 RES2   0.0000
    83 C44      4.8953   8.6212   1.2292   C.ar      2 RES2   0.0000
    84 H30      5.6761   8.7778   0.7109   H         2 RES2   0.0000
    85 C45      6.7262  11.1449   1.7736   C.ar      2 RES2   0.0000
    86 C46      8.0486  11.5359   2.0061   C.ar      2 RES2   0.0000
    87 H31      8.4560  11.2878   2.8276   H         2 RES2   0.0000
    88 C47      8.7882  12.2661   1.0960   C.ar      2 RES2   0.0000
    89 H32      9.6836  12.5101   1.2973   H         2 RES2   0.0000
    90 C48      8.2251  12.6405  -0.1071   C.ar      2 RES2   0.0000
    91 H33      8.7322  13.1355  -0.7398   H         2 RES2   0.0000
    92 C49      6.9289  12.2948  -0.3824   C.ar      2 RES2   0.0000
    93 H34      6.5318  12.5568  -1.2046   H         2 RES2   0.0000
    94 C50      6.1940  11.5597   0.5429   C.ar      2 RES2   0.0000
    95 H35      5.2971  11.3296   0.3330   H         2 RES2   0.0000
    96 C51      5.2145  11.7026   3.7673   C.ar      2 RES2   0.0000
    97 C52      5.9114  12.2898   4.8390   C.ar      2 RES2   0.0000
    98 H36      6.7191  11.8893   5.1370   H         2 RES2   0.0000
    99 C53      5.4559  13.4354   5.4768   C.ar      2 RES2   0.0000
   100 H37      5.9546  13.8015   6.1982   H         2 RES2   0.0000
   101 C54      4.2985  14.0413   5.0761   C.ar      2 RES2   0.0000
   102 H38      3.9862  14.8198   5.5206   H         2 RES2   0.0000
   103 C55      3.5904  13.5123   4.0236   C.ar      2 RES2   0.0000
   104 H39      2.7887  13.9301   3.7325   H         2 RES2   0.0000
   105 C56      4.0472  12.3672   3.3855   C.ar      2 RES2   0.0000
   106 H40      3.5433  12.0210   2.6582   H         2 RES2   0.0000
@<TRIPOS>BOND
     1     1     4    1
     2     2    15    1
     3     3    41    1
     4     4    10    1
     5     5     1    1
     6     6     1    1
     7     7     1    1
     8     8     1    1
     9     9     1    1
    10    10    11   ar
    11    11    12    1
    12    13    11   ar
    13    14    13    1
    14    15    13   ar
    15    16    15   ar
    16    17    16    1
    17    18    10   ar
    18    19     6    2
    19    20    19    1
    20    21     6    1
    21    22    21   ar
    22    23    22    1
    23    24    22   ar
    24    25    24    1
    25    26    24   ar
    26    27    26    1
    27    28    26   ar
    28    29    28   ar
    29    30    29    1
    30    31    29   ar
    31    32    31    1
    32    33     7   ar
    33    34    33    1
    34    35     7   ar
    35    36     5    1
    36    37    36   ar
    37    38    37    1
    38    39    37   ar
    39    40    39    1
    40    41    39   ar
    41    42    41   ar
    42    43    42    1
    43    44    36   ar
    44    45     8    2
    45    46    45    1
    46    47     8    1
    47    48    47   ar
    48    49    48    1
    49    50    48   ar
    50    51    50    1
    51    52    50   ar
    52    53    52    1
    53    54    52   ar
    54    55    54   ar
    55    56    55    1
    56    57    55   ar
    57    58    57    1
    58    59     9   ar
    59    60    59    1
    60    61     9   ar
    61    16    18   ar
    62    18    19    1
    63    21    35   ar
    64    28    35   ar
    65    31    33   ar
    66    42    44   ar
    67    44    45    1
    68    47    61   ar
    69    54    61   ar
    70    57    59   ar
    71    62    63    1
    72    63    64   ar
    73    64    65    1
    74    66    64   ar
    75    67    66    1
    76    68    66   ar
    77    69    68    1
    78    70    68   ar
    79    71    70    1
    80    72    63   ar
    81    73    72    1
    82    74    62    1
    83    75    74   ar
    84    76    75    1
    85    77    75   ar
    86    78    77    1
    87    79    77   ar
    88    80    79    1
    89    81    79   ar
    90    82    81    1
    91    83    74   ar
    92    84    83    1
    93    85    62    1
    94    86    85   ar
    95    87    86    1
    96    88    86   ar
    97    89    88    1
    98    90    88   ar
    99    91    90    1
   100    92    90   ar
   101    93    92    1
   102    94    85   ar
   103    95    94    1
   104    96    62    1
   105    97    96   ar
   106    98    97    1
   107    99    97   ar
   108   100    99    1
   109   101    99   ar
   110   102   101    1
   111   103   101   ar
   112   104   103    1
   113   105    96   ar
   114   106   105    1
   115    70    72   ar
   116    81    83   ar
   117    92    94   ar
   118   103   105   ar
@<TRIPOS>SUBSTRUCTURE
     1 RES1        1 GROUP             0 ****  ****    0  
     2 RES2       62 GROUP             0 ****  ****    0  
@<TRIPOS>CRYSIN
   11.5300   14.1235   14.5540   84.5220   86.3600   71.6650     2     1
