@<TRIPOS>MOLECULE
YAZJOZ
   171   185     4     0     0
SMALL
USER_CHARGES
****
Generated from the CSD

@<TRIPOS>ATOM
     1 Fe1      3.4926   1.5479   5.6487   Fe        1 RES1   2.0000
     2 N1       6.2206   0.7731   2.3571   N.pl3     1 RES1   0.0000
     3 H1       6.4708   0.6786   1.5400   H         1 RES1   0.0000
     4 N2       5.0817   1.4650   4.0933   N.2       1 RES1   0.0000
     5 N3       5.1262   0.5601   6.6378   N.2       1 RES1   0.0000
     6 N4       2.3213   1.0799   7.4694   N.ar      1 RES1   0.0000
     7 N5       2.1358  -1.6488   2.9168   N.pl3     1 RES1   0.0000
     8 H2       2.1350  -2.3900   2.4797   H         1 RES1   0.0000
     9 N6       2.6584  -0.1385   4.4258   N.2       1 RES1   0.0000
    10 N7       1.8564   2.4738   4.5616   N.2       1 RES1   0.0000
    11 N8       3.9809   3.5954   6.2539   N.ar      1 RES1   0.0000
    12 C1       5.2279   1.5863   2.7917   C.2       1 RES1   0.0000
    13 C2       4.4746   2.5027   1.9340   C.ar      1 RES1   0.0000
    14 C3       4.1632   3.7740   2.4022   C.ar      1 RES1   0.0000
    15 H3       4.4081   4.0207   3.2645   H         1 RES1   0.0000
    16 C4       3.4923   4.6750   1.5957   C.ar      1 RES1   0.0000
    17 H4       3.2944   5.5269   1.9128   H         1 RES1   0.0000
    18 C5       3.1214   4.3103   0.3298   C.ar      1 RES1   0.0000
    19 H5       2.6711   4.9149  -0.2158   H         1 RES1   0.0000
    20 C6       3.4122   3.0547  -0.1350   C.ar      1 RES1   0.0000
    21 H6       3.1473   2.8090  -0.9927   H         1 RES1   0.0000
    22 C7       4.0939   2.1506   0.6525   C.ar      1 RES1   0.0000
    23 H7       4.2976   1.3063   0.3217   H         1 RES1   0.0000
    24 C8       6.7511   0.1334   3.4267   C.2       1 RES1   0.0000
    25 H8       7.4598  -0.4699   3.4214   H         1 RES1   0.0000
    26 C9       6.0440   0.5497   4.5033   C.2       1 RES1   0.0000
    27 C10      6.0879   0.1871   5.8872   C.2       1 RES1   0.0000
    28 H9       6.7975  -0.3069   6.2287   H         1 RES1   0.0000
    29 C11      5.1784   0.2236   8.0648   C.3       1 RES1   0.0000
    30 H10      6.0970   0.2630   8.3730   H         1 RES1   0.0000
    31 H11      4.8557  -0.6821   8.1964   H         1 RES1   0.0000
    32 C12      4.3270   1.1888   8.8784   C.3       1 RES1   0.0000
    33 H12      4.5480   1.0819   9.8169   H         1 RES1   0.0000
    34 H13      4.5591   2.0954   8.6241   H         1 RES1   0.0000
    35 C13      2.8460   1.0053   8.7083   C.ar      1 RES1   0.0000
    36 C14      2.0503   0.7424   9.8069   C.ar      1 RES1   0.0000
    37 H14      2.4257   0.7084  10.6566   H         1 RES1   0.0000
    38 C15      0.7134   0.5334   9.6415   C.ar      1 RES1   0.0000
    39 H15      0.1737   0.3560  10.3780   H         1 RES1   0.0000
    40 C16      0.1694   0.5850   8.3891   C.ar      1 RES1   0.0000
    41 H16     -0.7386   0.4331   8.2553   H         1 RES1   0.0000
    42 C17      1.0001   0.8671   7.3393   C.ar      1 RES1   0.0000
    43 H17      0.6294   0.9135   6.4877   H         1 RES1   0.0000
    44 C18      2.9053  -1.3786   4.0080   C.2       1 RES1   0.0000
    45 C19      3.8463  -2.3456   4.5610   C.ar      1 RES1   0.0000
    46 C20      3.9743  -2.5195   5.9202   C.ar      1 RES1   0.0000
    47 H18      3.4488  -2.0200   6.5014   H         1 RES1   0.0000
    48 C21      4.8806  -3.4326   6.4251   C.ar      1 RES1   0.0000
    49 H19      4.9663  -3.5437   7.3450   H         1 RES1   0.0000
    50 C22      5.6547  -4.1767   5.5672   C.ar      1 RES1   0.0000
    51 H20      6.2708  -4.7834   5.9090   H         1 RES1   0.0000
    52 C23      5.5234  -4.0317   4.2155   C.ar      1 RES1   0.0000
    53 H21      6.0409  -4.5467   3.6411   H         1 RES1   0.0000
    54 C24      4.6198  -3.1185   3.7002   C.ar      1 RES1   0.0000
    55 H22      4.5292  -3.0212   2.7799   H         1 RES1   0.0000
    56 C25      1.3754  -0.5695   2.6312   C.2       1 RES1   0.0000
    57 H23      0.7530  -0.4875   1.9442   H         1 RES1   0.0000
    58 C26      1.7057   0.3714   3.5524   C.2       1 RES1   0.0000
    59 C27      1.2832   1.7359   3.6809   C.2       1 RES1   0.0000
    60 H24      0.6088   2.0778   3.1389   H         1 RES1   0.0000
    61 C28      1.4258   3.8664   4.7042   C.3       1 RES1   0.0000
    62 H25      0.4818   3.9365   4.4906   H         1 RES1   0.0000
    63 H26      1.9158   4.4222   4.0786   H         1 RES1   0.0000
    64 C29      1.6628   4.3706   6.1210   C.3       1 RES1   0.0000
    65 H27      1.1817   5.2042   6.2366   H         1 RES1   0.0000
    66 H28      1.2865   3.7278   6.7427   H         1 RES1   0.0000
    67 C30      3.0992   4.5963   6.4789   C.ar      1 RES1   0.0000
    68 C31      3.5283   5.7932   7.0078   C.ar      1 RES1   0.0000
    69 H29      2.9148   6.4720   7.1685   H         1 RES1   0.0000
    70 C32      4.8559   5.9921   7.2987   C.ar      1 RES1   0.0000
    71 H30      5.1404   6.7946   7.6726   H         1 RES1   0.0000
    72 C33      5.7491   5.0005   7.0319   C.ar      1 RES1   0.0000
    73 H31      6.6564   5.1148   7.2018   H         1 RES1   0.0000
    74 C34      5.2775   3.8392   6.5120   C.ar      1 RES1   0.0000
    75 H32      5.8919   3.1667   6.3210   H         1 RES1   0.0000
    76 B1       7.7755   7.7141   3.6835   B         2 RES2  -1.0000
    77 C35      8.1491   7.4136   5.2645   C.ar      2 RES2   0.0000
    78 C36      8.9504   6.3564   5.7093   C.ar      2 RES2   0.0000
    79 H33      9.2833   5.7601   5.0772   H         2 RES2   0.0000
    80 C37      9.2760   6.1492   7.0382   C.ar      2 RES2   0.0000
    81 H34      9.8137   5.4287   7.2764   H         2 RES2   0.0000
    82 C38      8.8109   7.0024   8.0048   C.ar      2 RES2   0.0000
    83 H35      9.0383   6.8788   8.8988   H         2 RES2   0.0000
    84 C39      7.9965   8.0485   7.6230   C.ar      2 RES2   0.0000
    85 H36      7.6591   8.6305   8.2651   H         2 RES2   0.0000
    86 C40      7.6794   8.2363   6.2858   C.ar      2 RES2   0.0000
    87 H37      7.1258   8.9479   6.0600   H         2 RES2   0.0000
    88 C41      8.1040   6.4045   2.7308   C.ar      2 RES2   0.0000
    89 C42      9.4136   5.9924   2.5017   C.ar      2 RES2   0.0000
    90 H38     10.0985   6.4615   2.9211   H         2 RES2   0.0000
    91 C43      9.7578   4.9332   1.6930   C.ar      2 RES2   0.0000
    92 H39     10.6512   4.6992   1.5832   H         2 RES2   0.0000
    93 C44      8.7760   4.2235   1.0488   C.ar      2 RES2   0.0000
    94 H40      8.9964   3.4999   0.5061   H         2 RES2   0.0000
    95 C45      7.4635   4.5974   1.2159   C.ar      2 RES2   0.0000
    96 H41      6.7898   4.1346   0.7730   H         2 RES2   0.0000
    97 C46      7.1417   5.6636   2.0444   C.ar      2 RES2   0.0000
    98 H42      6.2458   5.8933   2.1462   H         2 RES2   0.0000
    99 C47      8.6473   8.9922   3.1083   C.ar      2 RES2   0.0000
   100 C48      9.0154  10.1006   3.8860   C.ar      2 RES2   0.0000
   101 H43      8.8529  10.0788   4.8025   H         2 RES2   0.0000
   102 C49      9.6113  11.2256   3.3376   C.ar      2 RES2   0.0000
   103 H44      9.8322  11.9410   3.8883   H         2 RES2   0.0000
   104 C50      9.8823  11.2998   1.9934   C.ar      2 RES2   0.0000
   105 H45     10.2798  12.0567   1.6303   H         2 RES2   0.0000
   106 C51      9.5505  10.2280   1.1975   C.ar      2 RES2   0.0000
   107 H46      9.7280  10.2559   0.2845   H         2 RES2   0.0000
   108 C52      8.9559   9.1116   1.7501   C.ar      2 RES2   0.0000
   109 H47      8.7487   8.4008   1.1889   H         2 RES2   0.0000
   110 C53      6.1837   8.1530   3.6262   C.ar      2 RES2   0.0000
   111 C54      5.7369   9.4060   3.2068   C.ar      2 RES2   0.0000
   112 H48      6.3656  10.0297   2.9231   H         2 RES2   0.0000
   113 C55      4.3962   9.7669   3.1928   C.ar      2 RES2   0.0000
   114 H49      4.1482  10.6171   2.9094   H         2 RES2   0.0000
   115 C56      3.4348   8.8754   3.5948   C.ar      2 RES2   0.0000
   116 H50      2.5358   9.1109   3.5803   H         2 RES2   0.0000
   117 C57      3.8218   7.6310   4.0201   C.ar      2 RES2   0.0000
   118 H51      3.1785   7.0138   4.2885   H         2 RES2   0.0000
   119 C58      5.1608   7.2856   4.0541   C.ar      2 RES2   0.0000
   120 H52      5.3949   6.4439   4.3729   H         2 RES2   0.0000
   121 B2       2.3169  -4.1725  -0.8363   B         3 RES3  -1.0000
   122 C59      1.6402  -5.3128  -1.8041   C.ar      3 RES3   0.0000
   123 C60      2.3003  -5.8074  -2.9486   C.ar      3 RES3   0.0000
   124 H53      3.1737  -5.5339  -3.1154   H         3 RES3   0.0000
   125 C61      1.6944  -6.6866  -3.8334   C.ar      3 RES3   0.0000
   126 H54      2.1621  -6.9840  -4.5808   H         3 RES3   0.0000
   127 C62      0.4099  -7.1206  -3.6154   C.ar      3 RES3   0.0000
   128 H55     -0.0004  -7.6994  -4.2159   H         3 RES3   0.0000
   129 C63     -0.2551  -6.6915  -2.5082   C.ar      3 RES3   0.0000
   130 H56     -1.1183  -6.9945  -2.3404   H         3 RES3   0.0000
   131 C64      0.3499  -5.8030  -1.6256   C.ar      3 RES3   0.0000
   132 H57     -0.1299  -5.5234  -0.8809   H         3 RES3   0.0000
   133 C65      2.1953  -2.7029  -1.5771   C.ar      3 RES3   0.0000
   134 C66      2.2910  -2.5344  -2.9602   C.ar      3 RES3   0.0000
   135 H58      2.3724  -3.2912  -3.4959   H         3 RES3   0.0000
   136 C67      2.2693  -1.2872  -3.5730   C.ar      3 RES3   0.0000
   137 H59      2.3223  -1.2274  -4.5004   H         3 RES3   0.0000
   138 C68      2.1690  -0.1405  -2.8225   C.ar      3 RES3   0.0000
   139 H60      2.1702   0.6944  -3.2311   H         3 RES3   0.0000
   140 C69      2.0687  -0.2523  -1.4749   C.ar      3 RES3   0.0000
   141 H61      1.9853   0.5120  -0.9515   H         3 RES3   0.0000
   142 C70      2.0888  -1.5015  -0.8752   C.ar      3 RES3   0.0000
   143 H62      2.0277  -1.5413   0.0510   H         3 RES3   0.0000
   144 C71      1.5253  -4.1850   0.6199   C.ar      3 RES3   0.0000
   145 C72      2.0003  -4.9140   1.7136   C.ar      3 RES3   0.0000
   146 H63      2.8220  -5.3410   1.6342   H         3 RES3   0.0000
   147 C73      1.3113  -5.0340   2.9113   C.ar      3 RES3   0.0000
   148 H64      1.6642  -5.5497   3.5999   H         3 RES3   0.0000
   149 C74      0.1112  -4.3943   3.0789   C.ar      3 RES3   0.0000
   150 H65     -0.3536  -4.4643   3.8805   H         3 RES3   0.0000
   151 C75     -0.3904  -3.6486   2.0448   C.ar      3 RES3   0.0000
   152 H66     -1.2009  -3.2036   2.1462   H         3 RES3   0.0000
   153 C76      0.3041  -3.5546   0.8483   C.ar      3 RES3   0.0000
   154 H67     -0.0638  -3.0440   0.1628   H         3 RES3   0.0000
   155 C77      3.8959  -4.4720  -0.5250   C.ar      3 RES3   0.0000
   156 C78      4.8009  -3.4629  -0.1823   C.ar      3 RES3   0.0000
   157 H68      4.5299  -2.5776  -0.2707   H         3 RES3   0.0000
   158 C79      6.0861  -3.7154   0.2851   C.ar      3 RES3   0.0000
   159 H69      6.6479  -3.0072   0.5042   H         3 RES3   0.0000
   160 C80      6.5254  -5.0080   0.4241   C.ar      3 RES3   0.0000
   161 H70      7.3827  -5.1850   0.7396   H         3 RES3   0.0000
   162 C81      5.6818  -6.0327   0.0900   C.ar      3 RES3   0.0000
   163 H71      5.9652  -6.9139   0.1883   H         3 RES3   0.0000
   164 C82      4.4111  -5.7718  -0.3924   C.ar      3 RES3   0.0000
   165 H72      3.8750  -6.4895  -0.6396   H         3 RES3   0.0000
   166 N9       6.5892  -0.1361  -0.5377   N.1       4 RES4   0.0000
   167 C83      6.3953  -0.6633  -1.5122   C.1       4 RES4   0.0000
   168 C84      6.1454  -1.3326  -2.7630   C.3       4 RES4   0.0000
   169 H73      6.7855  -1.0415  -3.4155   H         4 RES4   0.0000
   170 H74      5.2594  -1.1222  -3.0683   H         4 RES4   0.0000
   171 H75      6.2236  -2.2812  -2.6386   H         4 RES4   0.0000
@<TRIPOS>BOND
     1     1     4    1
     2     2     3    1
     3     4    12    2
     4     5     1    1
     5     6     1    1
     6     7     8    1
     7     9     1    1
     8    10     1    1
     9    11     1    1
    10    12     2    1
    11    13    12    1
    12    14    13   ar
    13    15    14    1
    14    16    14   ar
    15    17    16    1
    16    18    16   ar
    17    19    18    1
    18    20    18   ar
    19    21    20    1
    20    22    13   ar
    21    23    22    1
    22    24     2    1
    23    25    24    1
    24    26     4    1
    25    27     5    2
    26    28    27    1
    27    29     5    1
    28    30    29    1
    29    31    29    1
    30    32    29    1
    31    33    32    1
    32    34    32    1
    33    35     6   ar
    34    36    35   ar
    35    37    36    1
    36    38    36   ar
    37    39    38    1
    38    40    38   ar
    39    41    40    1
    40    42     6   ar
    41    43    42    1
    42    44     7    1
    43    45    44    1
    44    46    45   ar
    45    47    46    1
    46    48    46   ar
    47    49    48    1
    48    50    48   ar
    49    51    50    1
    50    52    50   ar
    51    53    52    1
    52    54    45   ar
    53    55    54    1
    54    56     7    1
    55    57    56    1
    56    58     9    1
    57    59    10    2
    58    60    59    1
    59    61    10    1
    60    62    61    1
    61    63    61    1
    62    64    61    1
    63    65    64    1
    64    66    64    1
    65    67    11   ar
    66    68    67   ar
    67    69    68    1
    68    70    68   ar
    69    71    70    1
    70    72    70   ar
    71    73    72    1
    72    74    11   ar
    73    75    74    1
    74     9    44    2
    75    20    22   ar
    76    24    26    2
    77    26    27    1
    78    32    35    1
    79    40    42   ar
    80    52    54   ar
    81    56    58    2
    82    58    59    1
    83    64    67    1
    84    72    74   ar
    85    76    77    1
    86    77    78   ar
    87    78    79    1
    88    80    78   ar
    89    81    80    1
    90    82    80   ar
    91    83    82    1
    92    84    82   ar
    93    85    84    1
    94    86    77   ar
    95    87    86    1
    96    88    76    1
    97    89    88   ar
    98    90    89    1
    99    91    89   ar
   100    92    91    1
   101    93    91   ar
   102    94    93    1
   103    95    93   ar
   104    96    95    1
   105    97    88   ar
   106    98    97    1
   107    99    76    1
   108   100    99   ar
   109   101   100    1
   110   102   100   ar
   111   103   102    1
   112   104   102   ar
   113   105   104    1
   114   106   104   ar
   115   107   106    1
   116   108    99   ar
   117   109   108    1
   118   110    76    1
   119   111   110   ar
   120   112   111    1
   121   113   111   ar
   122   114   113    1
   123   115   113   ar
   124   116   115    1
   125   117   115   ar
   126   118   117    1
   127   119   110   ar
   128   120   119    1
   129    84    86   ar
   130    95    97   ar
   131   106   108   ar
   132   117   119   ar
   133   121   122    1
   134   122   123   ar
   135   123   124    1
   136   125   123   ar
   137   126   125    1
   138   127   125   ar
   139   128   127    1
   140   129   127   ar
   141   130   129    1
   142   131   122   ar
   143   132   131    1
   144   133   121    1
   145   134   133   ar
   146   135   134    1
   147   136   134   ar
   148   137   136    1
   149   138   136   ar
   150   139   138    1
   151   140   138   ar
   152   141   140    1
   153   142   133   ar
   154   143   142    1
   155   144   121    1
   156   145   144   ar
   157   146   145    1
   158   147   145   ar
   159   148   147    1
   160   149   147   ar
   161   150   149    1
   162   151   149   ar
   163   152   151    1
   164   153   144   ar
   165   154   153    1
   166   155   121    1
   167   156   155   ar
   168   157   156    1
   169   158   156   ar
   170   159   158    1
   171   160   158   ar
   172   161   160    1
   173   162   160   ar
   174   163   162    1
   175   164   155   ar
   176   165   164    1
   177   129   131   ar
   178   140   142   ar
   179   151   153   ar
   180   162   164   ar
   181   166   167    3
   182   167   168    1
   183   168   169    1
   184   170   168    1
   185   171   168    1
@<TRIPOS>SUBSTRUCTURE
     1 RES1        1 GROUP             0 ****  ****    0  
     2 RES2       76 GROUP             0 ****  ****    0  
     3 RES3      121 GROUP             0 ****  ****    0  
     4 RES4      166 GROUP             0 ****  ****    0  
@<TRIPOS>CRYSIN
   20.4076   17.5345   20.0717   90.0000  102.2040   90.0000    14     1
