@<TRIPOS>MOLECULE
YEGLAY
   169   178     1     0     0
SMALL
NO_CHARGES
****
Generated from the CSD

@<TRIPOS>ATOM
     1 Fe1      2.6067   3.1899   7.5549   Fe        1 RES1   0.0000
     2 N1       3.0970   2.9467   9.6212   N.3       1 RES1   0.0000
     3 H1       2.5469   3.4958  10.1139   H         1 RES1   0.0000
     4 H2       2.9090   2.0795   9.8621   H         1 RES1   0.0000
     5 N2       2.0817   3.1635   5.4837   N.3       1 RES1   0.0000
     6 H3       2.3618   3.9621   5.1214   H         1 RES1   0.0000
     7 H4       2.5804   2.5003   5.0846   H         1 RES1   0.0000
     8 O1       3.6523   1.3671   7.3816   O.co2     1 RES1   0.0000
     9 O2       1.4949   1.3923   7.6330   O.co2     1 RES1   0.0000
    10 O3       4.1134   4.3448   7.2410   O.co2     1 RES1   0.0000
    11 O4       4.6599   4.1827   5.0768   O.co2     1 RES1   0.0000
    12 O5       1.2440   4.5466   7.9022   O.co2     1 RES1   0.0000
    13 O6       0.7051   4.3660  10.0627   O.co2     1 RES1   0.0000
    14 C1       4.4861   3.2345   9.9913   C.3       1 RES1   0.0000
    15 H5       4.6789   4.1819   9.7782   H         1 RES1   0.0000
    16 H6       5.0849   2.6745   9.4343   H         1 RES1   0.0000
    17 C2       4.8149   2.9907  11.4514   C.3       1 RES1   0.0000
    18 H7       4.6568   2.0367  11.6614   H         1 RES1   0.0000
    19 H8       5.7750   3.1769  11.6020   H         1 RES1   0.0000
    20 C3       3.9958   3.8442  12.3905   C.3       1 RES1   0.0000
    21 H9       4.0908   4.7969  12.1363   H         1 RES1   0.0000
    22 H10      3.0393   3.5990  12.3102   H         1 RES1   0.0000
    23 C4       4.4387   3.6606  13.8006   C.1       1 RES1   0.0000
    24 C5       4.8035   3.4851  14.8832   C.1       1 RES1   0.0000
    25 H11      5.1034   3.3417  15.7716   H         1 RES1   0.0000
    26 C6       0.7137   2.9692   5.0805   C.3       1 RES1   0.0000
    27 H12      0.1661   3.6807   5.5001   H         1 RES1   0.0000
    28 H13      0.4035   2.1050   5.4489   H         1 RES1   0.0000
    29 C7       0.4329   2.9746   3.6081   C.3       1 RES1   0.0000
    30 H14      0.8624   2.1760   3.2137   H         1 RES1   0.0000
    31 H15     -0.5428   2.8728   3.4839   H         1 RES1   0.0000
    32 C8       0.8515   4.1055   2.8657   C.3       1 RES1   0.0000
    33 H16      1.8392   4.1484   2.9210   H         1 RES1   0.0000
    34 H17      0.5004   4.9081   3.3283   H         1 RES1   0.0000
    35 C9       0.4985   4.2167   1.4984   C.1       1 RES1   0.0000
    36 C10      0.2097   4.3038   0.4155   C.1       1 RES1   0.0000
    37 H18     -0.0364   4.3775  -0.4995   H         1 RES1   0.0000
    38 C11      2.5631   0.7305   7.5041   C.2       1 RES1   0.0000
    39 C12      2.5667  -0.7644   7.5327   C.ar      1 RES1   0.0000
    40 C13      2.4824  -1.4238   8.7686   C.ar      1 RES1   0.0000
    41 C14      2.5691  -2.8125   8.7905   C.ar      1 RES1   0.0000
    42 H19      2.5364  -3.2707   9.6226   H         1 RES1   0.0000
    43 C15      2.7014  -3.5253   7.6277   C.ar      1 RES1   0.0000
    44 H20      2.7570  -4.4726   7.6596   H         1 RES1   0.0000
    45 C16      2.7544  -2.8789   6.4116   C.ar      1 RES1   0.0000
    46 H21      2.8232  -3.3886   5.6127   H         1 RES1   0.0000
    47 C17      2.7091  -1.4947   6.3398   C.ar      1 RES1   0.0000
    48 C18      2.3211  -0.6911  10.0617   C.ar      1 RES1   0.0000
    49 C19      1.1993   0.0758  10.3278   C.ar      1 RES1   0.0000
    50 H22      0.5290   0.1648   9.6595   H         1 RES1   0.0000
    51 C20      1.0257   0.7195  11.5529   C.ar      1 RES1   0.0000
    52 C21      2.0192   0.5829  12.5141   C.ar      1 RES1   0.0000
    53 H23      1.9286   1.0384  13.3439   H         1 RES1   0.0000
    54 C22      3.1365  -0.2010  12.2918   C.ar      1 RES1   0.0000
    55 C23      3.2831  -0.8281  11.0676   C.ar      1 RES1   0.0000
    56 H24      4.0521  -1.3640  10.9081   H         1 RES1   0.0000
    57 C24     -0.2110   1.5221  11.8257   C.3       1 RES1   0.0000
    58 H25     -0.2329   1.7781  12.7708   H         1 RES1   0.0000
    59 H26     -1.0011   0.9848  11.6143   H         1 RES1   0.0000
    60 H27     -0.2048   2.3288  11.2684   H         1 RES1   0.0000
    61 C25      4.1810  -0.3738  13.3763   C.3       1 RES1   0.0000
    62 H28      4.4111   0.5025  13.7513   H         1 RES1   0.0000
    63 H29      4.9835  -0.7865  12.9939   H         1 RES1   0.0000
    64 H30      3.8249  -0.9487  14.0849   H         1 RES1   0.0000
    65 C26      2.8025  -0.8370   5.0004   C.ar      1 RES1   0.0000
    66 C27      3.8420   0.0255   4.6905   C.ar      1 RES1   0.0000
    67 H31      4.4779   0.2385   5.3630   H         1 RES1   0.0000
    68 C28      3.9804   0.5882   3.4233   C.ar      1 RES1   0.0000
    69 C29      3.0329   0.2707   2.4721   C.ar      1 RES1   0.0000
    70 H32      3.1032   0.6566   1.6068   H         1 RES1   0.0000
    71 C30      1.9787  -0.5936   2.7402   C.ar      1 RES1   0.0000
    72 C31      1.8800  -1.1483   4.0075   C.ar      1 RES1   0.0000
    73 H33      1.1723  -1.7513   4.2003   H         1 RES1   0.0000
    74 C32      5.1516   1.4900   3.1224   C.3       1 RES1   0.0000
    75 H34      5.1545   2.2417   3.7500   H         1 RES1   0.0000
    76 H35      5.0754   1.8290   2.2066   H         1 RES1   0.0000
    77 H36      5.9862   0.9835   3.2157   H         1 RES1   0.0000
    78 C33      0.9794  -0.9567   1.6666   C.3       1 RES1   0.0000
    79 H37      0.2677  -1.5061   2.0551   H         1 RES1   0.0000
    80 H38      1.4291  -1.4618   0.9580   H         1 RES1   0.0000
    81 H39      0.5925  -0.1394   1.2896   H         1 RES1   0.0000
    82 C34      0.6247   4.9212   8.9776   C.2       1 RES1   0.0000
    83 C35     -0.2353   6.1570   8.8565   C.ar      1 RES1   0.0000
    84 C36      0.1625   7.3230   9.5279   C.ar      1 RES1   0.0000
    85 C37     -0.6521   8.4526   9.4591   C.ar      1 RES1   0.0000
    86 H40     -0.3819   9.2507   9.8990   H         1 RES1   0.0000
    87 C38     -1.8454   8.4307   8.7633   C.ar      1 RES1   0.0000
    88 H41     -2.4007   9.2012   8.7404   H         1 RES1   0.0000
    89 C39     -2.2248   7.2797   8.1003   C.ar      1 RES1   0.0000
    90 H42     -3.0459   7.2663   7.6228   H         1 RES1   0.0000
    91 C40     -1.4309   6.1438   8.1181   C.ar      1 RES1   0.0000
    92 C41      1.4406   7.4512  10.2858   C.ar      1 RES1   0.0000
    93 C42      2.6505   7.0613   9.7397   C.ar      1 RES1   0.0000
    94 H43      2.6601   6.6098   8.9042   H         1 RES1   0.0000
    95 C43      3.8504   7.3163  10.3890   C.ar      1 RES1   0.0000
    96 C44      3.8087   7.9564  11.6227   C.ar      1 RES1   0.0000
    97 H44      4.6247   8.1574  12.0667   H         1 RES1   0.0000
    98 C45      2.6070   8.3115  12.2218   C.ar      1 RES1   0.0000
    99 C46      1.4321   8.0645  11.5345   C.ar      1 RES1   0.0000
   100 H45      0.6017   8.3195  11.9234   H         1 RES1   0.0000
   101 C47      5.1578   6.9742   9.7344   C.3       1 RES1   0.0000
   102 H46      5.5779   7.7916   9.3954   H         1 RES1   0.0000
   103 H47      4.9990   6.3552   8.9901   H         1 RES1   0.0000
   104 H48      5.7511   6.5508  10.3902   H         1 RES1   0.0000
   105 C48      2.5737   8.9734  13.5863   C.3       1 RES1   0.0000
   106 H49      2.8580   9.9086  13.5016   H         1 RES1   0.0000
   107 H50      3.1798   8.5017  14.1934   H         1 RES1   0.0000
   108 H51      1.6612   8.9399  13.9437   H         1 RES1   0.0000
   109 C49     -1.9005   4.9536   7.3538   C.ar      1 RES1   0.0000
   110 C50     -1.8499   3.6660   7.8721   C.ar      1 RES1   0.0000
   111 H52     -1.5101   3.5293   8.7486   H         1 RES1   0.0000
   112 C51     -2.2857   2.5807   7.1336   C.ar      1 RES1   0.0000
   113 C52     -2.7841   2.8031   5.8577   C.ar      1 RES1   0.0000
   114 H53     -3.0651   2.0581   5.3384   H         1 RES1   0.0000
   115 C53     -2.8853   4.0760   5.3167   C.ar      1 RES1   0.0000
   116 C54     -2.4302   5.1332   6.0814   C.ar      1 RES1   0.0000
   117 H54     -2.4803   6.0135   5.7253   H         1 RES1   0.0000
   118 C55     -2.1688   1.1845   7.7006   C.3       1 RES1   0.0000
   119 H55     -2.9052   0.6311   7.3649   H         1 RES1   0.0000
   120 H56     -2.2130   1.2233   8.6790   H         1 RES1   0.0000
   121 H57     -1.3151   0.7905   7.4283   H         1 RES1   0.0000
   122 C56     -3.4609   4.3199   3.9354   C.3       1 RES1   0.0000
   123 H58     -2.7303   4.4271   3.2915   H         1 RES1   0.0000
   124 H59     -4.0066   5.1345   3.9485   H         1 RES1   0.0000
   125 H60     -4.0187   3.5575   3.6742   H         1 RES1   0.0000
   126 C57      4.8079   4.6563   6.1846   C.2       1 RES1   0.0000
   127 C58      5.8318   5.7386   6.4184   C.ar      1 RES1   0.0000
   128 C59      5.6008   7.0083   5.8823   C.ar      1 RES1   0.0000
   129 C60      6.5507   8.0086   6.0917   C.ar      1 RES1   0.0000
   130 H61      6.3999   8.8809   5.7457   H         1 RES1   0.0000
   131 C61      7.7050   7.7447   6.7962   C.ar      1 RES1   0.0000
   132 H62      8.3497   8.4307   6.9207   H         1 RES1   0.0000
   133 C62      7.9287   6.5012   7.3176   C.ar      1 RES1   0.0000
   134 H63      8.7288   6.3351   7.8029   H         1 RES1   0.0000
   135 C63      7.0002   5.4642   7.1497   C.ar      1 RES1   0.0000
   136 C64      4.3664   7.3373   5.1222   C.ar      1 RES1   0.0000
   137 C65      3.1063   6.9988   5.5961   C.ar      1 RES1   0.0000
   138 H64      3.0334   6.5347   6.4212   H         1 RES1   0.0000
   139 C66      1.9514   7.3190   4.8963   C.ar      1 RES1   0.0000
   140 C67      2.0747   7.9879   3.6859   C.ar      1 RES1   0.0000
   141 H65      1.2905   8.2029   3.1932   H         1 RES1   0.0000
   142 C68      3.3140   8.3505   3.1762   C.ar      1 RES1   0.0000
   143 C69      4.4476   8.0318   3.9109   C.ar      1 RES1   0.0000
   144 H66      5.3014   8.2914   3.5821   H         1 RES1   0.0000
   145 C70      0.6074   7.0024   5.4858   C.3       1 RES1   0.0000
   146 H67      0.6583   6.1596   5.9832   H         1 RES1   0.0000
   147 H68     -0.0535   6.9180   4.7673   H         1 RES1   0.0000
   148 H69      0.3385   7.7232   6.0917   H         1 RES1   0.0000
   149 C71      3.4339   9.0819   1.8672   C.3       1 RES1   0.0000
   150 H70      2.8486   8.6598   1.2036   H         1 RES1   0.0000
   151 H71      4.3631   9.0457   1.5557   H         1 RES1   0.0000
   152 H72      3.1675  10.0172   1.9896   H         1 RES1   0.0000
   153 C72      7.2959   4.1309   7.7474   C.ar      1 RES1   0.0000
   154 C73      7.1233   2.9478   7.0437   C.ar      1 RES1   0.0000
   155 H73      6.7722   2.9813   6.1613   H         1 RES1   0.0000
   156 C74      7.4497   1.7164   7.5958   C.ar      1 RES1   0.0000
   157 C75      7.9854   1.6883   8.8712   C.ar      1 RES1   0.0000
   158 H74      8.2312   0.8522   9.2480   H         1 RES1   0.0000
   159 C76      8.1733   2.8379   9.6122   C.ar      1 RES1   0.0000
   160 C77      7.8158   4.0492   9.0352   C.ar      1 RES1   0.0000
   161 H75      7.9289   4.8478   9.5367   H         1 RES1   0.0000
   162 C78      7.2320   0.4435   6.8081   C.3       1 RES1   0.0000
   163 H76      6.3514   0.0724   7.0251   H         1 RES1   0.0000
   164 H77      7.9267  -0.2063   7.0394   H         1 RES1   0.0000
   165 H78      7.2768   0.6418   5.8501   H         1 RES1   0.0000
   166 C79      8.7680   2.7683  11.0018   C.3       1 RES1   0.0000
   167 H79      9.6993   3.0724  10.9736   H         1 RES1   0.0000
   168 H80      8.7361   1.8437  11.3236   H         1 RES1   0.0000
   169 H81      8.2542   3.3431  11.6061   H         1 RES1   0.0000
@<TRIPOS>BOND
     1     1     2    1
     2     2     3    1
     3     4     2    1
     4     5     1    1
     5     6     5    1
     6     7     5    1
     7     8     1    1
     8     9     1    1
     9    10     1    1
    10    11   126    2
    11    12     1    1
    12    13    82    2
    13    14     2    1
    14    15    14    1
    15    16    14    1
    16    17    14    1
    17    18    17    1
    18    19    17    1
    19    20    17    1
    20    21    20    1
    21    22    20    1
    22    23    20    1
    23    24    23    3
    24    25    24    1
    25    26     5    1
    26    27    26    1
    27    28    26    1
    28    29    26    1
    29    30    29    1
    30    31    29    1
    31    32    29    1
    32    33    32    1
    33    34    32    1
    34    35    32    1
    35    36    35    3
    36    37    36    1
    37    38     8   un
    38    39    38    1
    39    40    39   ar
    40    41    40   ar
    41    42    41    1
    42    43    41   ar
    43    44    43    1
    44    45    43   ar
    45    46    45    1
    46    47    39   ar
    47    48    40    1
    48    49    48   ar
    49    50    49    1
    50    51    49   ar
    51    52    51   ar
    52    53    52    1
    53    54    52   ar
    54    55    48   ar
    55    56    55    1
    56    57    51    1
    57    58    57    1
    58    59    57    1
    59    60    57    1
    60    61    54    1
    61    62    61    1
    62    63    61    1
    63    64    61    1
    64    65    47    1
    65    66    65   ar
    66    67    66    1
    67    68    66   ar
    68    69    68   ar
    69    70    69    1
    70    71    69   ar
    71    72    65   ar
    72    73    72    1
    73    74    68    1
    74    75    74    1
    75    76    74    1
    76    77    74    1
    77    78    71    1
    78    79    78    1
    79    80    78    1
    80    81    78    1
    81    82    12    1
    82    83    82    1
    83    84    83   ar
    84    85    84   ar
    85    86    85    1
    86    87    85   ar
    87    88    87    1
    88    89    87   ar
    89    90    89    1
    90    91    83   ar
    91    92    84    1
    92    93    92   ar
    93    94    93    1
    94    95    93   ar
    95    96    95   ar
    96    97    96    1
    97    98    96   ar
    98    99    92   ar
    99   100    99    1
   100   101    95    1
   101   102   101    1
   102   103   101    1
   103   104   101    1
   104   105    98    1
   105   106   105    1
   106   107   105    1
   107   108   105    1
   108   109    91    1
   109   110   109   ar
   110   111   110    1
   111   112   110   ar
   112   113   112   ar
   113   114   113    1
   114   115   113   ar
   115   116   109   ar
   116   117   116    1
   117   118   112    1
   118   119   118    1
   119   120   118    1
   120   121   118    1
   121   122   115    1
   122   123   122    1
   123   124   122    1
   124   125   122    1
   125   126    10    1
   126   127   126    1
   127   128   127   ar
   128   129   128   ar
   129   130   129    1
   130   131   129   ar
   131   132   131    1
   132   133   131   ar
   133   134   133    1
   134   135   127   ar
   135   136   128    1
   136   137   136   ar
   137   138   137    1
   138   139   137   ar
   139   140   139   ar
   140   141   140    1
   141   142   140   ar
   142   143   136   ar
   143   144   143    1
   144   145   139    1
   145   146   145    1
   146   147   145    1
   147   148   145    1
   148   149   142    1
   149   150   149    1
   150   151   149    1
   151   152   149    1
   152   153   135    1
   153   154   153   ar
   154   155   154    1
   155   156   154   ar
   156   157   156   ar
   157   158   157    1
   158   159   157   ar
   159   160   153   ar
   160   161   160    1
   161   162   156    1
   162   163   162    1
   163   164   162    1
   164   165   162    1
   165   166   159    1
   166   167   166    1
   167   168   166    1
   168   169   166    1
   169     9    38   un
   170    45    47   ar
   171    54    55   ar
   172    71    72   ar
   173    89    91   ar
   174    98    99   ar
   175   115   116   ar
   176   133   135   ar
   177   142   143   ar
   178   159   160   ar
@<TRIPOS>SUBSTRUCTURE
     1 RES1        1 GROUP             0 ****  ****    0  
@<TRIPOS>CRYSIN
   24.6380   13.3991   22.4464   90.0000  114.2280   90.0000    14     1
