@<TRIPOS>MOLECULE
YEGPUX
   104   110     5     0     0
SMALL
NO_CHARGES
****
Generated from the CSD

@<TRIPOS>ATOM
     1 Pr1      2.7296   0.5392   2.6969   Pr        1 RES1   0.0000
     2 Fe1      6.3473   3.6465   5.6915   Fe        1 RES1   0.0000
     3 O1       4.3654   5.5829   5.9805   O.2       1 RES1   0.0000
     4 O2       2.1000   2.9209   3.1334   O.3       1 RES1   0.0000
     5 O3       1.5992  -1.5421   1.8965   O.3       1 RES1   0.0000
     6 O4       1.6015   1.4092   0.3092   O.3       1 RES1   0.0000
     7 N1       5.1789   4.7620   5.8500   N.2       1 RES1   0.0000
     8 N2       4.6469   1.6252   4.1092   N.1       1 RES1   0.0000
     9 N3       3.7403  -1.4812   4.0542   N.1       1 RES1   0.0000
    10 N4       8.6193   1.5947   5.3186   N.1       1 RES1   0.0000
    11 N5       7.4189   4.8299   3.0578   N.1       1 RES1   0.0000
    12 N6       5.6639   2.0903   8.2642   N.1       1 RES1   0.0000
    13 N7       1.8506   0.6091   5.2705   N.ar      1 RES1   0.0000
    14 N8       0.0593   0.6492   3.1907   N.ar      1 RES1   0.0000
    15 N9       4.4651  -0.7323   1.0330   N.ar      1 RES1   0.0000
    16 N10      4.4867   2.0017   1.2048   N.ar      1 RES1   0.0000
    17 C1       5.2909   2.3824   4.6704   C.1       1 RES1   0.0000
    18 C2       4.3539  -2.1831   4.7001   C.1       1 RES1   0.0000
    19 C3       7.7829   2.3547   5.4697   C.1       1 RES1   0.0000
    20 C4       7.0265   4.3966   4.0382   C.1       1 RES1   0.0000
    21 C5       5.9219   2.6662   7.3113   C.1       1 RES1   0.0000
    22 C6       2.6921   0.5565   6.2920   C.ar      1 RES1   0.0000
    23 C7       2.3037   0.6257   7.6320   C.ar      1 RES1   0.0000
    24 C8       0.9636   0.6908   7.9023   C.ar      1 RES1   0.0000
    25 C9       0.0291   0.6991   6.8807   C.ar      1 RES1   0.0000
    26 C10      0.5171   0.6769   5.5568   C.ar      1 RES1   0.0000
    27 C11     -0.4150   0.6963   4.4757   C.ar      1 RES1   0.0000
    28 C12     -1.8028   0.7558   4.7551   C.ar      1 RES1   0.0000
    29 C13     -2.7063   0.8057   3.6534   C.ar      1 RES1   0.0000
    30 C14     -2.2149   0.7586   2.4165   C.ar      1 RES1   0.0000
    31 C15     -0.8247   0.6783   2.2081   C.ar      1 RES1   0.0000
    32 C16     -1.3758   0.7531   7.1189   C.ar      1 RES1   0.0000
    33 C17     -2.2608   0.7863   6.1065   C.ar      1 RES1   0.0000
    34 C18      4.5600  -2.0336   0.9758   C.ar      1 RES1   0.0000
    35 C19      5.2288  -2.7271  -0.0344   C.ar      1 RES1   0.0000
    36 C20      5.7937  -2.0294  -1.0536   C.ar      1 RES1   0.0000
    37 C21      5.7474  -0.6271  -1.0376   C.ar      1 RES1   0.0000
    38 C22      5.0744  -0.0138   0.0275   C.ar      1 RES1   0.0000
    39 C23      5.0630   1.4341   0.1237   C.ar      1 RES1   0.0000
    40 C24      5.6827   2.1914  -0.8910   C.ar      1 RES1   0.0000
    41 C25      5.7032   3.5701  -0.7490   C.ar      1 RES1   0.0000
    42 C26      5.1455   4.1432   0.3321   C.ar      1 RES1   0.0000
    43 C27      4.5434   3.3251   1.2964   C.ar      1 RES1   0.0000
    44 C28      6.3519   0.1855  -2.0615   C.ar      1 RES1   0.0000
    45 C29      6.3314   1.5020  -1.9836   C.ar      1 RES1   0.0000
    46 C30      0.6970   2.2661  -0.7811   C.3       1 RES1   0.0000
    47 H1       3.6214   0.4817   6.1065   H         1 RES1   0.0000
    48 H2       2.9578   0.6188   8.3375   H         1 RES1   0.0000
    49 H3       0.6665   0.7323   8.8231   H         1 RES1   0.0000
    50 H4      -3.6437   0.8569   3.8435   H         1 RES1   0.0000
    51 H5      -2.8228   0.7558   1.6675   H         1 RES1   0.0000
    52 H6      -0.5081   0.6617   1.2827   H         1 RES1   0.0000
    53 H7      -1.7235   0.7724   7.9939   H         1 RES1   0.0000
    54 H8      -3.1834   0.8347   6.3149   H         1 RES1   0.0000
    55 H9       4.1766  -2.5457   1.6996   H         1 RES1   0.0000
    56 H10      5.2941  -3.6892  -0.0115   H         1 RES1   0.0000
    57 H11      6.2100  -2.4751  -1.7843   H         1 RES1   0.0000
    58 H12      6.1138   4.0893  -1.4522   H         1 RES1   0.0000
    59 H13      5.1684   5.0790   0.4696   H         1 RES1   0.0000
    60 H14      4.1762   3.7279   2.0867   H         1 RES1   0.0000
    61 H15      6.7939  -0.2519  -2.8128   H         1 RES1   0.0000
    62 H16      6.7616   2.0460  -2.6570   H         1 RES1   0.0000
    63 H17      0.9911   3.2185  -0.7375   H         1 RES1   0.0000
    64 H18      0.8211   1.9685  -1.6400   H         1 RES1   0.0000
    65 H19     -0.2142   2.2633  -0.5245   H         1 RES1   0.0000
    66 Fe1A     5.5717  -3.2750   5.7611   Fe        1 RES1   0.0000
    67 C2A      7.5650   4.7385   6.7524   C.3       1 RES1   0.0000
    68 O5       1.8542  -4.1862   1.9217   O.2       2 RES2   0.0000
    69 N11      2.4205  -6.3471   2.3478   N.am      2 RES2   0.0000
    70 C31      2.4440  -5.0403   2.5997   C.2       2 RES2   0.0000
    71 C32      3.1109  -7.2829   3.1472   C.3       2 RES2   0.0000
    72 C33      1.8477  -6.8980   1.2231   C.3       2 RES2   0.0000
    73 H20      2.8589  -4.7454   3.3831   H         2 RES2   0.0000
    74 H21      2.8315  -7.2150   4.1275   H         2 RES2   0.0000
    75 H22      3.0355  -8.1730   2.9250   H         2 RES2   0.0000
    76 H23      4.0761  -7.0600   3.2159   H         2 RES2   0.0000
    77 H24      0.7978  -6.6170   1.2392   H         2 RES2   0.0000
    78 H25      2.1053  -6.4744   0.4169   H         2 RES2   0.0000
    79 H26      1.8039  -7.7964   1.1727   H         2 RES2   0.0000
    80 O6       7.0751   7.0309   1.3331   O.3       3 RES3   0.0000
    81 O7       5.3286   7.5860  -0.8727   O.3       4 RES4   0.0000
    82 C34      5.2953   7.7106   0.6642   C.3       4 RES4   0.0000
    83 N12      0.8083   4.0062   5.3392   N.ar      5 RES5   0.0000
    84 N13     -0.3913   4.0477   2.8059   N.ar      5 RES5   0.0000
    85 C35      1.3039   4.0450   6.5463   C.ar      5 RES5   0.0000
    86 C36      0.5670   4.1308   7.7259   C.ar      5 RES5   0.0000
    87 C37     -0.8090   4.1986   7.6114   C.ar      5 RES5   0.0000
    88 C38     -1.3918   4.1903   6.3699   C.ar      5 RES5   0.0000
    89 C39     -0.5615   4.1045   5.2155   C.ar      5 RES5   0.0000
    90 C40     -1.1735   4.1349   3.9214   C.ar      5 RES5   0.0000
    91 C41     -2.5766   4.2374   3.8274   C.ar      5 RES5   0.0000
    92 C42     -3.1342   4.3232   2.5471   C.ar      5 RES5   0.0000
    93 C43     -2.3491   4.2678   1.4453   C.ar      5 RES5   0.0000
    94 C44     -0.9932   4.1294   1.6011   C.ar      5 RES5   0.0000
    95 C45     -2.8150   4.2609   6.2004   C.ar      5 RES5   0.0000
    96 C46     -3.3726   4.2817   5.0025   C.ar      5 RES5   0.0000
    97 H27      2.2542   4.0187   6.6173   H         5 RES5   0.0000
    98 H28      0.9586   4.2221   8.5871   H         5 RES5   0.0000
    99 H29     -1.3859   4.2263   8.4062   H         5 RES5   0.0000
   100 H30     -4.0979   4.4298   2.4646   H         5 RES5   0.0000
   101 H31     -2.7541   4.2872   0.5589   H         5 RES5   0.0000
   102 H32     -0.4358   4.1377   0.8108   H         5 RES5   0.0000
   103 H33     -3.3876   4.3204   6.9815   H         5 RES5   0.0000
   104 H34     -4.3106   4.3384   4.9475   H         5 RES5   0.0000
@<TRIPOS>BOND
     1     1     4    1
     2     2     7    1
     3     3     7    2
     4     5     1    1
     5     6     1    1
     6     8     1    1
     7     9     1    1
     8    10    19    3
     9    11    20    3
    10    12    21    3
    11    13     1    1
    12    14     1    1
    13    15     1    1
    14    16     1    1
    15    17     2    1
    16    18     9    3
    17    19     2    1
    18    20     2    1
    19    21     2    1
    20    22    13   ar
    21    23    22   ar
    22    24    23   ar
    23    25    24   ar
    24    26    13   ar
    25    27    14   ar
    26    28    27   ar
    27    29    28   ar
    28    30    29   ar
    29    31    14   ar
    30    32    25   ar
    31    33    28   ar
    32    34    15   ar
    33    35    34   ar
    34    36    35   ar
    35    37    36   ar
    36    38    15   ar
    37    39    16   ar
    38    40    39   ar
    39    41    40   ar
    40    42    41   ar
    41    43    16   ar
    42    44    37   ar
    43    45    40   ar
    44    46     6    1
    45    47    22    1
    46    48    23    1
    47    49    24    1
    48    50    29    1
    49    51    30    1
    50    52    31    1
    51    53    32    1
    52    54    33    1
    53    55    34    1
    54    56    35    1
    55    57    36    1
    56    58    41    1
    57    59    42    1
    58    60    43    1
    59    61    44    1
    60    62    45    1
    61    63    46    1
    62    64    46    1
    63    65    46    1
    64    66    18   un
    65    67     2   un
    66     8    17    3
    67    25    26   ar
    68    26    27   ar
    69    30    31   ar
    70    32    33   ar
    71    37    38   ar
    72    38    39   ar
    73    42    43   ar
    74    44    45   ar
    75    68    70    2
    76    69    70   am
    77    70    73    1
    78    71    69    1
    79    72    69    1
    80    74    71    1
    81    75    71    1
    82    76    71    1
    83    77    72    1
    84    78    72    1
    85    79    72    1
    86    81    82    1
    87    83    85   ar
    88    84    90   ar
    89    85    86   ar
    90    86    87   ar
    91    87    88   ar
    92    88    89   ar
    93    89    83   ar
    94    90    89   ar
    95    91    90   ar
    96    92    91   ar
    97    93    92   ar
    98    94    84   ar
    99    95    88   ar
   100    96    91   ar
   101    97    85    1
   102    98    86    1
   103    99    87    1
   104   100    92    1
   105   101    93    1
   106   102    94    1
   107   103    95    1
   108   104    96    1
   109    93    94   ar
   110    95    96   ar
@<TRIPOS>SUBSTRUCTURE
     1 RES1        1 GROUP             0 ****  ****    0  
     2 RES2       68 GROUP             0 ****  ****    0  
     3 RES3       80 GROUP             0 ****  ****    0  
     4 RES4       81 GROUP             0 ****  ****    0  
     5 RES5       83 GROUP             0 ****  ****    0  
@<TRIPOS>CRYSIN
   14.2980   13.8431   23.3941   90.0000  101.7350   90.0000    14     1
