@<TRIPOS>MOLECULE
YEQKIR
   102   106     2     0     0
SMALL
USER_CHARGES
****
Generated from the CSD

@<TRIPOS>ATOM
     1 Fe1      4.2335   0.0000   5.2560   Fe        1 RES1   2.0000
     2 N1       4.9737   1.3158   6.8099   N.2       1 RES1   0.0000
     3 N2       5.8509   0.8632   7.7609   N.2       1 RES1   0.0000
     4 N3       6.3913   1.8647   8.3638   N.2       1 RES1   0.0000
     5 N4       5.8759   2.9862   7.8133   N.pl3     1 RES1   0.0000
     6 C1       5.0117   2.6298   6.8738   C.2       1 RES1   0.0000
     7 H1       4.5029   3.2246   6.3356   H         1 RES1   0.0000
     8 C2       6.2758   4.3174   8.3129   C.3       1 RES1   0.0000
     9 H2       5.8138   5.0211   7.7747   H         1 RES1   0.0000
    10 C3       7.7720   4.4803   8.1616   C.3       1 RES1   0.0000
    11 H3       8.2305   3.7926   8.6872   H         1 RES1   0.0000
    12 H4       8.0382   5.3677   8.4822   H         1 RES1   0.0000
    13 H5       8.0162   4.3878   7.2176   H         1 RES1   0.0000
    14 C4       5.8574   4.4457   9.7594   C.3       1 RES1   0.0000
    15 H6       4.8802   4.4150   9.8214   H         1 RES1   0.0000
    16 H7       6.1810   5.2987  10.1189   H         1 RES1   0.0000
    17 H8       6.2409   3.7073  10.2776   H         1 RES1   0.0000
    18 N5       3.2100   1.6876   4.3363   N.2       1 RES1   0.0000
    19 N6       1.9819   2.1304   4.7328   N.2       1 RES1   0.0000
    20 N7       1.5198   2.9795   3.8771   N.2       1 RES1   0.0000
    21 N8       2.4535   3.1021   2.9070   N.pl3     1 RES1   0.0000
    22 C5       3.4696   2.3084   3.2044   C.2       1 RES1   0.0000
    23 H9       4.2584   2.2030   2.6858   H         1 RES1   0.0000
    24 C6       2.2403   3.9773   1.7352   C.3       1 RES1   0.0000
    25 H10      3.1154   4.0793   1.2625   H         1 RES1   0.0000
    26 C7       1.7931   5.3536   2.1981   C.3       1 RES1   0.0000
    27 H11      0.9062   5.2879   2.6112   H         1 RES1   0.0000
    28 H12      1.7498   5.9593   1.4286   H         1 RES1   0.0000
    29 H13      2.4330   5.7016   2.8519   H         1 RES1   0.0000
    30 C8       1.2684   3.3250   0.7831   C.3       1 RES1   0.0000
    31 H14      1.5835   2.4244   0.5613   H         1 RES1   0.0000
    32 H15      1.2045   3.8597  -0.0357   H         1 RES1   0.0000
    33 H16      0.3857   3.2682   1.2057   H         1 RES1   0.0000
    34 N9       6.0461   0.4235   4.0940   N.2       1 RES1   0.0000
    35 N10      7.0005   1.2566   4.5864   N.2       1 RES1   0.0000
    36 N11      8.0989   1.1184   3.9274   N.2       1 RES1   0.0000
    37 N12      7.8770   0.1742   2.9952   N.pl3     1 RES1   0.0000
    38 C9       6.6185  -0.2294   3.1037   C.2       1 RES1   0.0000
    39 H17      6.1984  -0.8819   2.5565   H         1 RES1   0.0000
    40 C10      8.9486  -0.2524   2.0637   C.3       1 RES1   0.0000
    41 H18      8.6591  -1.1051   1.6283   H         1 RES1   0.0000
    42 C11     10.2167  -0.5288   2.8351   C.3       1 RES1   0.0000
    43 H19     10.5611   0.3085   3.2093   H         1 RES1   0.0000
    44 H20     10.8875  -0.9164   2.2338   H         1 RES1   0.0000
    45 H21     10.0268  -1.1577   3.5625   H         1 RES1   0.0000
    46 C12      9.1234   0.7901   0.9829   C.3       1 RES1   0.0000
    47 H22      8.2704   0.9291   0.5214   H         1 RES1   0.0000
    48 H23      9.7974   0.4845   0.3406   H         1 RES1   0.0000
    49 H24      9.4177   1.6332   1.3876   H         1 RES1   0.0000
    50 N1B      3.4934  -1.3158   3.7021   N.2       1 RES1   0.0000
    51 N2B      2.6161  -0.8632   2.7511   N.2       1 RES1   0.0000
    52 N3B      2.0757  -1.8647   2.1482   N.2       1 RES1   0.0000
    53 N4B      2.5912  -2.9862   2.6988   N.pl3     1 RES1   0.0000
    54 C1B      3.4554  -2.6298   3.6382   C.2       1 RES1   0.0000
    55 H1B      3.9642  -3.2246   4.1764   H         1 RES1   0.0000
    56 C2B      2.1912  -4.3174   2.1991   C.3       1 RES1   0.0000
    57 H2B      2.6533  -5.0211   2.7373   H         1 RES1   0.0000
    58 C3B      0.6951  -4.4803   2.3505   C.3       1 RES1   0.0000
    59 H3B      0.2366  -3.7926   1.8249   H         1 RES1   0.0000
    60 H4B      0.4289  -5.3677   2.0299   H         1 RES1   0.0000
    61 H5B      0.4509  -4.3878   3.2945   H         1 RES1   0.0000
    62 C4B      2.6096  -4.4457   0.7527   C.3       1 RES1   0.0000
    63 H6B      3.5868  -4.4150   0.6906   H         1 RES1   0.0000
    64 H7B      2.2861  -5.2987   0.3932   H         1 RES1   0.0000
    65 H8B      2.2262  -3.7073   0.2344   H         1 RES1   0.0000
    66 N5B      5.2571  -1.6876   6.1757   N.2       1 RES1   0.0000
    67 N6B      6.4852  -2.1304   5.7792   N.2       1 RES1   0.0000
    68 N7B      6.9473  -2.9795   6.6350   N.2       1 RES1   0.0000
    69 N8B      6.0136  -3.1021   7.6051   N.pl3     1 RES1   0.0000
    70 C5B      4.9975  -2.3084   7.3077   C.2       1 RES1   0.0000
    71 H9B      4.2086  -2.2030   7.8262   H         1 RES1   0.0000
    72 C6B      6.2267  -3.9773   8.7768   C.3       1 RES1   0.0000
    73 H10B     5.3517  -4.0793   9.2496   H         1 RES1   0.0000
    74 C7B      6.6740  -5.3536   8.3140   C.3       1 RES1   0.0000
    75 H11B     7.5609  -5.2879   7.9009   H         1 RES1   0.0000
    76 H12B     6.7173  -5.9593   9.0835   H         1 RES1   0.0000
    77 H13B     6.0341  -5.7016   7.6601   H         1 RES1   0.0000
    78 C8B      7.1987  -3.3250   9.7289   C.3       1 RES1   0.0000
    79 H14B     6.8836  -2.4244   9.9507   H         1 RES1   0.0000
    80 H15B     7.2626  -3.8597  10.5478   H         1 RES1   0.0000
    81 H16B     8.0814  -3.2682   9.3063   H         1 RES1   0.0000
    82 N9B      2.4209  -0.4235   6.4180   N.2       1 RES1   0.0000
    83 N10B     1.4666  -1.2566   5.9256   N.2       1 RES1   0.0000
    84 N11B     0.3682  -1.1184   6.5846   N.2       1 RES1   0.0000
    85 N12B     0.5901  -0.1742   7.5169   N.pl3     1 RES1   0.0000
    86 C9B      1.8485   0.2294   7.4084   C.2       1 RES1   0.0000
    87 H17B     2.2686   0.8819   7.9555   H         1 RES1   0.0000
    88 C10B    -0.4815   0.2524   8.4483   C.3       1 RES1   0.0000
    89 H18B    -0.1921   1.1051   8.8837   H         1 RES1   0.0000
    90 C11B    -1.7496   0.5288   7.6770   C.3       1 RES1   0.0000
    91 H19B    -2.0941  -0.3085   7.3027   H         1 RES1   0.0000
    92 H20B    -2.4204   0.9164   8.2782   H         1 RES1   0.0000
    93 H21B    -1.5598   1.1577   6.9495   H         1 RES1   0.0000
    94 C12B    -0.6563  -0.7901   9.5292   C.3       1 RES1   0.0000
    95 H22B     0.1967  -0.9291   9.9907   H         1 RES1   0.0000
    96 H23B    -1.3304  -0.4845  10.1715   H         1 RES1   0.0000
    97 H24B    -0.9506  -1.6332   9.1245   H         1 RES1   0.0000
    98 B1       3.9976   6.4089   5.2823   B         2 RES2  -1.0000
    99 F1       4.6531   6.6864   6.4760   F         2 RES2   0.0000
   100 F2       4.7474   6.8354   4.1977   F         2 RES2   0.0000
   101 F3       3.7935   5.0217   5.1962   F         2 RES2   0.0000
   102 F4       2.7618   7.0477   5.2744   F         2 RES2   0.0000
@<TRIPOS>BOND
     1     1     2    1
     2     2     3    1
     3     3     4    2
     4     4     5    1
     5     5     6    1
     6     6     2    2
     7     7     6    1
     8     8     5    1
     9     9     8    1
    10    10     8    1
    11    11    10    1
    12    12    10    1
    13    13    10    1
    14    14     8    1
    15    15    14    1
    16    16    14    1
    17    17    14    1
    18    18     1    1
    19    19    18    1
    20    20    19    2
    21    21    20    1
    22    22    18    2
    23    23    22    1
    24    24    21    1
    25    25    24    1
    26    26    24    1
    27    27    26    1
    28    28    26    1
    29    29    26    1
    30    30    24    1
    31    31    30    1
    32    32    30    1
    33    33    30    1
    34    34     1    1
    35    35    34    1
    36    36    35    2
    37    37    36    1
    38    38    34    2
    39    39    38    1
    40    40    37    1
    41    41    40    1
    42    42    40    1
    43    43    42    1
    44    44    42    1
    45    45    42    1
    46    46    40    1
    47    47    46    1
    48    48    46    1
    49    49    46    1
    50    50     1    1
    51    51    50    1
    52    52    51    2
    53    53    52    1
    54    54    50    2
    55    55    54    1
    56    56    53    1
    57    57    56    1
    58    58    56    1
    59    59    58    1
    60    60    58    1
    61    61    58    1
    62    62    56    1
    63    63    62    1
    64    64    62    1
    65    65    62    1
    66    66     1    1
    67    67    66    1
    68    68    67    2
    69    69    68    1
    70    70    66    2
    71    71    70    1
    72    72    69    1
    73    73    72    1
    74    74    72    1
    75    75    74    1
    76    76    74    1
    77    77    74    1
    78    78    72    1
    79    79    78    1
    80    80    78    1
    81    81    78    1
    82    82     1    1
    83    83    82    1
    84    84    83    2
    85    85    84    1
    86    86    82    2
    87    87    86    1
    88    88    85    1
    89    89    88    1
    90    90    88    1
    91    91    90    1
    92    92    90    1
    93    93    90    1
    94    94    88    1
    95    95    94    1
    96    96    94    1
    97    97    94    1
    98    21    22    1
    99    37    38    1
   100    53    54    1
   101    69    70    1
   102    85    86    1
   103    98    99    1
   104   100    98    1
   105   101    98    1
   106   102    98    1
@<TRIPOS>SUBSTRUCTURE
     1 RES1        1 GROUP             0 ****  ****    0  
     2 RES2       98 GROUP             0 ****  ****    0  
@<TRIPOS>CRYSIN
   11.3249   18.1464   10.8936   90.0000  105.2090   90.0000    14     1
