@<TRIPOS>MOLECULE
YEVHUF
   113   123     4     0     0
SMALL
USER_CHARGES
****
Generated from the CSD

@<TRIPOS>ATOM
     1 O1      -2.1659   2.6656  13.2296   O.3       1 RES1   0.0000
     2 H1      -2.8996   2.3126  13.0232   H         1 RES1   0.0000
     3 C1      -1.6903   3.4323  12.1439   C.3       1 RES1   0.0000
     4 H2      -1.5914   4.3673  12.4224   H         1 RES1   0.0000
     5 H3      -2.3271   3.3782  11.4018   H         1 RES1   0.0000
     6 H4      -0.8211   3.0848  11.8548   H         1 RES1   0.0000
     7 Fe1      6.4172  -2.2366  14.9590   Fe        2 RES2   2.0000
     8 N1       5.5606  -0.6182  15.6991   N.ar      2 RES2   0.0000
     9 N2       5.8740  -1.8063  13.1066   N.ar      2 RES2   0.0000
    10 N3       7.2603  -3.9259  14.3702   N.ar      2 RES2   0.0000
    11 N4       6.9836  -2.4857  16.8413   N.ar      2 RES2   0.0000
    12 N5       8.0069  -1.1903  14.4719   N.ar      2 RES2   0.0000
    13 N6       4.8619  -3.4120  15.2710   N.ar      2 RES2   0.0000
    14 C2       8.9515  -5.4440  13.5957   C.ar      2 RES2   0.0000
    15 H5       9.8373  -5.5642  13.2739   H         2 RES2   0.0000
    16 C3       7.7489   0.1165  10.5278   C.ar      2 RES2   0.0000
    17 H6       7.6662   0.4261   9.6327   H         2 RES2   0.0000
    18 C4       8.4859  -4.1582  13.8991   C.ar      2 RES2   0.0000
    19 H7       9.0687  -3.4199  13.7638   H         2 RES2   0.0000
    20 C5       5.7406  -0.4848  17.0450   C.ar      2 RES2   0.0000
    21 C6       7.9856  -0.7456  13.1826   C.ar      2 RES2   0.0000
    22 C7       3.6463  -3.1138  15.7320   C.ar      2 RES2   0.0000
    23 H8       3.4495  -2.2104  15.9509   H         2 RES2   0.0000
    24 C8       7.7225  -3.4471  17.3936   C.ar      2 RES2   0.0000
    25 H9       8.0354  -4.1557  16.8432   H         2 RES2   0.0000
    26 C9      10.1725   0.2216  13.3774   C.ar      2 RES2   0.0000
    27 H10     10.9188   0.6832  13.0154   H         2 RES2   0.0000
    28 C10      9.0864  -0.9027  15.2015   C.ar      2 RES2   0.0000
    29 H11      9.1123  -1.1815  16.1083   H         2 RES2   0.0000
    30 C11      4.8987   0.3580  15.0720   C.ar      2 RES2   0.0000
    31 H12      4.7806   0.3000  14.1313   H         2 RES2   0.0000
    32 C12      4.7632  -2.1162  12.4413   C.ar      2 RES2   0.0000
    33 H13      4.1004  -2.6381  12.8793   H         2 RES2   0.0000
    34 C13      2.6499  -4.0813  15.9060   C.ar      2 RES2   0.0000
    35 H14      1.7965  -3.8273  16.2367   H         2 RES2   0.0000
    36 C14      6.2235  -0.3669  19.8059   C.ar      2 RES2   0.0000
    37 H15      6.3816  -0.3243  20.7410   H         2 RES2   0.0000
    38 C15      8.8807   0.3800  11.2201   C.ar      2 RES2   0.0000
    39 H16      9.5881   0.8504  10.7953   H         2 RES2   0.0000
    40 C16     10.1810  -0.2042  14.6791   C.ar      2 RES2   0.0000
    41 H17     10.9333  -0.0240  15.2296   H         2 RES2   0.0000
    42 C17      5.2214   0.5730  17.8012   C.ar      2 RES2   0.0000
    43 C18      6.4340  -5.0058  14.5067   C.ar      2 RES2   0.0000
    44 C19      9.0316  -0.0376  12.5832   C.ar      2 RES2   0.0000
    45 C20      5.4749  -0.9600  10.4553   C.ar      2 RES2   0.0000
    46 H18      5.3244  -0.6769   9.5608   H         2 RES2   0.0000
    47 C21      6.8147  -1.0643  12.4401   C.ar      2 RES2   0.0000
    48 C22      2.9009  -5.3983  15.6000   C.ar      2 RES2   0.0000
    49 H19      2.2250  -6.0569  15.7079   H         2 RES2   0.0000
    50 C23      8.1319  -6.5262  13.7617   C.ar      2 RES2   0.0000
    51 H20      8.4473  -7.4034  13.5772   H         2 RES2   0.0000
    52 C24      6.7882  -1.4426  19.0406   C.ar      2 RES2   0.0000
    53 C25      8.0547  -3.4533  18.7538   C.ar      2 RES2   0.0000
    54 H21      8.5984  -4.1487  19.1061   H         2 RES2   0.0000
    55 C26      6.8150  -6.3207  14.2098   C.ar      2 RES2   0.0000
    56 C27      4.1774  -5.7548  15.1243   C.ar      2 RES2   0.0000
    57 C28      6.5197  -1.5007  17.6704   C.ar      2 RES2   0.0000
    58 C29      5.1218  -4.7230  14.9810   C.ar      2 RES2   0.0000
    59 C30      4.5065   1.5688  17.1021   C.ar      2 RES2   0.0000
    60 H22      4.1242   2.3027  17.5683   H         2 RES2   0.0000
    61 C31      6.6694  -0.6231  11.1203   C.ar      2 RES2   0.0000
    62 C32      4.5323  -1.7032  11.1197   C.ar      2 RES2   0.0000
    63 H23      3.7212  -1.9388  10.6845   H         2 RES2   0.0000
    64 C33      5.8305  -7.3581  14.3552   C.ar      2 RES2   0.0000
    65 H24      6.0687  -8.2536  14.1449   H         2 RES2   0.0000
    66 C34      4.5769  -7.0955  14.7831   C.ar      2 RES2   0.0000
    67 H25      3.9490  -7.8045  14.8603   H         2 RES2   0.0000
    68 C35      4.3731   1.4633  15.7520   C.ar      2 RES2   0.0000
    69 H26      3.9205   2.1434  15.2685   H         2 RES2   0.0000
    70 C36      7.5995  -2.4603  19.5765   C.ar      2 RES2   0.0000
    71 H27      7.8274  -2.4573  20.4980   H         2 RES2   0.0000
    72 C37      5.4695   0.5882  19.2124   C.ar      2 RES2   0.0000
    73 H28      5.0977   1.2831  19.7418   H         2 RES2   0.0000
    74 F1      -1.5201   3.1879  17.0020   F         3 RES3   0.0000
    75 F2       0.3888   1.4163  17.1599   F         3 RES3   0.0000
    76 C38     -1.0913   2.8523  18.2390   C.2       3 RES3   0.0000
    77 C39     -3.0111   5.3562  20.3234   C.1       3 RES3   0.0000
    78 N7      -4.1227   4.9918  17.1737   N.1       3 RES3   0.0000
    79 C40     -3.4629   4.7414  18.0932   C.1       3 RES3   0.0000
    80 N8      -3.2969   6.1108  21.1537   N.1       3 RES3   0.0000
    81 C41     -0.0957   1.9048  18.3267   C.2       3 RES3   0.0000
    82 C42     -1.6630   3.4784  19.3491   C.2       3 RES3   0.0000
    83 C43     -2.7154   4.4895  19.2593   C.2       3 RES3  -1.0000
    84 F1A      0.3066   1.7467  21.8789   F         3 RES3   0.0000
    85 F2A     -1.6023   3.5184  21.7210   F         3 RES3   0.0000
    86 C38A    -0.1222   2.0823  20.6419   C.2       3 RES3   0.0000
    87 C39A     1.7976  -0.4215  18.5575   C.1       3 RES3   0.0000
    88 N7A      2.9092  -0.0572  21.7072   N.1       3 RES3   0.0000
    89 C40A     2.2494   0.1933  20.7877   C.1       3 RES3   0.0000
    90 N8A      2.0834  -1.1762  17.7272   N.1       3 RES3   0.0000
    91 C41A    -1.1178   3.0299  20.5542   C.2       3 RES3   0.0000
    92 C42A     0.4495   1.4562  19.5318   C.2       3 RES3   0.0000
    93 C43A     1.5019   0.4452  19.6216   C.2       3 RES3  -1.0000
    94 F3       0.6217   1.8021   8.3104   F         4 RES4   0.0000
    95 F4      -1.3652   3.5323   8.3217   F         4 RES4   0.0000
    96 N9       3.7315   0.6981   7.8417   N.1       4 RES4   0.0000
    97 C44      0.7835   2.9545   9.0075   C.2       4 RES4   0.0000
    98 C45      1.9494   3.1366   9.7544   C.2       4 RES4   0.0000
    99 N10      4.2168   1.7966  12.0820   N.1       4 RES4   0.0000
   100 C46     -0.2407   3.8654   8.9906   C.2       4 RES4   0.0000
   101 C47      3.0241   2.1451   9.8394   C.2       4 RES4  -1.0000
   102 C48      3.4042   1.3551   8.7398   C.1       4 RES4   0.0000
   103 C49      3.7055   1.9621  11.0519   C.1       4 RES4   0.0000
   104 F3A      1.1207   6.4074  11.1300   F         4 RES4   0.0000
   105 F4A      3.1075   4.6772  11.1188   F         4 RES4   0.0000
   106 N9A     -1.9892   7.5114  11.5988   N.1       4 RES4   0.0000
   107 C44A     0.9588   5.2550  10.4329   C.2       4 RES4   0.0000
   108 C45A    -0.2071   5.0729   9.6860   C.2       4 RES4   0.0000
   109 N10A    -2.4745   6.4129   7.3584   N.1       4 RES4   0.0000
   110 C46A     1.9831   4.3441  10.4498   C.2       4 RES4   0.0000
   111 C47A    -1.2817   6.0644   9.6011   C.2       4 RES4  -1.0000
   112 C48A    -1.6618   6.8544  10.7006   C.1       4 RES4   0.0000
   113 C49A    -1.9632   6.2474   8.3886   C.1       4 RES4   0.0000
@<TRIPOS>BOND
     1     1     2    1
     2     3     1    1
     3     4     3    1
     4     5     3    1
     5     6     3    1
     6     7     8    1
     7     8    20   ar
     8     9     7    1
     9    10     7    1
    10    11     7    1
    11    12     7    1
    12    13     7    1
    13    14    15    1
    14    16    17    1
    15    18    10   ar
    16    19    18    1
    17    20    42   ar
    18    21    12   ar
    19    22    13   ar
    20    23    22    1
    21    24    11   ar
    22    25    24    1
    23    26    27    1
    24    28    12   ar
    25    29    28    1
    26    30     8   ar
    27    31    30    1
    28    32     9   ar
    29    33    32    1
    30    34    22   ar
    31    35    34    1
    32    36    37    1
    33    38    16   ar
    34    39    38    1
    35    40    26   ar
    36    41    40    1
    37    42    59   ar
    38    43    10   ar
    39    44    21   ar
    40    45    46    1
    41    47     9   ar
    42    48    34   ar
    43    49    48    1
    44    50    14   ar
    45    51    50    1
    46    52    36   ar
    47    53    24   ar
    48    54    53    1
    49    55    43   ar
    50    56    48   ar
    51    57    11   ar
    52    58    13   ar
    53    59    60    1
    54    61    16   ar
    55    62    32   ar
    56    63    62    1
    57    64    55   ar
    58    65    64    1
    59    66    56   ar
    60    67    66    1
    61    68    30   ar
    62    69    68    1
    63    70    52   ar
    64    71    70    1
    65    72    36   ar
    66    73    72    1
    67    14    18   ar
    68    20    57   ar
    69    21    47   ar
    70    26    44   ar
    71    28    40   ar
    72    38    44   ar
    73    42    72   ar
    74    43    58   ar
    75    45    61   ar
    76    45    62   ar
    77    47    61   ar
    78    50    55   ar
    79    52    57   ar
    80    53    70   ar
    81    56    58   ar
    82    59    68   ar
    83    64    66   ar
    84    74    76    1
    85    75    81    1
    86    76    81    2
    87    77    80    3
    88    78    79    3
    89    79    83    1
    90    81    92    1
    91    82    76    1
    92    83    77    1
    93    84    86    1
    94    85    91    1
    95    86    91    2
    96    87    90    3
    97    88    89    3
    98    89    93    1
    99    91    82    1
   100    92    86    1
   101    93    87    1
   102    82    83    2
   103    92    93    2
   104    94    97    1
   105    95   100    1
   106    96   102    3
   107    97    98    1
   108    98   101    2
   109    99   103    3
   110   100    97    2
   111   101   102    1
   112   103   101    1
   113   104   107    1
   114   105   110    1
   115   106   112    3
   116   107   108    1
   117   108   100    1
   118   109   113    3
   119   110    98    1
   120   111   108    2
   121   112   111    1
   122   113   111    1
   123   107   110    2
@<TRIPOS>SUBSTRUCTURE
     1 RES1        1 GROUP             0 ****  ****    0  
     2 RES2        7 GROUP             0 ****  ****    0  
     3 RES3       74 GROUP             0 ****  ****    0  
     4 RES4       94 GROUP             0 ****  ****    0  
@<TRIPOS>CRYSIN
    8.8872   12.2245   19.9347   95.9420   98.5270  110.0400     2     1
