@<TRIPOS>MOLECULE
YIBRIO
   109   118     1     0     0
SMALL
NO_CHARGES
****
Generated from the CSD

@<TRIPOS>ATOM
     1 Fe1      0.0000   7.0615   1.5149   Fe        1 RES1   0.0000
     2 P1       1.4381   5.8233   0.2835   P.3       1 RES1   0.0000
     3 P2       1.3064   5.6774   2.7606   P.3       1 RES1   0.0000
     4 N1       2.0930   4.9459   1.4993   N.3       1 RES1   0.0000
     5 H1       2.6805   4.2906   1.4868   H         1 RES1   0.0000
     6 C1      -2.8387   3.6000   1.5027   C.3       1 RES1   0.0000
     7 H2      -3.1014   3.3923   0.5813   H         1 RES1   0.0000
     8 H3      -3.6381   3.7963   2.0339   H         1 RES1   0.0000
     9 H4      -2.3698   2.8317   1.8895   H         1 RES1   0.0000
    10 N2      -1.2456   5.6619   1.5016   N.1       1 RES1   0.0000
    11 C2      -1.9589   4.7552   1.5061   C.1       1 RES1   0.0000
    12 C3       2.7582   6.6604  -0.6074   C.ar      1 RES1   0.0000
    13 C4       4.0702   6.1590  -0.5073   C.ar      1 RES1   0.0000
    14 H5       4.2468   5.4119   0.0523   H         1 RES1   0.0000
    15 C5       5.1238   6.7550  -1.2331   C.ar      1 RES1   0.0000
    16 H6       5.9924   6.3723  -1.2240   H         1 RES1   0.0000
    17 C6       4.8753   7.8806  -1.9429   C.ar      1 RES1   0.0000
    18 H7       5.5927   8.3043  -2.4002   H         1 RES1   0.0000
    19 C7       3.6155   8.4328  -2.0225   C.ar      1 RES1   0.0000
    20 H8       3.4686   9.2280  -2.5231   H         1 RES1   0.0000
    21 C8       2.5732   7.8157  -1.3662   C.ar      1 RES1   0.0000
    22 H9       1.7018   8.1885  -1.4322   H         1 RES1   0.0000
    23 C9       0.8403   4.6705  -0.9601   C.ar      1 RES1   0.0000
    24 C10      0.8149   4.9897  -2.3411   C.ar      1 RES1   0.0000
    25 H10      1.1637   5.8173  -2.6505   H         1 RES1   0.0000
    26 C11      0.2697   4.0745  -3.2409   C.ar      1 RES1   0.0000
    27 H11      0.2810   4.2651  -4.1714   H         1 RES1   0.0000
    28 C12     -0.2853   2.8924  -2.7927   C.ar      1 RES1   0.0000
    29 H12     -0.6920   2.3049  -3.4194   H         1 RES1   0.0000
    30 C13     -0.2655   2.5492  -1.4913   C.ar      1 RES1   0.0000
    31 H13     -0.6144   1.7145  -1.2035   H         1 RES1   0.0000
    32 C14      0.2810   3.4474  -0.5699   C.ar      1 RES1   0.0000
    33 H14      0.2726   3.2215   0.3526   H         1 RES1   0.0000
    34 C15      0.4011   4.4205   3.6913   C.ar      1 RES1   0.0000
    35 C16      0.5847   3.0661   3.4433   C.ar      1 RES1   0.0000
    36 H15      1.2810   2.7766   2.8643   H         1 RES1   0.0000
    37 C17     -0.2401   2.1538   4.0371   C.ar      1 RES1   0.0000
    38 H16     -0.0862   1.2315   3.8688   H         1 RES1   0.0000
    39 C18     -1.2329   2.4856   4.8277   C.ar      1 RES1   0.0000
    40 H17     -1.7823   1.8092   5.2042   H         1 RES1   0.0000
    41 C19     -1.4857   3.8174   5.1178   C.ar      1 RES1   0.0000
    42 H18     -2.2046   4.0646   5.6888   H         1 RES1   0.0000
    43 C20     -0.6341   4.8103   4.5342   C.ar      1 RES1   0.0000
    44 H19     -0.7768   5.7311   4.7208   H         1 RES1   0.0000
    45 C21      2.5633   6.3045   3.9575   C.ar      1 RES1   0.0000
    46 C22      3.6000   7.0601   3.4467   C.ar      1 RES1   0.0000
    47 H20      3.6805   7.1604   2.5049   H         1 RES1   0.0000
    48 C23      4.5208   7.6744   4.2737   C.ar      1 RES1   0.0000
    49 H21      5.2184   8.2041   3.9052   H         1 RES1   0.0000
    50 C24      4.4177   7.5106   5.6661   C.ar      1 RES1   0.0000
    51 H22      5.0320   7.9371   6.2508   H         1 RES1   0.0000
    52 C25      3.3938   6.7056   6.1723   C.ar      1 RES1   0.0000
    53 H23      3.3373   6.5531   7.1085   H         1 RES1   0.0000
    54 C26      2.4729   6.1379   5.3430   C.ar      1 RES1   0.0000
    55 H24      1.7626   5.6224   5.7105   H         1 RES1   0.0000
    56 P1C     -1.4381   8.2997   0.2835   P.3       1 RES1   0.0000
    57 P2C     -1.3064   8.4456   2.7606   P.3       1 RES1   0.0000
    58 N1C     -2.0930   9.1771   1.4993   N.3       1 RES1   0.0000
    59 H1C     -2.6805   9.8324   1.4868   H         1 RES1   0.0000
    60 C1C      2.8387  10.5230   1.5027   C.3       1 RES1   0.0000
    61 H2C      3.1014  10.7307   0.5813   H         1 RES1   0.0000
    62 H3C      3.6381  10.3267   2.0339   H         1 RES1   0.0000
    63 H4C      2.3698  11.2913   1.8895   H         1 RES1   0.0000
    64 N2C      1.2456   8.4611   1.5016   N.1       1 RES1   0.0000
    65 C2C      1.9589   9.3678   1.5061   C.1       1 RES1   0.0000
    66 C3C     -2.7582   7.4626  -0.6074   C.ar      1 RES1   0.0000
    67 C4C     -4.0702   7.9640  -0.5073   C.ar      1 RES1   0.0000
    68 H5C     -4.2468   8.7111   0.0523   H         1 RES1   0.0000
    69 C5C     -5.1238   7.3680  -1.2331   C.ar      1 RES1   0.0000
    70 H6C     -5.9924   7.7507  -1.2240   H         1 RES1   0.0000
    71 C6C     -4.8753   6.2424  -1.9429   C.ar      1 RES1   0.0000
    72 H7C     -5.5927   5.8187  -2.4002   H         1 RES1   0.0000
    73 C7C     -3.6155   5.6902  -2.0225   C.ar      1 RES1   0.0000
    74 H8C     -3.4686   4.8950  -2.5231   H         1 RES1   0.0000
    75 C8C     -2.5732   6.3073  -1.3662   C.ar      1 RES1   0.0000
    76 H9C     -1.7018   5.9345  -1.4322   H         1 RES1   0.0000
    77 C9C     -0.8403   9.4525  -0.9601   C.ar      1 RES1   0.0000
    78 C10C    -0.8149   9.1333  -2.3411   C.ar      1 RES1   0.0000
    79 H10C    -1.1637   8.3057  -2.6505   H         1 RES1   0.0000
    80 C11C    -0.2697  10.0485  -3.2409   C.ar      1 RES1   0.0000
    81 H11C    -0.2810   9.8579  -4.1714   H         1 RES1   0.0000
    82 C12C     0.2853  11.2306  -2.7927   C.ar      1 RES1   0.0000
    83 H12C     0.6920  11.8181  -3.4194   H         1 RES1   0.0000
    84 C13C     0.2655  11.5738  -1.4913   C.ar      1 RES1   0.0000
    85 H13C     0.6144  12.4085  -1.2035   H         1 RES1   0.0000
    86 C14C    -0.2810  10.6756  -0.5699   C.ar      1 RES1   0.0000
    87 H14C    -0.2726  10.9015   0.3526   H         1 RES1   0.0000
    88 C15C    -0.4011   9.7025   3.6913   C.ar      1 RES1   0.0000
    89 C16C    -0.5847  11.0569   3.4433   C.ar      1 RES1   0.0000
    90 H15C    -1.2810  11.3464   2.8643   H         1 RES1   0.0000
    91 C17C     0.2401  11.9692   4.0371   C.ar      1 RES1   0.0000
    92 H16C     0.0862  12.8915   3.8688   H         1 RES1   0.0000
    93 C18C     1.2329  11.6374   4.8277   C.ar      1 RES1   0.0000
    94 H17C     1.7823  12.3138   5.2042   H         1 RES1   0.0000
    95 C19C     1.4857  10.3056   5.1178   C.ar      1 RES1   0.0000
    96 H18C     2.2046  10.0584   5.6888   H         1 RES1   0.0000
    97 C20C     0.6341   9.3127   4.5342   C.ar      1 RES1   0.0000
    98 H19C     0.7768   8.3919   4.7208   H         1 RES1   0.0000
    99 C21C    -2.5633   7.8185   3.9575   C.ar      1 RES1   0.0000
   100 C22C    -3.6000   7.0629   3.4467   C.ar      1 RES1   0.0000
   101 H20C    -3.6805   6.9626   2.5049   H         1 RES1   0.0000
   102 C23C    -4.5208   6.4486   4.2737   C.ar      1 RES1   0.0000
   103 H21C    -5.2184   5.9189   3.9052   H         1 RES1   0.0000
   104 C24C    -4.4177   6.6124   5.6661   C.ar      1 RES1   0.0000
   105 H22C    -5.0320   6.1859   6.2508   H         1 RES1   0.0000
   106 C25C    -3.3938   7.4174   6.1723   C.ar      1 RES1   0.0000
   107 H23C    -3.3373   7.5699   7.1085   H         1 RES1   0.0000
   108 C26C    -2.4729   7.9851   5.3430   C.ar      1 RES1   0.0000
   109 H24C    -1.7626   8.5006   5.7105   H         1 RES1   0.0000
@<TRIPOS>BOND
     1     1     2    1
     2     2     4    1
     3     3     1    1
     4     4     3    1
     5     5     4    1
     6     6     7    1
     7     8     6    1
     8     9     6    1
     9    10     1    1
    10    11     6    1
    11    12     2    1
    12    13    12   ar
    13    14    13    1
    14    15    13   ar
    15    16    15    1
    16    17    15   ar
    17    18    17    1
    18    19    17   ar
    19    20    19    1
    20    21    12   ar
    21    22    21    1
    22    23     2    1
    23    24    23   ar
    24    25    24    1
    25    26    24   ar
    26    27    26    1
    27    28    26   ar
    28    29    28    1
    29    30    28   ar
    30    31    30    1
    31    32    23   ar
    32    33    32    1
    33    34     3    1
    34    35    34   ar
    35    36    35    1
    36    37    35   ar
    37    38    37    1
    38    39    37   ar
    39    40    39    1
    40    41    39   ar
    41    42    41    1
    42    43    34   ar
    43    44    43    1
    44    45     3    1
    45    46    45   ar
    46    47    46    1
    47    48    46   ar
    48    49    48    1
    49    50    48   ar
    50    51    50    1
    51    52    50   ar
    52    53    52    1
    53    54    45   ar
    54    55    54    1
    55    56     1    1
    56    57     1    1
    57    58    56    1
    58    59    58    1
    59    60    61    1
    60    62    60    1
    61    63    60    1
    62    64     1    1
    63    65    60    1
    64    66    56    1
    65    67    66   ar
    66    68    67    1
    67    69    67   ar
    68    70    69    1
    69    71    69   ar
    70    72    71    1
    71    73    71   ar
    72    74    73    1
    73    75    66   ar
    74    76    75    1
    75    77    56    1
    76    78    77   ar
    77    79    78    1
    78    80    78   ar
    79    81    80    1
    80    82    80   ar
    81    83    82    1
    82    84    82   ar
    83    85    84    1
    84    86    77   ar
    85    87    86    1
    86    88    57    1
    87    89    88   ar
    88    90    89    1
    89    91    89   ar
    90    92    91    1
    91    93    91   ar
    92    94    93    1
    93    95    93   ar
    94    96    95    1
    95    97    88   ar
    96    98    97    1
    97    99    57    1
    98   100    99   ar
    99   101   100    1
   100   102   100   ar
   101   103   102    1
   102   104   102   ar
   103   105   104    1
   104   106   104   ar
   105   107   106    1
   106   108    99   ar
   107   109   108    1
   108    10    11    3
   109    19    21   ar
   110    30    32   ar
   111    41    43   ar
   112    52    54   ar
   113    57    58    1
   114    64    65    3
   115    73    75   ar
   116    84    86   ar
   117    95    97   ar
   118   106   108   ar
@<TRIPOS>SUBSTRUCTURE
     1 RES1        1 GROUP             0 ****  ****    0  
@<TRIPOS>CRYSIN
   14.1230   14.1230   11.3754   90.0000   90.0000   90.0000    81     1
