@<TRIPOS>MOLECULE
YICDAQ
   104   113     3     0     0
SMALL
USER_CHARGES
****
Generated from the CSD

@<TRIPOS>ATOM
     1 Fe1      1.4919  10.6028  14.3587   Fe        1 RES1   0.0000
     2 Cl1     -0.2974  13.1803   8.4209   Cl        1 RES1   0.0000
     3 Cl2     -2.2501  10.2266  19.9592   Cl        1 RES1   0.0000
     4 O1      -0.3799  10.1030  14.3917   O.3       1 RES1   0.0000
     5 O2       0.8624  12.3890  14.1075   O.3       1 RES1   0.0000
     6 O3       3.2762  11.2122  14.4297   O.3       1 RES1   0.0000
     7 O4       2.0318   8.7909  14.5039   O.3       1 RES1  -1.0000
     8 O5       7.2357  12.2538  13.9491   O.2       1 RES1   0.0000
     9 O6       2.5676   4.7500  15.1894   O.2       1 RES1   0.0000
    10 N1       1.3427  10.6783  16.2455   N.2       1 RES1   0.0000
    11 N2       2.2005  10.9252  17.1651   N.2       1 RES1   0.0000
    12 N3       1.6239  10.5334  12.4703   N.2       1 RES1   0.0000
    13 N4       2.1367   9.6822  11.6926   N.2       1 RES1   0.0000
    14 N5       2.4994   6.7864  16.2128   N.am      1 RES1   0.0000
    15 N6       5.2156  12.2317  12.9204   N.am      1 RES1   0.0000
    16 C1       3.4737  11.2812  16.8236   C.ar      1 RES1   0.0000
    17 C2       4.3084  11.5516  17.9758   C.ar      1 RES1   0.0000
    18 C3       3.8851  11.2963  19.2887   C.ar      1 RES1   0.0000
    19 C4       4.6829  11.5681  20.3467   C.ar      1 RES1   0.0000
    20 C5       5.9657  12.1241  20.1528   C.ar      1 RES1   0.0000
    21 C6       6.4180  12.3738  18.8815   C.ar      1 RES1   0.0000
    22 C7       5.6341  12.0634  17.7653   C.ar      1 RES1   0.0000
    23 C8       6.0840  12.2290  16.4441   C.ar      1 RES1   0.0000
    24 C9       5.3323  11.9406  15.3390   C.ar      1 RES1   0.0000
    25 C10      3.9733  11.4453  15.5040   C.ar      1 RES1   0.0000
    26 C11      6.0093  12.1420  14.0067   C.2       1 RES1   0.0000
    27 C12      5.5892  12.3876  11.5721   C.ar      1 RES1   0.0000
    28 C13      6.7728  13.0319  11.1815   C.ar      1 RES1   0.0000
    29 C14      7.0447  13.1616   9.8299   C.ar      1 RES1   0.0000
    30 C15      6.1715  12.6966   8.8688   C.ar      1 RES1   0.0000
    31 C16      4.9788  12.0800   9.2593   C.ar      1 RES1   0.0000
    32 C17      4.7147  11.9254  10.6137   C.ar      1 RES1   0.0000
    33 C18      2.4927   8.0390  13.5165   C.ar      1 RES1   0.0000
    34 C19      2.6138   8.4985  12.1853   C.ar      1 RES1   0.0000
    35 C20      3.1779   7.6459  11.1594   C.ar      1 RES1   0.0000
    36 C21      3.3763   8.0860   9.8244   C.ar      1 RES1   0.0000
    37 C22      3.8558   7.2168   8.8633   C.ar      1 RES1   0.0000
    38 C23      4.1676   5.8799   9.1845   C.ar      1 RES1   0.0000
    39 C24      4.0061   5.4550  10.4753   C.ar      1 RES1   0.0000
    40 C25      3.5223   6.3021  11.4835   C.ar      1 RES1   0.0000
    41 C26      3.3236   5.8675  12.8074   C.ar      1 RES1   0.0000
    42 C27      2.8272   6.6636  13.8017   C.ar      1 RES1   0.0000
    43 C28      2.6122   5.9862  15.1312   C.2       1 RES1   0.0000
    44 C29      2.3205   6.4304  17.5631   C.ar      1 RES1   0.0000
    45 C30      2.0377   7.4803  18.4411   C.ar      1 RES1   0.0000
    46 C31      1.8935   7.2292  19.7955   C.ar      1 RES1   0.0000
    47 C32      1.9886   5.9393  20.2802   C.ar      1 RES1   0.0000
    48 C33      2.2580   4.9114  19.4161   C.ar      1 RES1   0.0000
    49 C34      2.4431   5.1322  18.0589   C.ar      1 RES1   0.0000
    50 C35     -0.8532  10.1416  15.6381   C.ar      1 RES1   0.0000
    51 C36     -2.2153   9.9484  15.9705   C.ar      1 RES1   0.0000
    52 C37     -2.6369   9.9981  17.2750   C.ar      1 RES1   0.0000
    53 C38     -1.7113  10.2368  18.2998   C.ar      1 RES1   0.0000
    54 C39     -0.3844  10.4451  18.0201   C.ar      1 RES1   0.0000
    55 C40      0.0191  10.4106  16.6989   C.ar      1 RES1   0.0000
    56 C41      0.6408  12.6221  12.8406   C.ar      1 RES1   0.0000
    57 C42      1.0186  11.6909  11.8601   C.ar      1 RES1   0.0000
    58 C43      0.7779  11.8220  10.5223   C.ar      1 RES1   0.0000
    59 C44      0.1123  12.9629  10.0903   C.ar      1 RES1   0.0000
    60 C45     -0.2675  13.9411  11.0154   C.ar      1 RES1   0.0000
    61 C46     -0.0055  13.7907  12.3559   C.ar      1 RES1   0.0000
    62 H1       3.0229  10.9252  19.4382   H         1 RES1   0.0000
    63 H2       4.3784  11.3832  21.2275   H         1 RES1   0.0000
    64 H3       6.5155  12.3269  20.9007   H         1 RES1   0.0000
    65 H4       2.5440   7.6500  16.0508   H         1 RES1   0.0000
    66 H5       7.2751  12.7615  18.7569   H         1 RES1   0.0000
    67 H6       4.3498  12.1862  13.0733   H         1 RES1   0.0000
    68 H11      6.9644  12.5614  16.3112   H         1 RES1   0.0000
    69 H12      7.3756  13.3727  11.8297   H         1 RES1   0.0000
    70 H13      7.8515  13.5824   9.5585   H         1 RES1   0.0000
    71 H14      6.3791  12.7946   7.9465   H         1 RES1   0.0000
    72 H15      4.3604  11.7695   8.6084   H         1 RES1   0.0000
    73 H16      3.9136  11.4922  10.8852   H         1 RES1   0.0000
    74 H17      3.1778   8.9855   9.5889   H         1 RES1   0.0000
    75 H18      3.9776   7.5244   7.9714   H         1 RES1   0.0000
    76 H19      4.4843   5.2839   8.5143   H         1 RES1   0.0000
    77 H20      4.2272   4.5583  10.6941   H         1 RES1   0.0000
    78 H21      3.5473   4.9694  13.0207   H         1 RES1   0.0000
    79 H22      1.9438   8.3646  18.1115   H         1 RES1   0.0000
    80 H23      1.7287   7.9480  20.3938   H         1 RES1   0.0000
    81 H24      1.8689   5.7682  21.2081   H         1 RES1   0.0000
    82 H25      2.3194   4.0257  19.7567   H         1 RES1   0.0000
    83 H26      2.6500   4.4106  17.4745   H         1 RES1   0.0000
    84 H27     -2.8470   9.7801  15.2808   H         1 RES1   0.0000
    85 H28     -3.5550   9.8698  17.4828   H         1 RES1   0.0000
    86 H29      0.2402  10.6093  18.7153   H         1 RES1   0.0000
    87 H30      1.0561  11.1542   9.9047   H         1 RES1   0.0000
    88 H31     -0.7152  14.7233  10.7135   H         1 RES1   0.0000
    89 H32     -0.2593  14.4736  12.9653   H         1 RES1   0.0000
    90 O7      -0.9154   9.1483  10.5204   O.2       2 RES2   0.0000
    91 C47     -0.7323   7.3686  12.0983   C.3       2 RES2   0.0000
    92 C48     -0.6850   7.9756  10.7190   C.2       2 RES2   0.0000
    93 C49     -0.3383   7.0361   9.6083   C.3       2 RES2   0.0000
    94 H33     -0.9974   6.4276  12.0319   H         2 RES2   0.0000
    95 H34     -1.3841   7.8542  12.6468   H         2 RES2   0.0000
    96 H35      0.1528   7.4306  12.5138   H         2 RES2   0.0000
    97 H36      0.2482   6.3283   9.9518   H         2 RES2   0.0000
    98 H37      0.1237   7.5272   8.8965   H         2 RES2   0.0000
    99 H38     -1.1583   6.6360   9.2510   H         2 RES2   0.0000
   100 N7      -2.2308  10.8314  12.4224   N.4       3 RES3   1.0000
   101 H7      -1.9595  10.7472  11.7715   H         3 RES3   0.0000
   102 H8      -2.5817  11.7544  12.6301   H         3 RES3   0.0000
   103 H9      -2.8203  10.0712  12.2978   H         3 RES3   0.0000
   104 H10     -1.5390  10.6507  13.1287   H         3 RES3   0.0000
@<TRIPOS>BOND
     1     1     4    1
     2     2    59    1
     3     3    53    1
     4     4    50    1
     5     5     1    1
     6     6     1    1
     7     7     1    1
     8     8    26    2
     9     9    43    2
    10    10     1    1
    11    11    10    2
    12    12     1    1
    13    13    12    2
    14    14    43   am
    15    15    26   am
    16    16    11    1
    17    17    16   ar
    18    18    17   ar
    19    19    18   ar
    20    20    19   ar
    21    21    20   ar
    22    22    17   ar
    23    23    22   ar
    24    24    23   ar
    25    25     6    1
    26    26    24    1
    27    27    15    1
    28    28    27   ar
    29    29    28   ar
    30    30    29   ar
    31    31    30   ar
    32    32    27   ar
    33    33     7    1
    34    34    13    1
    35    35    34   ar
    36    36    35   ar
    37    37    36   ar
    38    38    37   ar
    39    39    38   ar
    40    40    35   ar
    41    41    40   ar
    42    42    33   ar
    43    43    42    1
    44    44    14    1
    45    45    44   ar
    46    46    45   ar
    47    47    46   ar
    48    48    47   ar
    49    49    44   ar
    50    50    51   ar
    51    51    52   ar
    52    52    53   ar
    53    53    54   ar
    54    54    55   ar
    55    55    10    1
    56    56     5    1
    57    57    12    1
    58    58    57   ar
    59    59    58   ar
    60    60    59   ar
    61    61    56   ar
    62    62    18    1
    63    63    19    1
    64    64    20    1
    65    65    14    1
    66    66    21    1
    67    67    15    1
    68    68    23    1
    69    69    28    1
    70    70    29    1
    71    71    30    1
    72    72    31    1
    73    73    32    1
    74    74    36    1
    75    75    37    1
    76    76    38    1
    77    77    39    1
    78    78    41    1
    79    79    45    1
    80    80    46    1
    81    81    47    1
    82    82    48    1
    83    83    49    1
    84    84    51    1
    85    85    52    1
    86    86    54    1
    87    87    58    1
    88    88    60    1
    89    89    61    1
    90    16    25   ar
    91    21    22   ar
    92    24    25   ar
    93    31    32   ar
    94    33    34   ar
    95    39    40   ar
    96    41    42   ar
    97    48    49   ar
    98    50    55   ar
    99    56    57   ar
   100    60    61   ar
   101    90    92    2
   102    91    92    1
   103    92    93    1
   104    93    97    1
   105    94    91    1
   106    95    91    1
   107    96    91    1
   108    98    93    1
   109    99    93    1
   110   100   101    1
   111   102   100    1
   112   103   100    1
   113   104   100    1
@<TRIPOS>SUBSTRUCTURE
     1 RES1        1 GROUP             0 ****  ****    0  
     2 RES2       90 GROUP             0 ****  ****    0  
     3 RES3      100 GROUP             0 ****  ****    0  
@<TRIPOS>CRYSIN
   11.3199   13.7962   27.7570   90.0000   93.7470   90.0000   231     1
