@<TRIPOS>MOLECULE
YICGAT
   118   126     2     0     0
SMALL
USER_CHARGES
****
Generated from the CSD

@<TRIPOS>ATOM
     1 Fe1      4.9470   7.4545   0.0000   Fe        1 RES1   2.0000
     2 O1       3.1595   6.8332   0.9806   O.3       1 RES1   0.0000
     3 O2       5.9316   7.1313   1.8813   O.3       1 RES1   0.0000
     4 O3       4.5530   9.4277   0.5470   O.3       1 RES1   0.0000
     5 N1       2.0546   7.5675   1.1093   N.ar      1 RES1   0.0000
     6 N2       5.3823   7.3166   3.0909   N.ar      1 RES1   0.0000
     7 N3       4.2192  10.4930  -0.1832   N.ar      1 RES1   0.0000
     8 C1       1.3162   7.4336   2.2323   C.ar      1 RES1   0.0000
     9 H1       1.6018   6.8373   2.9145   H         1 RES1   0.0000
    10 C2       0.1603   8.1508   2.3987   C.ar      1 RES1   0.0000
    11 H2      -0.3530   8.0494   3.1906   H         1 RES1   0.0000
    12 C3      -0.2549   9.0214   1.4073   C.ar      1 RES1   0.0000
    13 H3      -1.0531   9.5269   1.5077   H         1 RES1   0.0000
    14 C4       0.5162   9.1392   0.2693   C.ar      1 RES1   0.0000
    15 H4       0.2527   9.7386  -0.4185   H         1 RES1   0.0000
    16 C5       1.6597   8.3982   0.1253   C.ar      1 RES1   0.0000
    17 H5       2.1742   8.4698  -0.6706   H         1 RES1   0.0000
    18 C6       4.6768   8.4325   3.3703   C.ar      1 RES1   0.0000
    19 H6       4.5478   9.0930   2.6997   H         1 RES1   0.0000
    20 C7       4.1472   8.6129   4.6255   C.ar      1 RES1   0.0000
    21 H7       3.6534   9.4016   4.8188   H         1 RES1   0.0000
    22 C8       4.3258   7.6617   5.6046   C.ar      1 RES1   0.0000
    23 H8       3.9597   7.7825   6.4733   H         1 RES1   0.0000
    24 C9       5.0491   6.5301   5.2943   C.ar      1 RES1   0.0000
    25 H9       5.1819   5.8592   5.9539   H         1 RES1   0.0000
    26 C10      5.5802   6.3647   4.0325   C.ar      1 RES1   0.0000
    27 H10      6.0838   5.5864   3.8261   H         1 RES1   0.0000
    28 C11      3.2915  11.3398   0.3118   C.ar      1 RES1   0.0000
    29 H11      2.9058  11.1728   1.1636   H         1 RES1   0.0000
    30 C12      2.9014  12.4386  -0.4056   C.ar      1 RES1   0.0000
    31 H12      2.2466  13.0305  -0.0548   H         1 RES1   0.0000
    32 C13      3.4652  12.6816  -1.6387   C.ar      1 RES1   0.0000
    33 H13      3.1825  13.4241  -2.1585   H         1 RES1   0.0000
    34 C14      4.4476  11.8288  -2.1083   C.ar      1 RES1   0.0000
    35 H14      4.8630  11.9973  -2.9452   H         1 RES1   0.0000
    36 C15      4.8192  10.7419  -1.3663   C.ar      1 RES1   0.0000
    37 H15      5.5005  10.1605  -1.6852   H         1 RES1   0.0000
    38 O1B      6.7344   8.0758  -0.9806   O.3       1 RES1   0.0000
    39 O2B      3.9623   7.7777  -1.8813   O.3       1 RES1   0.0000
    40 O3B      5.3409   5.4813  -0.5470   O.3       1 RES1   0.0000
    41 N1B      7.8393   7.3415  -1.1093   N.ar      1 RES1   0.0000
    42 N2B      4.5116   7.5924  -3.0909   N.ar      1 RES1   0.0000
    43 N3B      5.6747   4.4160   0.1832   N.ar      1 RES1   0.0000
    44 C1B      8.5777   7.4754  -2.2323   C.ar      1 RES1   0.0000
    45 H1B      8.2921   8.0717  -2.9145   H         1 RES1   0.0000
    46 C2B      9.7336   6.7582  -2.3987   C.ar      1 RES1   0.0000
    47 H2B     10.2469   6.8596  -3.1906   H         1 RES1   0.0000
    48 C3B     10.1488   5.8876  -1.4073   C.ar      1 RES1   0.0000
    49 H3B     10.9470   5.3821  -1.5077   H         1 RES1   0.0000
    50 C4B      9.3777   5.7698  -0.2693   C.ar      1 RES1   0.0000
    51 H4B      9.6412   5.1704   0.4185   H         1 RES1   0.0000
    52 C5B      8.2342   6.5108  -0.1253   C.ar      1 RES1   0.0000
    53 H5B      7.7197   6.4392   0.6706   H         1 RES1   0.0000
    54 C6B      5.2171   6.4765  -3.3703   C.ar      1 RES1   0.0000
    55 H6B      5.3461   5.8160  -2.6997   H         1 RES1   0.0000
    56 C7B      5.7467   6.2961  -4.6255   C.ar      1 RES1   0.0000
    57 H7B      6.2405   5.5074  -4.8188   H         1 RES1   0.0000
    58 C8B      5.5681   7.2473  -5.6046   C.ar      1 RES1   0.0000
    59 H8B      5.9342   7.1265  -6.4733   H         1 RES1   0.0000
    60 C9B      4.8448   8.3789  -5.2943   C.ar      1 RES1   0.0000
    61 H9B      4.7120   9.0498  -5.9539   H         1 RES1   0.0000
    62 C10B     4.3137   8.5443  -4.0325   C.ar      1 RES1   0.0000
    63 H10B     3.8101   9.3226  -3.8261   H         1 RES1   0.0000
    64 C11B     6.6024   3.5692  -0.3118   C.ar      1 RES1   0.0000
    65 H11B     6.9881   3.7362  -1.1636   H         1 RES1   0.0000
    66 C12B     6.9925   2.4704   0.4056   C.ar      1 RES1   0.0000
    67 H12B     7.6473   1.8785   0.0548   H         1 RES1   0.0000
    68 C13B     6.4287   2.2274   1.6387   C.ar      1 RES1   0.0000
    69 H13B     6.7114   1.4849   2.1585   H         1 RES1   0.0000
    70 C14B     5.4463   3.0802   2.1083   C.ar      1 RES1   0.0000
    71 H14B     5.0309   2.9117   2.9452   H         1 RES1   0.0000
    72 C15B     5.0747   4.1671   1.3663   C.ar      1 RES1   0.0000
    73 H15B     4.3934   4.7485   1.6852   H         1 RES1   0.0000
    74 B1       4.0179  13.7670   4.0764   B         2 RES2  -1.0000
    75 C16      3.8956  12.8539   5.4545   C.ar      2 RES2   0.0000
    76 C17      2.7101  12.4222   6.0464   C.ar      2 RES2   0.0000
    77 H16      1.8844  12.6622   5.6427   H         2 RES2   0.0000
    78 C18      2.6878  11.6439   7.2168   C.ar      2 RES2   0.0000
    79 H17      1.8567  11.3487   7.5711   H         2 RES2   0.0000
    80 C19      3.8514  11.3100   7.8492   C.ar      2 RES2   0.0000
    81 H18      3.8368  10.7822   8.6405   H         2 RES2   0.0000
    82 C20      5.0473  11.7483   7.3226   C.ar      2 RES2   0.0000
    83 H19      5.8640  11.5321   7.7574   H         2 RES2   0.0000
    84 C21      5.0592  12.5012   6.1595   C.ar      2 RES2   0.0000
    85 H20      5.8971  12.7949   5.8224   H         2 RES2   0.0000
    86 C22      4.5681  15.2255   4.6053   C.ar      2 RES2   0.0000
    87 C23      5.9374  15.5128   4.7081   C.ar      2 RES2   0.0000
    88 H21      6.5595  14.8851   4.3586   H         2 RES2   0.0000
    89 C24      6.4271  16.6742   5.2976   C.ar      2 RES2   0.0000
    90 H22      7.3638  16.8203   5.3601   H         2 RES2   0.0000
    91 C25      5.5420  17.6180   5.7928   C.ar      2 RES2   0.0000
    92 H23      5.8678  18.4126   6.1993   H         2 RES2   0.0000
    93 C26      4.1894  17.3958   5.6912   C.ar      2 RES2   0.0000
    94 H24      3.5761  18.0473   6.0131   H         2 RES2   0.0000
    95 C27      3.7183  16.2210   5.1186   C.ar      2 RES2   0.0000
    96 H25      2.7795  16.0838   5.0730   H         2 RES2   0.0000
    97 C28      2.6056  13.8843   3.2450   C.ar      2 RES2   0.0000
    98 C29      2.1995  15.0432   2.5599   C.ar      2 RES2   0.0000
    99 H26      2.7544  15.8140   2.6055   H         2 RES2   0.0000
   100 C30      1.0283  15.1147   1.8206   C.ar      2 RES2   0.0000
   101 H27      0.8057  15.9183   1.3630   H         2 RES2   0.0000
   102 C31      0.1814  14.0234   1.7463   C.ar      2 RES2   0.0000
   103 H28     -0.6429  14.0816   1.2776   H         2 RES2   0.0000
   104 C32      0.5562  12.8456   2.3678   C.ar      2 RES2   0.0000
   105 H29     -0.0037  12.0808   2.3075   H         2 RES2   0.0000
   106 C33      1.7453  12.7770   3.0762   C.ar      2 RES2   0.0000
   107 H30      1.9931  11.9466   3.4667   H         2 RES2   0.0000
   108 C34      5.0835  13.1111   3.0026   C.ar      2 RES2   0.0000
   109 C35      5.6751  11.8541   3.1056   C.ar      2 RES2   0.0000
   110 H31      5.4794  11.3204   3.8677   H         2 RES2   0.0000
   111 C36      6.5392  11.3457   2.1440   C.ar      2 RES2   0.0000
   112 H32      6.9165  10.4810   2.2571   H         2 RES2   0.0000
   113 C37      6.8518  12.0897   1.0258   C.ar      2 RES2   0.0000
   114 H33      7.4491  11.7513   0.3681   H         2 RES2   0.0000
   115 C38      6.2779  13.3406   0.8803   C.ar      2 RES2   0.0000
   116 H34      6.4786  13.8669   0.1161   H         2 RES2   0.0000
   117 C39      5.4149  13.8266   1.8405   C.ar      2 RES2   0.0000
   118 H35      5.0270  14.6839   1.7093   H         2 RES2   0.0000
@<TRIPOS>BOND
     1     1     2    1
     2     2     5    1
     3     3     1    1
     4     4     1    1
     5     5     8   ar
     6     6     3    1
     7     7     4    1
     8     8     9    1
     9    10     8   ar
    10    11    10    1
    11    12    10   ar
    12    13    12    1
    13    14    12   ar
    14    15    14    1
    15    16     5   ar
    16    17    16    1
    17    18     6   ar
    18    19    18    1
    19    20    18   ar
    20    21    20    1
    21    22    20   ar
    22    23    22    1
    23    24    22   ar
    24    25    24    1
    25    26     6   ar
    26    27    26    1
    27    28     7   ar
    28    29    28    1
    29    30    28   ar
    30    31    30    1
    31    32    30   ar
    32    33    32    1
    33    34    32   ar
    34    35    34    1
    35    36     7   ar
    36    37    36    1
    37    38     1    1
    38    39     1    1
    39    40     1    1
    40    41    38    1
    41    42    39    1
    42    43    40    1
    43    44    41   ar
    44    45    44    1
    45    46    44   ar
    46    47    46    1
    47    48    46   ar
    48    49    48    1
    49    50    48   ar
    50    51    50    1
    51    52    41   ar
    52    53    52    1
    53    54    42   ar
    54    55    54    1
    55    56    54   ar
    56    57    56    1
    57    58    56   ar
    58    59    58    1
    59    60    58   ar
    60    61    60    1
    61    62    42   ar
    62    63    62    1
    63    64    43   ar
    64    65    64    1
    65    66    64   ar
    66    67    66    1
    67    68    66   ar
    68    69    68    1
    69    70    68   ar
    70    71    70    1
    71    72    43   ar
    72    73    72    1
    73    14    16   ar
    74    24    26   ar
    75    34    36   ar
    76    50    52   ar
    77    60    62   ar
    78    70    72   ar
    79    74    75    1
    80    75    76   ar
    81    76    77    1
    82    78    76   ar
    83    79    78    1
    84    80    78   ar
    85    81    80    1
    86    82    80   ar
    87    83    82    1
    88    84    75   ar
    89    85    84    1
    90    86    74    1
    91    87    86   ar
    92    88    87    1
    93    89    87   ar
    94    90    89    1
    95    91    89   ar
    96    92    91    1
    97    93    91   ar
    98    94    93    1
    99    95    86   ar
   100    96    95    1
   101    97    74    1
   102    98    97   ar
   103    99    98    1
   104   100    98   ar
   105   101   100    1
   106   102   100   ar
   107   103   102    1
   108   104   102   ar
   109   105   104    1
   110   106    97   ar
   111   107   106    1
   112   108    74    1
   113   109   108   ar
   114   110   109    1
   115   111   109   ar
   116   112   111    1
   117   113   111   ar
   118   114   113    1
   119   115   113   ar
   120   116   115    1
   121   117   108   ar
   122   118   117    1
   123    82    84   ar
   124    93    95   ar
   125   104   106   ar
   126   115   117   ar
@<TRIPOS>SUBSTRUCTURE
     1 RES1        1 GROUP             0 ****  ****    0  
     2 RES2       74 GROUP             0 ****  ****    0  
@<TRIPOS>CRYSIN
    9.8939   14.9090   21.9630   90.0000   93.8460   90.0000   231     1
