@<TRIPOS>MOLECULE
YICSIN
   103   104     4     0     0
SMALL
USER_CHARGES
****
Generated from the CSD

@<TRIPOS>ATOM
     1 Fe1    -11.6070  -8.2826  -8.4800   Fe        1 RES1   2.0000
     2 O1     -12.8957  -8.0478  -4.5849   O.3       1 RES1   0.0000
     3 N1     -12.5721  -7.3940  -6.7073   N.2       1 RES1   0.0000
     4 O2     -12.1844 -11.7700  -6.2348   O.3       1 RES1   0.0000
     5 N2     -13.4636  -9.4591  -8.7513   N.2       1 RES1   0.0000
     6 N3     -11.1006  -9.9855  -7.0874   N.2       1 RES1   0.0000
     7 C1     -13.4172  -9.6784  -6.2924   C.3       1 RES1   0.0000
     8 C2     -14.0996  -9.6074  -7.6493   C.2       1 RES1   0.0000
     9 C3     -10.0932 -11.0857  -7.1068   C.3       1 RES1   0.0000
    10 H1      -9.7028 -11.1497  -8.0031   H         1 RES1   0.0000
    11 C4     -12.9659  -8.2931  -5.8904   C.2       1 RES1   0.0000
    12 C5     -12.1484 -10.4741  -6.5424   C.2       1 RES1   0.0000
    13 O3     -15.4264  -9.7460  -7.6824   O.3       1 RES1   0.0000
    14 C6     -14.3180 -10.3170  -5.2107   C.3       1 RES1   0.0000
    15 H2     -14.5829 -11.1954  -5.4930   H         1 RES1   0.0000
    16 H3     -15.0989  -9.7730  -5.0824   H         1 RES1   0.0000
    17 H4     -13.8315 -10.3799  -4.3855   H         1 RES1   0.0000
    18 N4     -12.4640  -6.9096  -9.9150   N.1       1 RES1   0.0000
    19 N5      -9.9246  -6.9539  -8.1373   N.1       1 RES1   0.0000
    20 C7     -14.4545  -9.6975  -9.8449   C.3       1 RES1   0.0000
    21 H5     -14.3649  -9.0069 -10.5339   H         1 RES1   0.0000
    22 C8      -8.9216  -6.4350  -8.0238   C.1       1 RES1   0.0000
    23 C9     -12.2501  -6.1925  -5.8799   C.3       1 RES1   0.0000
    24 H6     -11.3820  -5.8295  -6.1553   H         1 RES1   0.0000
    25 C10     -9.8958  -9.5008 -10.9702   C.1       1 RES1   0.0000
    26 N6     -10.4129  -9.1557 -10.0147   N.1       1 RES1   0.0000
    27 C11    -13.3309  -5.0950  -6.0102   C.3       1 RES1   0.0000
    28 C12    -14.2568 -11.1072 -10.4737   C.3       1 RES1   0.0000
    29 C13    -13.0279  -6.2619 -10.6632   C.1       1 RES1   0.0000
    30 C14    -12.1263  -6.7956  -4.4822   C.3       1 RES1   0.0000
    31 H7     -11.1991  -6.9728  -4.2582   H         1 RES1   0.0000
    32 H8     -12.5076  -6.2060  -3.8120   H         1 RES1   0.0000
    33 C15    -10.9569 -12.3222  -6.8423   C.3       1 RES1   0.0000
    34 H9     -11.1579 -12.7894  -7.6684   H         1 RES1   0.0000
    35 H10    -10.5125 -12.9340  -6.2343   H         1 RES1   0.0000
    36 C16    -15.7866  -9.5251  -9.0957   C.3       1 RES1   0.0000
    37 H11    -16.1463  -8.6338  -9.2270   H         1 RES1   0.0000
    38 H12    -16.4399 -10.1774  -9.3938   H         1 RES1   0.0000
    39 C17     -8.9711 -10.8354  -6.0832   C.3       1 RES1   0.0000
    40 C18    -14.6722  -5.5606  -5.4555   C.3       1 RES1   0.0000
    41 H13    -14.5725  -5.7931  -4.5296   H         1 RES1   0.0000
    42 H14    -14.9727  -6.3287  -5.9480   H         1 RES1   0.0000
    43 H15    -15.3167  -4.8546  -5.5404   H         1 RES1   0.0000
    44 C19    -12.8420  -3.8846  -5.1988   C.3       1 RES1   0.0000
    45 H16    -11.9950  -3.5917  -5.5413   H         1 RES1   0.0000
    46 H17    -12.7469  -4.1344  -4.2769   H         1 RES1   0.0000
    47 H18    -13.4808  -3.1723  -5.2729   H         1 RES1   0.0000
    48 C20    -14.5131 -12.2167  -9.4609   C.3       1 RES1   0.0000
    49 H19    -13.8966 -12.1334  -8.7305   H         1 RES1   0.0000
    50 H20    -14.3943 -13.0702  -9.8844   H         1 RES1   0.0000
    51 H21    -15.4123 -12.1467  -9.1303   H         1 RES1   0.0000
    52 C21    -12.8338 -11.2308 -11.0205   C.3       1 RES1   0.0000
    53 H22    -12.6747 -10.5319 -11.6591   H         1 RES1   0.0000
    54 H23    -12.7278 -12.0847 -11.4459   H         1 RES1   0.0000
    55 H24    -12.2057 -11.1532 -10.2980   H         1 RES1   0.0000
    56 C22     -7.6304  -5.7819  -7.8718   C.3       1 RES1   0.0000
    57 H25     -7.2801  -5.9667  -6.9982   H         1 RES1   0.0000
    58 H26     -7.7364  -4.8348  -7.9813   H         1 RES1   0.0000
    59 H27     -7.0234  -6.1156  -8.5371   H         1 RES1   0.0000
    60 C23     -9.4956 -10.8546  -4.6530   C.3       1 RES1   0.0000
    61 H28     -9.8966 -11.7079  -4.4714   H         1 RES1   0.0000
    62 H29    -10.1519 -10.1620  -4.5434   H         1 RES1   0.0000
    63 H30     -8.7690 -10.7059  -4.0440   H         1 RES1   0.0000
    64 C24     -7.9186 -11.9436  -6.2481   C.3       1 RES1   0.0000
    65 H31     -8.3231 -12.7965  -6.0743   H         1 RES1   0.0000
    66 H32     -7.2009 -11.7976  -5.6272   H         1 RES1   0.0000
    67 H33     -7.5750 -11.9286  -7.1443   H         1 RES1   0.0000
    68 C25     -9.2881  -9.9434 -12.2059   C.3       1 RES1   0.0000
    69 H34     -9.3536 -10.8988 -12.2711   H         1 RES1   0.0000
    70 H35     -8.3634  -9.6844 -12.2188   H         1 RES1   0.0000
    71 H36     -9.7430  -9.5400 -12.9492   H         1 RES1   0.0000
    72 C26     -8.3320  -9.4784  -6.3803   C.3       1 RES1   0.0000
    73 H37     -8.0017  -9.4716  -7.2815   H         1 RES1   0.0000
    74 H38     -7.6050  -9.3276  -5.7713   H         1 RES1   0.0000
    75 H39     -8.9875  -8.7856  -6.2747   H         1 RES1   0.0000
    76 C27    -15.2459 -11.2408 -11.6285   C.3       1 RES1   0.0000
    77 H40    -15.0857 -10.5433 -12.2691   H         1 RES1   0.0000
    78 H41    -16.1423 -11.1666 -11.2919   H         1 RES1   0.0000
    79 H42    -15.1326 -12.0949 -12.0500   H         1 RES1   0.0000
    80 C28    -13.5045  -4.7225  -7.4799   C.3       1 RES1   0.0000
    81 H43    -12.6622  -4.4329  -7.8382   H         1 RES1   0.0000
    82 H44    -14.1456  -4.0119  -7.5569   H         1 RES1   0.0000
    83 H45    -13.8148  -5.4880  -7.9695   H         1 RES1   0.0000
    84 C29    -13.7831  -5.4445 -11.5989   C.3       1 RES1   0.0000
    85 H46    -14.3682  -6.0047 -12.1132   H         1 RES1   0.0000
    86 H47    -13.1770  -4.9887 -12.1872   H         1 RES1   0.0000
    87 H48    -14.3027  -4.7999 -11.1133   H         1 RES1   0.0000
    88 F1      -8.1247 -11.7931  -9.8923   F         2 RES2   0.0000
    89 F2      -9.8386 -13.2569  -9.8044   F         2 RES2   0.0000
    90 F3      -7.7333 -14.0138  -9.7028   F         2 RES2   0.0000
    91 F4      -8.4978 -13.1807 -11.6364   F         2 RES2   0.0000
    92 B1      -8.5488 -13.0678 -10.2674   B         2 RES2  -1.0000
    93 F5     -12.8204  -8.0798 -13.0440   F         3 RES3   0.0000
    94 F6     -11.2170  -8.5309 -14.5857   F         3 RES3   0.0000
    95 F7     -12.8304  -7.0679 -14.9964   F         3 RES3   0.0000
    96 B2     -12.0109  -7.5450 -14.0123   B         3 RES3  -1.0000
    97 F8     -11.2753  -6.6058 -13.4911   F         3 RES3   0.0000
    98 C30     -7.8665  -6.4429 -11.5190   C.1       4 RES4   0.0000
    99 C31     -8.8704  -5.4382 -11.8230   C.3       4 RES4   0.0000
   100 H49     -9.2713  -5.1299 -11.0067   H         4 RES4   0.0000
   101 H50     -9.5471  -5.8218 -12.3866   H         4 RES4   0.0000
   102 H51     -8.4571  -4.6999 -12.2750   H         4 RES4   0.0000
   103 N7      -7.0836  -7.2079 -11.2969   N.1       4 RES4   0.0000
@<TRIPOS>BOND
     1     1     3    1
     2     2    11    1
     3     3    11    2
     4     4    12    1
     5     5     1    1
     6     6     1    1
     7     7     8    1
     8     8     5    2
     9     9     6    1
    10    10     9    1
    11    11     7    1
    12    12     6    2
    13    13     8    1
    14    14     7    1
    15    15    14    1
    16    16    14    1
    17    17    14    1
    18    18     1    1
    19    19     1    1
    20    20     5    1
    21    21    20    1
    22    22    19    3
    23    23     3    1
    24    24    23    1
    25    25    26    3
    26    26     1    1
    27    27    23    1
    28    28    20    1
    29    29    18    3
    30    30     2    1
    31    31    30    1
    32    32    30    1
    33    33     4    1
    34    34    33    1
    35    35    33    1
    36    36    13    1
    37    37    36    1
    38    38    36    1
    39    39     9    1
    40    40    27    1
    41    41    40    1
    42    42    40    1
    43    43    40    1
    44    44    27    1
    45    45    44    1
    46    46    44    1
    47    47    44    1
    48    48    28    1
    49    49    48    1
    50    50    48    1
    51    51    48    1
    52    52    28    1
    53    53    52    1
    54    54    52    1
    55    55    52    1
    56    56    22    1
    57    57    56    1
    58    58    56    1
    59    59    56    1
    60    60    39    1
    61    61    60    1
    62    62    60    1
    63    63    60    1
    64    64    39    1
    65    65    64    1
    66    66    64    1
    67    67    64    1
    68    68    25    1
    69    69    68    1
    70    70    68    1
    71    71    68    1
    72    72    39    1
    73    73    72    1
    74    74    72    1
    75    75    72    1
    76    76    28    1
    77    77    76    1
    78    78    76    1
    79    79    76    1
    80    80    27    1
    81    81    80    1
    82    82    80    1
    83    83    80    1
    84    84    29    1
    85    85    84    1
    86    86    84    1
    87    87    84    1
    88     7    12    1
    89     9    33    1
    90    20    36    1
    91    23    30    1
    92    88    92    1
    93    89    92    1
    94    90    92    1
    95    91    92    1
    96    93    96    1
    97    94    96    1
    98    95    96    1
    99    96    97    1
   100    98    99    1
   101    99   100    1
   102   101    99    1
   103   102    99    1
   104   103    98    3
@<TRIPOS>SUBSTRUCTURE
     1 RES1        1 GROUP             0 ****  ****    0  
     2 RES2       88 GROUP             0 ****  ****    0  
     3 RES3       93 GROUP             0 ****  ****    0  
     4 RES4       98 GROUP             0 ****  ****    0  
@<TRIPOS>CRYSIN
   10.1320   10.4460   10.6920   75.5860   70.4670   79.2000     1     1
