@<TRIPOS>MOLECULE
YICYER
   110   116     4     0     0
SMALL
NO_CHARGES
****
Generated from the CSD

@<TRIPOS>ATOM
     1 Fe1      3.9354   9.9493   7.1582   Fe        1 RES1   0.0000
     2 O1       2.8371   8.5388   7.8029   O.3       1 RES1   0.0000
     3 O2       4.4985  11.6225   6.2999   O.3       1 RES1   0.0000
     4 O3       6.0791  13.2527   5.0312   O.3       1 RES1   0.0000
     5 O4       4.1610   9.1396   5.1185   O.3       1 RES1   0.0000
     6 H1       3.4771   9.1260   4.6303   H         1 RES1   0.0000
     7 O5       4.5819  10.6455   8.8394   O.3       1 RES1   0.0000
     8 O6       4.5510  11.8139  11.1710   O.3       1 RES1   0.0000
     9 N1       1.9790  10.6965   6.7352   N.2       1 RES1   0.0000
    10 N2       5.6504   8.6914   7.2089   N.2       1 RES1   0.0000
    11 C1       1.4724   8.4953   7.5011   C.3       1 RES1   0.0000
    12 H2       1.3782   8.0739   6.5991   H         1 RES1   0.0000
    13 C2       0.7071   7.6367   8.4856   C.ar      1 RES1   0.0000
    14 C3       1.1544   7.4753   9.7840   C.ar      1 RES1   0.0000
    15 H3       1.9482   7.9161  10.0635   H         1 RES1   0.0000
    16 C4       0.4609   6.6788  10.6838   C.ar      1 RES1   0.0000
    17 H4       0.7759   6.5846  11.5746   H         1 RES1   0.0000
    18 C5      -0.6865   6.0223  10.2851   C.ar      1 RES1   0.0000
    19 H5      -1.1643   5.4745  10.8976   H         1 RES1   0.0000
    20 C6      -1.1331   6.1700   8.9889   C.ar      1 RES1   0.0000
    21 H6      -1.9166   5.7121   8.7060   H         1 RES1   0.0000
    22 C7      -0.4531   6.9799   8.0925   C.ar      1 RES1   0.0000
    23 H7      -0.7809   7.0871   7.2072   H         1 RES1   0.0000
    24 C8       0.9052   9.9510   7.4020   C.3       1 RES1   0.0000
    25 H8       0.1053   9.9404   6.8018   H         1 RES1   0.0000
    26 C9       0.5095  10.5855   8.7183   C.ar      1 RES1   0.0000
    27 C10      1.4357  11.1088   9.6225   C.ar      1 RES1   0.0000
    28 H9       2.3632  11.0742   9.4221   H         1 RES1   0.0000
    29 C11      1.0080  11.6802  10.8118   C.ar      1 RES1   0.0000
    30 H10      1.6421  12.0374  11.4232   H         1 RES1   0.0000
    31 C12     -0.3507  11.7321  11.1125   C.ar      1 RES1   0.0000
    32 H11     -0.6443  12.1408  11.9187   H         1 RES1   0.0000
    33 C13     -1.2668  11.1933  10.2428   C.ar      1 RES1   0.0000
    34 H12     -2.1926  11.2102  10.4588   H         1 RES1   0.0000
    35 C14     -0.8454  10.6258   9.0524   C.ar      1 RES1   0.0000
    36 H13     -1.4860  10.2597   8.4544   H         1 RES1   0.0000
    37 C15      1.6639  11.4700   5.7573   C.2       1 RES1   0.0000
    38 H14      0.7447  11.5277   5.5234   H         1 RES1   0.0000
    39 C16      2.5951  12.2565   4.9855   C.ar      1 RES1   0.0000
    40 C17      2.0952  13.0334   3.9232   C.ar      1 RES1   0.0000
    41 H15      1.1715  12.9879   3.7027   H         1 RES1   0.0000
    42 C18      2.9205  13.8548   3.2027   C.ar      1 RES1   0.0000
    43 H16      2.5800  14.3465   2.4655   H         1 RES1   0.0000
    44 C19      4.2765  13.9651   3.5613   C.ar      1 RES1   0.0000
    45 H17      4.8424  14.5642   3.0880   H         1 RES1   0.0000
    46 C20      4.7856  13.2159   4.5891   C.ar      1 RES1   0.0000
    47 C21      3.9644  12.3106   5.3230   C.ar      1 RES1   0.0000
    48 C22      6.9356  14.2303   4.4399   C.3       1 RES1   0.0000
    49 H18      7.0568  14.0255   3.4889   H         1 RES1   0.0000
    50 H19      7.8054  14.2177   4.8909   H         1 RES1   0.0000
    51 H20      6.5321  15.1175   4.5345   H         1 RES1   0.0000
    52 C23      4.7806   7.8437   5.1114   C.3       1 RES1   0.0000
    53 H21      4.1624   7.2014   5.5624   H         1 RES1   0.0000
    54 C24      5.0621   7.3240   3.7194   C.ar      1 RES1   0.0000
    55 C25      5.4238   8.1564   2.6748   C.ar      1 RES1   0.0000
    56 H22      5.4829   9.0933   2.8196   H         1 RES1   0.0000
    57 C26      5.6987   7.6340   1.4209   C.ar      1 RES1   0.0000
    58 H23      5.9386   8.2136   0.7071   H         1 RES1   0.0000
    59 C27      5.6239   6.2614   1.2049   C.ar      1 RES1   0.0000
    60 H24      5.8196   5.9026   0.3474   H         1 RES1   0.0000
    61 C28      5.2662   5.4233   2.2394   C.ar      1 RES1   0.0000
    62 H25      5.2133   4.4859   2.0958   H         1 RES1   0.0000
    63 C29      4.9837   5.9490   3.4866   C.ar      1 RES1   0.0000
    64 H26      4.7332   5.3675   4.1938   H         1 RES1   0.0000
    65 C30      6.0408   7.9754   5.9733   C.3       1 RES1   0.0000
    66 H27      6.3350   7.0545   6.2305   H         1 RES1   0.0000
    67 C31      7.2206   8.6801   5.3296   C.ar      1 RES1   0.0000
    68 C32      8.3170   7.9132   4.9566   C.ar      1 RES1   0.0000
    69 H28      8.2952   6.9710   5.0824   H         1 RES1   0.0000
    70 C33      9.4420   8.5054   4.4054   C.ar      1 RES1   0.0000
    71 H29     10.1854   7.9705   4.1526   H         1 RES1   0.0000
    72 C34      9.4811   9.8761   4.2227   C.ar      1 RES1   0.0000
    73 H30     10.2477  10.2833   3.8363   H         1 RES1   0.0000
    74 C35      8.3994  10.6497   4.6047   C.ar      1 RES1   0.0000
    75 H31      8.4311  11.5930   4.4900   H         1 RES1   0.0000
    76 C36      7.2692  10.0614   5.1548   C.ar      1 RES1   0.0000
    77 H32      6.5303  10.6007   5.4120   H         1 RES1   0.0000
    78 C37      6.3253   8.4068   8.2639   C.2       1 RES1   0.0000
    79 H33      6.9819   7.7256   8.1771   H         1 RES1   0.0000
    80 C38      6.1920   9.0099   9.5591   C.ar      1 RES1   0.0000
    81 C39      6.9895   8.5199  10.6036   C.ar      1 RES1   0.0000
    82 H34      7.5575   7.7746  10.4488   H         1 RES1   0.0000
    83 C40      6.9618   9.1042  11.8430   C.ar      1 RES1   0.0000
    84 H35      7.4981   8.7559  12.5457   H         1 RES1   0.0000
    85 C41      6.1442  10.2104  12.0691   C.ar      1 RES1   0.0000
    86 H36      6.1272  10.6152  12.9288   H         1 RES1   0.0000
    87 C42      5.3631  10.7215  11.0613   C.ar      1 RES1   0.0000
    88 C43      5.3425  10.1188   9.7706   C.ar      1 RES1   0.0000
    89 C44      4.5890  12.4988  12.4210   C.3       1 RES1   0.0000
    90 H37      5.5059  12.7920  12.6058   H         1 RES1   0.0000
    91 H38      4.2900  11.8959  13.1337   H         1 RES1   0.0000
    92 H39      3.9969  13.2781  12.3842   H         1 RES1   0.0000
    93 N3      -0.7980  13.5504   6.2450   N.1       2 RES2   0.0000
    94 C45     -0.4738  13.9105   7.2706   C.1       2 RES2   0.0000
    95 C46     -0.0552  14.3991   8.5791   C.3       2 RES2   0.0000
    96 H40      0.7696  14.9197   8.4856   H         2 RES2   0.0000
    97 H41      0.1047  13.6391   9.1760   H         2 RES2   0.0000
    98 H42     -0.7586  14.9669   8.9555   H         2 RES2   0.0000
    99 O7       2.0223   8.9742   3.6175   O.3       3 RES3   0.0000
   100 H43      1.8873   8.1501   3.5290   H         3 RES3   0.0000
   101 C47      2.1262   9.5671   2.3586   C.3       3 RES3   0.0000
   102 H44      2.7513   9.0534   1.8051   H         3 RES3   0.0000
   103 H45      2.4556  10.4846   2.4555   H         3 RES3   0.0000
   104 H46      1.2450   9.5795   1.9299   H         3 RES3   0.0000
   105 N4       1.4939   6.2648   3.1659   N.1       4 RES4   0.0000
   106 C48      1.7219   5.1578   3.0635   C.1       4 RES4   0.0000
   107 C49      2.0172   3.7516   2.9332   C.3       4 RES4   0.0000
   108 H47      2.0541   3.5118   1.9833   H         4 RES4   0.0000
   109 H48      1.3176   3.2270   3.3753   H         4 RES4   0.0000
   110 H49      2.8829   3.5590   3.3519   H         4 RES4   0.0000
@<TRIPOS>BOND
     1     1     2    1
     2     2    11    1
     3     3     1    1
     4     4    46    1
     5     5     1    1
     6     6     5    1
     7     7     1    1
     8     8    87    1
     9     9     1    1
    10    10     1    1
    11    11    12    1
    12    13    11    1
    13    14    13   ar
    14    15    14    1
    15    16    14   ar
    16    17    16    1
    17    18    16   ar
    18    19    18    1
    19    20    18   ar
    20    21    20    1
    21    22    13   ar
    22    23    22    1
    23    24     9    1
    24    25    24    1
    25    26    24    1
    26    27    26   ar
    27    28    27    1
    28    29    27   ar
    29    30    29    1
    30    31    29   ar
    31    32    31    1
    32    33    31   ar
    33    34    33    1
    34    35    26   ar
    35    36    35    1
    36    37     9    2
    37    38    37    1
    38    39    37    1
    39    40    39   ar
    40    41    40    1
    41    42    40   ar
    42    43    42    1
    43    44    42   ar
    44    45    44    1
    45    46    44   ar
    46    47     3    1
    47    48     4    1
    48    49    48    1
    49    50    48    1
    50    51    48    1
    51    52     5    1
    52    53    52    1
    53    54    52    1
    54    55    54   ar
    55    56    55    1
    56    57    55   ar
    57    58    57    1
    58    59    57   ar
    59    60    59    1
    60    61    59   ar
    61    62    61    1
    62    63    54   ar
    63    64    63    1
    64    65    10    1
    65    66    65    1
    66    67    65    1
    67    68    67   ar
    68    69    68    1
    69    70    68   ar
    70    71    70    1
    71    72    70   ar
    72    73    72    1
    73    74    72   ar
    74    75    74    1
    75    76    67   ar
    76    77    76    1
    77    78    10    2
    78    79    78    1
    79    80    78    1
    80    81    80   ar
    81    82    81    1
    82    83    81   ar
    83    84    83    1
    84    85    83   ar
    85    86    85    1
    86    87    85   ar
    87    88     7    1
    88    89     8    1
    89    90    89    1
    90    91    89    1
    91    92    89    1
    92    11    24    1
    93    20    22   ar
    94    33    35   ar
    95    39    47   ar
    96    46    47   ar
    97    52    65    1
    98    61    63   ar
    99    74    76   ar
   100    80    88   ar
   101    87    88   ar
   102    93    94    3
   103    94    95    1
   104    95    96    1
   105    97    95    1
   106    98    95    1
   107    99   100    1
   108   101    99    1
   109   102   101    1
   110   103   101    1
   111   104   101    1
   112   105   106    3
   113   106   107    1
   114   107   108    1
   115   109   107    1
   116   110   107    1
@<TRIPOS>SUBSTRUCTURE
     1 RES1        1 GROUP             0 ****  ****    0  
     2 RES2       93 GROUP             0 ****  ****    0  
     3 RES3       99 GROUP             0 ****  ****    0  
     4 RES4      105 GROUP             0 ****  ****    0  
@<TRIPOS>CRYSIN
   10.7824   18.1395   11.3010   90.0000   99.8060   90.0000     4     1
