@<TRIPOS>MOLECULE
YIQHEM
   119   134     1     0     0
SMALL
NO_CHARGES
****
Generated from the CSD

@<TRIPOS>ATOM
     1 Fe1     -1.1870   1.0042   6.8770   Fe        1 RES1   0.0000
     2 B1      -0.6283   3.0158   9.2797   B         1 RES1   0.0000
     3 N1       0.0223   2.9118   6.8088   N.ar      1 RES1   0.0000
     4 C1       1.0836   4.4364   8.0360   C.ar      1 RES1   0.0000
     5 H1       1.3866   4.9446   8.7783   H         1 RES1   0.0000
     6 C2       1.4607   4.6013   6.7340   C.ar      1 RES1   0.0000
     7 C3       2.4372   5.5765   6.2714   C.1       1 RES1   0.0000
     8 N2       3.2334   6.3240   5.9639   N.1       1 RES1   0.0000
     9 C4       0.7551   3.6359   5.9612   C.ar      1 RES1   0.0000
    10 C5       0.7962   3.4691   4.5152   C.ar      1 RES1   0.0000
    11 C6       0.8209   2.2192   3.8781   C.ar      1 RES1   0.0000
    12 H2       0.8319   1.4324   4.4099   H         1 RES1   0.0000
    13 C7       0.8276   2.0995   2.5429   C.ar      1 RES1   0.0000
    14 H3       0.8301   1.2362   2.1440   H         1 RES1   0.0000
    15 C8       0.8305   3.2258   1.7396   C.ar      1 RES1   0.0000
    16 H4       0.8244   3.1316   0.7950   H         1 RES1   0.0000
    17 C9       0.8412   4.4894   2.3047   C.ar      1 RES1   0.0000
    18 H5       0.8811   5.2664   1.7590   H         1 RES1   0.0000
    19 C10      0.7932   4.5915   3.6842   C.ar      1 RES1   0.0000
    20 H6       0.7563   5.4548   4.0803   H         1 RES1   0.0000
    21 N3       0.1920   3.4083   8.0747   N.ar      1 RES1   0.0000
    22 N4      -2.6542   2.4272   7.8227   N.ar      1 RES1   0.0000
    23 C11     -3.0533   3.9008   9.4376   C.ar      1 RES1   0.0000
    24 H7      -2.9237   4.4620  10.1938   H         1 RES1   0.0000
    25 C12     -4.2378   3.7850   8.7119   C.ar      1 RES1   0.0000
    26 C13     -5.4679   4.3952   9.0055   C.1       1 RES1   0.0000
    27 N5      -6.4696   4.9054   9.2659   N.1       1 RES1   0.0000
    28 C14     -3.9236   2.8412   7.6897   C.ar      1 RES1   0.0000
    29 C15     -4.7928   2.4390   6.5706   C.ar      1 RES1   0.0000
    30 C16     -4.9154   1.1125   6.1939   C.ar      1 RES1   0.0000
    31 H8      -4.4644   0.4336   6.6842   H         1 RES1   0.0000
    32 C17     -5.6941   0.7751   5.1080   C.ar      1 RES1   0.0000
    33 H9      -5.7804  -0.1413   4.8670   H         1 RES1   0.0000
    34 C18     -6.3446   1.7228   4.3656   C.ar      1 RES1   0.0000
    35 H10     -6.8520   1.4814   3.6011   H         1 RES1   0.0000
    36 C19     -6.2371   3.0747   4.7756   C.ar      1 RES1   0.0000
    37 H11     -6.7026   3.7497   4.2964   H         1 RES1   0.0000
    38 C20     -5.4713   3.4122   5.8504   C.ar      1 RES1   0.0000
    39 H12     -5.4010   4.3226   6.1108   H         1 RES1   0.0000
    40 N6      -2.1349   3.1022   8.9058   N.ar      1 RES1   0.0000
    41 N7      -0.4641   0.5886   8.7423   N.ar      1 RES1   0.0000
    42 C21     -0.0710  -0.5435   9.3767   C.ar      1 RES1   0.0000
    43 H13     -0.0623  -1.4029   8.9722   H         1 RES1   0.0000
    44 C22      0.3098  -0.3041  10.6620   C.ar      1 RES1   0.0000
    45 C23      0.7311  -1.2597  11.6121   C.1       1 RES1   0.0000
    46 N8       1.0118  -2.0622  12.3933   N.1       1 RES1   0.0000
    47 C24      0.1430   1.0812  10.8310   C.ar      1 RES1   0.0000
    48 C25      0.4455   1.8484  12.0359   C.ar      1 RES1   0.0000
    49 C26      1.5683   1.6816  12.6952   C.ar      1 RES1   0.0000
    50 H14      2.1900   1.0282  12.3960   H         1 RES1   0.0000
    51 C27      1.8756   2.4645  13.8586   C.ar      1 RES1   0.0000
    52 H15      2.6945   2.3114  14.3157   H         1 RES1   0.0000
    53 C28      1.0255   3.4299  14.3295   C.ar      1 RES1   0.0000
    54 H16      1.2428   3.9596  15.0858   H         1 RES1   0.0000
    55 C29     -0.1316   3.5927  13.6730   C.ar      1 RES1   0.0000
    56 H17     -0.7297   4.2598  13.9833   H         1 RES1   0.0000
    57 C30     -0.5112   2.8196  12.5318   C.ar      1 RES1   0.0000
    58 H18     -1.3571   2.9354  12.1163   H         1 RES1   0.0000
    59 N9      -0.3083   1.5481   9.6952   N.ar      1 RES1   0.0000
    60 B2      -1.7609  -1.0399   4.4598   B         1 RES1   0.0000
    61 N10     -2.3799  -0.9006   6.9501   N.ar      1 RES1   0.0000
    62 C31     -3.4100  -2.4841   5.7700   C.ar      1 RES1   0.0000
    63 H19     -3.6922  -3.0158   5.0360   H         1 RES1   0.0000
    64 C32     -3.8063  -2.6509   7.0858   C.ar      1 RES1   0.0000
    65 C33     -4.7292  -3.5927   7.5817   C.1       1 RES1   0.0000
    66 N11     -5.5115  -4.3481   7.9445   N.1       1 RES1   0.0000
    67 C34     -3.1238  -1.6207   7.7950   C.ar      1 RES1   0.0000
    68 C35     -3.1307  -1.4265   9.2382   C.ar      1 RES1   0.0000
    69 C36     -3.3716  -0.1570   9.8171   C.ar      1 RES1   0.0000
    70 H20     -3.5394   0.5965   9.2631   H         1 RES1   0.0000
    71 C37     -3.3635  -0.0196  11.1966   C.ar      1 RES1   0.0000
    72 H21     -3.5541   0.8221  11.5955   H         1 RES1   0.0000
    73 C38     -3.0731  -1.1224  11.9888   C.ar      1 RES1   0.0000
    74 H22     -3.0316  -1.0380  12.9362   H         1 RES1   0.0000
    75 C39     -2.8455  -2.3487  11.3822   C.ar      1 RES1   0.0000
    76 H23     -2.6487  -3.0963  11.9334   H         1 RES1   0.0000
    77 C40     -2.8894  -2.5273  10.0526   C.ar      1 RES1   0.0000
    78 H24     -2.7585  -3.3887   9.6758   H         1 RES1   0.0000
    79 N12     -2.5597  -1.4422   5.7008   N.ar      1 RES1   0.0000
    80 N13      0.2641  -0.4336   5.9418   N.ar      1 RES1   0.0000
    81 C41      0.6723  -1.8562   4.2908   C.ar      1 RES1   0.0000
    82 H25      0.5520  -2.4056   3.5235   H         1 RES1   0.0000
    83 C42      1.8225  -1.7502   5.0387   C.ar      1 RES1   0.0000
    84 C43      3.0836  -2.3860   4.7617   C.1       1 RES1   0.0000
    85 N14      4.0850  -2.8883   4.5097   N.1       1 RES1   0.0000
    86 C44      1.5278  -0.8457   6.0831   C.ar      1 RES1   0.0000
    87 C45      2.3662  -0.4748   7.2160   C.ar      1 RES1   0.0000
    88 C46      3.0447  -1.4677   7.9362   C.ar      1 RES1   0.0000
    89 H26      3.0307  -2.3644   7.6232   H         1 RES1   0.0000
    90 C47      3.7316  -1.1675   9.0969   C.ar      1 RES1   0.0000
    91 H27      4.1470  -1.8582   9.5983   H         1 RES1   0.0000
    92 C48      3.8142   0.1334   9.5235   C.ar      1 RES1   0.0000
    93 H28      4.3005   0.3453  10.3129   H         1 RES1   0.0000
    94 C49      3.1859   1.1400   8.8060   C.ar      1 RES1   0.0000
    95 H29      3.2381   2.0387   9.1052   H         1 RES1   0.0000
    96 C50      2.4843   0.8378   7.6509   C.ar      1 RES1   0.0000
    97 H30      2.0790   1.5364   7.1523   H         1 RES1   0.0000
    98 N15     -0.2339  -1.0596   4.8255   N.ar      1 RES1   0.0000
    99 N16     -1.9491   1.4010   4.9640   N.ar      1 RES1   0.0000
   100 C51     -2.4193   2.5214   4.3933   C.ar      1 RES1   0.0000
   101 H31     -2.3949   3.3828   4.7950   H         1 RES1   0.0000
   102 C52     -2.9379   2.2545   3.1606   C.ar      1 RES1   0.0000
   103 C53     -3.6477   3.1434   2.2936   C.1       1 RES1   0.0000
   104 N17     -4.2577   3.8615   1.6371   N.1       1 RES1   0.0000
   105 C54     -2.7794   0.8732   2.9529   C.ar      1 RES1   0.0000
   106 C55     -3.2059   0.0804   1.8199   C.ar      1 RES1   0.0000
   107 C56     -2.8756   0.4533   0.5706   C.ar      1 RES1   0.0000
   108 H32     -2.3325   1.2224   0.4432   H         1 RES1   0.0000
   109 C57     -3.3197  -0.2786  -0.5706   C.ar      1 RES1   0.0000
   110 H33     -3.1090   0.0020  -1.4543   H         1 RES1   0.0000
   111 C58     -4.0681  -1.4108  -0.3407   C.ar      1 RES1   0.0000
   112 H34     -4.3305  -1.9347  -1.0859   H         1 RES1   0.0000
   113 C59     -4.4485  -1.8150   0.8864   C.ar      1 RES1   0.0000
   114 H35     -5.0081  -2.5763   0.9861   H         1 RES1   0.0000
   115 C60     -4.0214  -1.1165   1.9972   C.ar      1 RES1   0.0000
   116 H36     -4.2552  -1.4128   2.8670   H         1 RES1   0.0000
   117 N18     -2.2009   0.4081   4.0609   N.ar      1 RES1   0.0000
   118 H37     -0.4216   3.7281  10.0553   H         1 RES1   0.0000
   119 H38     -2.0733  -1.7267   3.3518   H         1 RES1   0.0000
@<TRIPOS>BOND
     1     1     3    1
     2     2    21    1
     3     3     9   ar
     4     4     5    1
     5     6     4   ar
     6     7     6    1
     7     8     7    3
     8     9     6   ar
     9    10     9    1
    10    11    10   ar
    11    12    11    1
    12    13    11   ar
    13    14    13    1
    14    15    13   ar
    15    16    15    1
    16    17    15   ar
    17    18    17    1
    18    19    10   ar
    19    20    19    1
    20    21     3   ar
    21    22     1    1
    22    23    24    1
    23    25    23   ar
    24    26    25    1
    25    27    26    3
    26    28    22   ar
    27    29    28    1
    28    30    29   ar
    29    31    30    1
    30    32    30   ar
    31    33    32    1
    32    34    32   ar
    33    35    34    1
    34    36    34   ar
    35    37    36    1
    36    38    29   ar
    37    39    38    1
    38    40     2    1
    39    41     1    1
    40    42    41   ar
    41    43    42    1
    42    44    42   ar
    43    45    44    1
    44    46    45    3
    45    47    44   ar
    46    48    47    1
    47    49    48   ar
    48    50    49    1
    49    51    49   ar
    50    52    51    1
    51    53    51   ar
    52    54    53    1
    53    55    53   ar
    54    56    55    1
    55    57    48   ar
    56    58    57    1
    57    59     2    1
    58    60    79    1
    59    61     1    1
    60    62    63    1
    61    64    62   ar
    62    65    64    1
    63    66    65    3
    64    67    61   ar
    65    68    67    1
    66    69    68   ar
    67    70    69    1
    68    71    69   ar
    69    72    71    1
    70    73    71   ar
    71    74    73    1
    72    75    73   ar
    73    76    75    1
    74    77    68   ar
    75    78    77    1
    76    79    61   ar
    77    80     1    1
    78    81    82    1
    79    83    81   ar
    80    84    83    1
    81    85    84    3
    82    86    80   ar
    83    87    86    1
    84    88    87   ar
    85    89    88    1
    86    90    88   ar
    87    91    90    1
    88    92    90   ar
    89    93    92    1
    90    94    92   ar
    91    95    94    1
    92    96    87   ar
    93    97    96    1
    94    98    60    1
    95    99     1    1
    96   100    99   ar
    97   101   100    1
    98   102   100   ar
    99   103   102    1
   100   104   103    3
   101   105   102   ar
   102   106   105    1
   103   107   106   ar
   104   108   107    1
   105   109   107   ar
   106   110   109    1
   107   111   109   ar
   108   112   111    1
   109   113   111   ar
   110   114   113    1
   111   115   106   ar
   112   116   115    1
   113   117    60    1
   114   118     2    1
   115   119    60    1
   116     4    21   ar
   117    17    19   ar
   118    22    40   ar
   119    23    40   ar
   120    25    28   ar
   121    36    38   ar
   122    41    59   ar
   123    47    59   ar
   124    55    57   ar
   125    62    79   ar
   126    64    67   ar
   127    75    77   ar
   128    80    98   ar
   129    81    98   ar
   130    83    86   ar
   131    94    96   ar
   132    99   117   ar
   133   105   117   ar
   134   113   115   ar
@<TRIPOS>SUBSTRUCTURE
     1 RES1        1 GROUP             0 ****  ****    0  
@<TRIPOS>CRYSIN
   10.5615   19.6216   28.0887   90.0000   99.5350   90.0000   231     1
