@<TRIPOS>MOLECULE
YIQNUJ
   111   120     5     0     0
SMALL
USER_CHARGES
****
Generated from the CSD

@<TRIPOS>ATOM
     1 Fe1      0.2203   1.5927   5.2235   Fe        1 RES1   2.0000
     2 C1       9.0362   1.5317  12.9622   C.2       1 RES1   0.0000
     3 H1       9.6808   0.8798  13.1152   H         1 RES1   0.0000
     4 C2       9.1157   2.7010  13.5178   C.2       1 RES1   0.0000
     5 H2       9.8250   2.9068  14.0834   H         1 RES1   0.0000
     6 C3       7.0145   2.8496  12.0744   C.2       1 RES1   0.0000
     7 C4       5.9494   3.2495  11.3698   C.2       1 RES1   0.0000
     8 C5       3.9854   4.5441  10.3250   C.2       1 RES1   0.0000
     9 H3       3.3824   5.2123  10.0915   H         1 RES1   0.0000
    10 C6       3.9042   3.3368   9.7674   C.2       1 RES1   0.0000
    11 C7       2.9657   2.9019   8.7327   C.ar      1 RES1   0.0000
    12 C8       1.8813   3.7087   8.3361   C.ar      1 RES1   0.0000
    13 H4       1.7273   4.5267   8.7508   H         1 RES1   0.0000
    14 C9       3.1389   1.6780   8.0885   C.ar      1 RES1   0.0000
    15 H5       3.8412   1.1222   8.3381   H         1 RES1   0.0000
    16 C10      1.0486   3.2695   7.3215   C.ar      1 RES1   0.0000
    17 C11     -0.0856   3.9891   6.7237   C.ar      1 RES1   0.0000
    18 C12     -0.5842   5.1894   7.1706   C.ar      1 RES1   0.0000
    19 H6      -0.1948   5.6143   7.9013   H         1 RES1   0.0000
    20 C13     -1.6714   5.7629   6.5284   C.ar      1 RES1   0.0000
    21 H7      -2.0385   6.5610   6.8344   H         1 RES1   0.0000
    22 C14     -2.1971   5.1219   5.4232   C.ar      1 RES1   0.0000
    23 H8      -2.9182   5.4901   4.9662   H         1 RES1   0.0000
    24 C15     -1.6439   3.9280   5.0065   C.ar      1 RES1   0.0000
    25 H9      -1.9957   3.5097   4.2556   H         1 RES1   0.0000
    26 C16      2.2839   1.2827   7.0880   C.ar      1 RES1   0.0000
    27 C17      2.3309   0.0446   6.2929   C.ar      1 RES1   0.0000
    28 C18      3.2429  -0.9696   6.4861   C.ar      1 RES1   0.0000
    29 H10      3.9070  -0.8882   7.1323   H         1 RES1   0.0000
    30 C19      3.1585  -2.1168   5.7071   C.ar      1 RES1   0.0000
    31 H11      3.7695  -2.8089   5.8158   H         1 RES1   0.0000
    32 C20      2.1557  -2.2107   4.7730   C.ar      1 RES1   0.0000
    33 H12      2.0729  -2.9726   4.2476   H         1 RES1   0.0000
    34 C21      1.2627  -1.1517   4.6240   C.ar      1 RES1   0.0000
    35 H13      0.5755  -1.2313   4.0020   H         1 RES1   0.0000
    36 C22      2.5556   3.1177   4.1006   C.ar      1 RES1   0.0000
    37 H14      2.8686   3.1898   4.9743   H         1 RES1   0.0000
    38 C23      3.2688   3.7099   3.1162   C.ar      1 RES1   0.0000
    39 H15      4.0615   4.1534   3.3155   H         1 RES1   0.0000
    40 C24      2.8174   3.6553   1.8238   C.ar      1 RES1   0.0000
    41 H16      3.2713   4.0986   1.1434   H         1 RES1   0.0000
    42 C25      1.6673   2.9210   1.5481   C.ar      1 RES1   0.0000
    43 H17      1.3579   2.8374   0.6764   H         1 RES1   0.0000
    44 C26      0.9912   2.3177   2.5948   C.ar      1 RES1   0.0000
    45 C27     -0.2391   1.5424   2.4559   C.ar      1 RES1   0.0000
    46 C28     -1.8620   0.4383   3.7322   C.ar      1 RES1   0.0000
    47 C29     -2.2090   0.1263   5.1273   C.ar      1 RES1   0.0000
    48 C30     -3.3108  -0.5895   5.5178   C.ar      1 RES1   0.0000
    49 H18     -3.9000  -0.9334   4.8857   H         1 RES1   0.0000
    50 C31     -3.5326  -0.7909   6.8827   C.ar      1 RES1   0.0000
    51 H19     -4.2811  -1.2566   7.1746   H         1 RES1   0.0000
    52 C32     -2.6291  -0.2913   7.7805   C.ar      1 RES1   0.0000
    53 H20     -2.7568  -0.4202   8.6924   H         1 RES1   0.0000
    54 C33     -1.5389   0.3963   7.3336   C.ar      1 RES1   0.0000
    55 H21     -0.9308   0.7223   7.9577   H         1 RES1   0.0000
    56 C34     -2.5509   0.0955   2.5868   C.ar      1 RES1   0.0000
    57 H22     -3.3312  -0.4067   2.6492   H         1 RES1   0.0000
    58 C35     -0.8920   1.2346   1.2884   C.ar      1 RES1   0.0000
    59 H23     -0.5474   1.5129   0.4711   H         1 RES1   0.0000
    60 C36     -2.0835   0.4964   1.3407   C.ar      1 RES1   0.0000
    61 C37     -2.8219   0.1902   0.1208   C.2       1 RES1   0.0000
    62 C38     -2.5883   0.7385  -1.0891   C.2       1 RES1   0.0000
    63 H24     -1.8619   1.3057  -1.2199   H         1 RES1   0.0000
    64 C39     -4.6106  -0.7723  -1.4957   C.2       1 RES1   0.0000
    65 C40     -5.5624  -1.5284  -2.0574   C.2       1 RES1   0.0000
    66 C41     -6.9686  -2.8002  -3.7685   C.2       1 RES1   0.0000
    67 H25     -7.3478  -3.1108  -4.5596   H         1 RES1   0.0000
    68 C42     -7.1942  -3.4134  -2.6391   C.2       1 RES1   0.0000
    69 H26     -7.7106  -4.1851  -2.6029   H         1 RES1   0.0000
    70 N1       1.2336   2.0704   6.7196   N.ar      1 RES1   0.0000
    71 N2      -0.6078   3.3407   5.6507   N.ar      1 RES1   0.0000
    72 N3       1.3568  -0.0205   5.3407   N.ar      1 RES1   0.0000
    73 N4       1.4210   2.4284   3.8893   N.ar      1 RES1   0.0000
    74 N5      -0.7102   1.1515   3.6537   N.ar      1 RES1   0.0000
    75 N6      -1.3044   0.6238   6.0312   N.ar      1 RES1   0.0000
    76 S1       7.8837   3.8758  13.1908   S.3       1 RES1   0.0000
    77 S2       7.6770   1.2293  11.9186   S.3       1 RES1   0.0000
    78 S3       5.2265   4.8515  11.4872   S.3       1 RES1   0.0000
    79 S4       5.1008   2.1606  10.2916   S.3       1 RES1   0.0000
    80 S5      -3.6543   0.3727  -2.3905   S.3       1 RES1   0.0000
    81 S6      -4.2109  -0.8777   0.2118   S.3       1 RES1   0.0000
    82 S7      -6.4907  -2.7327  -1.2105   S.3       1 RES1   0.0000
    83 S8      -5.9516  -1.3964  -3.7723   S.3       1 RES1   0.0000
    84 C43      0.6793   6.8897   2.0674   C.3       2 RES2   0.0000
    85 H27     -0.2431   6.9923   1.8339   H         2 RES2   0.0000
    86 H28      1.0932   6.2584   1.4716   H         2 RES2   0.0000
    87 H29      1.1274   7.7380   1.9889   H         2 RES2   0.0000
    88 C44      0.7201   6.3718   3.4746   C.3       2 RES2   0.0000
    89 H30      1.1075   5.4850   3.5329   H         2 RES2   0.0000
    90 H31     -0.1198   6.4089   3.9537   H         2 RES2   0.0000
    91 O1       1.6517   7.4875   3.8228   O.3       2 RES2   0.0000
    92 H32      2.3220   7.4412   3.3518   H         2 RES2   0.0000
    93 O2       3.8497   3.3176  19.4744   O.3       3 RES3   0.0000
    94 H33      4.2026   4.0927  19.4805   H         3 RES3   0.0000
    95 H34      3.0040   3.4284  19.4080   H         3 RES3   0.0000
    96 O3       8.2334   6.7308   2.8565   O.2       4 RES4   0.0000
    97 O4       7.4842   8.7154   1.7091   O.2       4 RES4   0.0000
    98 O5       6.7496   6.5104   0.9945   O.3       4 RES4  -1.0000
    99 S9       7.2564   7.3512   2.0650   S.o2      4 RES4   0.0000
   100 C45      5.8522   7.4333   3.0981   C.3       4 RES4   0.0000
   101 F1       5.4900   6.2430   3.6034   F         4 RES4   0.0000
   102 F2       4.7998   7.9478   2.6492   F         4 RES4   0.0000
   103 F3       6.1850   8.1819   4.2496   F         4 RES4   0.0000
   104 O6       0.3323  -0.0084  12.3864   O.2       5 RES5   0.0000
   105 O7       0.3017   1.2811  10.3170   O.2       5 RES5   0.0000
   106 O8      -1.2019  -0.5628  10.6129   O.3       5 RES5  -1.0000
   107 S10      0.2463   0.1218  11.0312   S.o2      5 RES5   0.0000
   108 C46      0.9874  -1.1424  10.2083   C.3       5 RES5   0.0000
   109 F4       0.9200  -2.3357  10.7740   F         5 RES5   0.0000
   110 F5       0.8638  -1.2426   8.9400   F         5 RES5   0.0000
   111 F6       2.3566  -0.5382  10.5928   F         5 RES5   0.0000
@<TRIPOS>BOND
     1     1    70    1
     2     2     3    1
     3     4     2    2
     4     5     4    1
     5     6     7    2
     6     7    78    1
     7     8     9    1
     8    10     8    2
     9    11    10    1
    10    12    11   ar
    11    13    12    1
    12    14    11   ar
    13    15    14    1
    14    16    12   ar
    15    17    16    1
    16    18    17   ar
    17    19    18    1
    18    20    18   ar
    19    21    20    1
    20    22    20   ar
    21    23    22    1
    22    24    22   ar
    23    25    24    1
    24    26    14   ar
    25    27    26    1
    26    28    27   ar
    27    29    28    1
    28    30    28   ar
    29    31    30    1
    30    32    30   ar
    31    33    32    1
    32    34    32   ar
    33    35    34    1
    34    36    37    1
    35    38    36   ar
    36    39    38    1
    37    40    38   ar
    38    41    40    1
    39    42    40   ar
    40    43    42    1
    41    44    42   ar
    42    45    44    1
    43    46    47    1
    44    47    48   ar
    45    48    49    1
    46    50    48   ar
    47    51    50    1
    48    52    50   ar
    49    53    52    1
    50    54    52   ar
    51    55    54    1
    52    56    46   ar
    53    57    56    1
    54    58    45   ar
    55    59    58    1
    56    60    56   ar
    57    61    60    1
    58    62    61    2
    59    63    62    1
    60    64    65    2
    61    65    82    1
    62    66    67    1
    63    68    66    2
    64    69    68    1
    65    70    16   ar
    66    71     1    1
    67    72     1    1
    68    73     1    1
    69    74     1    1
    70    75     1    1
    71    76     4    1
    72    77     2    1
    73    78     8    1
    74    79     7    1
    75    80    62    1
    76    81    61    1
    77    82    68    1
    78    83    65    1
    79     6    76    1
    80     6    77    1
    81    10    79    1
    82    17    71   ar
    83    24    71   ar
    84    26    70   ar
    85    27    72   ar
    86    34    72   ar
    87    36    73   ar
    88    44    73   ar
    89    45    74   ar
    90    46    74   ar
    91    47    75   ar
    92    54    75   ar
    93    58    60   ar
    94    64    80    1
    95    64    81    1
    96    66    83    1
    97    84    85    1
    98    86    84    1
    99    87    84    1
   100    88    84    1
   101    89    88    1
   102    90    88    1
   103    91    88    1
   104    92    91    1
   105    93    94    1
   106    95    93    1
   107    96    99    2
   108    97    99    2
   109    98    99    1
   110    99   100    1
   111   100   101    1
   112   102   100    1
   113   103   100    1
   114   104   107    2
   115   105   107    2
   116   106   107    1
   117   107   108    1
   118   108   109    1
   119   110   108    1
   120   111   108    1
@<TRIPOS>SUBSTRUCTURE
     1 RES1        1 GROUP             0 ****  ****    0  
     2 RES2       84 GROUP             0 ****  ****    0  
     3 RES3       93 GROUP             0 ****  ****    0  
     4 RES4       96 GROUP             0 ****  ****    0  
     5 RES5      104 GROUP             0 ****  ****    0  
@<TRIPOS>CRYSIN
   11.8180   12.0160   21.1700   92.7910  105.6370  110.3770     2     1
