@<TRIPOS>MOLECULE
YIQNOD
   117   124     7     0     0
SMALL
USER_CHARGES
****
Generated from the CSD

@<TRIPOS>ATOM
     1 Fe1      9.1367   9.0796   4.7308   Fe        1 RES1   2.0000
     2 S1       8.8537  13.3467  13.9597   S.3       1 RES1   0.0000
     3 S2       6.0083  13.3508  14.7114   S.3       1 RES1   0.0000
     4 S3       5.2340  12.3228  11.7323   S.3       1 RES1   0.0000
     5 S4       8.0886  12.1990  11.0331   S.3       1 RES1   0.0000
     6 S5      10.8936   7.3968  -2.0286   S.3       1 RES1   0.0000
     7 S6      11.7760   4.5779  -2.1357   S.3       1 RES1   0.0000
     8 S7      12.5563   4.8403  -5.1887   S.3       1 RES1   0.0000
     9 S8      11.7336   7.6779  -5.2182   S.3       1 RES1   0.0000
    10 C1       8.4601  13.6033  15.6183   C.2       1 RES1   0.0000
    11 H1       9.1219  13.7467  16.2566   H         1 RES1   0.0000
    12 C2       7.1842  13.5892  15.9436   C.2       1 RES1   0.0000
    13 H2       6.9210  13.7043  16.8290   H         1 RES1   0.0000
    14 C3       7.2118  13.0300  13.4562   C.2       1 RES1   0.0000
    15 C4       6.8834  12.5899  12.2393   C.2       1 RES1   0.0000
    16 C5       5.6601  11.5622  10.2317   C.2       1 RES1   0.0000
    17 H3       5.0009  11.2110   9.6778   H         1 RES1   0.0000
    18 C6       6.9511  11.4896   9.8878   C.2       1 RES1   0.0000
    19 C7       7.4675  10.9162   8.6482   C.ar      1 RES1   0.0000
    20 C8       8.8211  10.6396   8.4979   C.ar      1 RES1   0.0000
    21 H4       9.4076  10.8253   9.1939   H         1 RES1   0.0000
    22 C9       9.3024  10.0985   7.3366   C.ar      1 RES1   0.0000
    23 C10      6.6252  10.6416   7.5651   C.ar      1 RES1   0.0000
    24 H5       5.7178  10.8294   7.6269   H         1 RES1   0.0000
    25 C11      7.1366  10.0945   6.4182   C.ar      1 RES1   0.0000
    26 C12      6.4222   9.7412   5.1951   C.ar      1 RES1   0.0000
    27 C13      5.0535   9.8563   5.0077   C.ar      1 RES1   0.0000
    28 H6       4.5121  10.1793   5.6893   H         1 RES1   0.0000
    29 C14      4.5070   9.4868   3.8011   C.ar      1 RES1   0.0000
    30 H7       3.5896   9.5575   3.6611   H         1 RES1   0.0000
    31 C15      5.3267   9.0164   2.8107   C.ar      1 RES1   0.0000
    32 H8       4.9708   8.7640   1.9891   H         1 RES1   0.0000
    33 C16      6.6728   8.9195   3.0433   C.ar      1 RES1   0.0000
    34 H9       7.2218   8.6126   2.3577   H         1 RES1   0.0000
    35 C17     10.6780   9.6826   7.0236   C.ar      1 RES1   0.0000
    36 C18     11.7439   9.7896   7.8781   C.ar      1 RES1   0.0000
    37 H10     11.6336  10.1510   8.7265   H         1 RES1   0.0000
    38 C19     12.9922   9.3475   7.4539   C.ar      1 RES1   0.0000
    39 H11     13.7217   9.3738   8.0284   H         1 RES1   0.0000
    40 C20     13.1301   8.8771   6.1752   C.ar      1 RES1   0.0000
    41 H12     13.9648   8.6207   5.8561   H         1 RES1   0.0000
    42 C21     12.0221   8.7822   5.3722   C.ar      1 RES1   0.0000
    43 H13     12.1224   8.4390   4.5135   H         1 RES1   0.0000
    44 C22      8.4250   6.6704   6.3503   C.ar      1 RES1   0.0000
    45 H14      8.2671   7.2559   7.0545   H         1 RES1   0.0000
    46 C23      8.2044   5.3198   6.5500   C.ar      1 RES1   0.0000
    47 H15      7.8836   5.0089   7.3654   H         1 RES1   0.0000
    48 C24      8.4676   4.4598   5.5307   C.ar      1 RES1   0.0000
    49 H16      8.3373   3.5472   5.6481   H         1 RES1   0.0000
    50 C25      8.9289   4.9362   4.3262   C.ar      1 RES1   0.0000
    51 H17      9.1018   4.3527   3.6220   H         1 RES1   0.0000
    52 C26      9.1319   6.2990   4.1800   C.ar      1 RES1   0.0000
    53 C27      9.6558  11.9701   4.2109   C.ar      1 RES1   0.0000
    54 H18      9.3199  12.1316   5.0633   H         1 RES1   0.0000
    55 C28     10.0970  13.0360   3.4634   C.ar      1 RES1   0.0000
    56 H19     10.0418  13.9021   3.7990   H         1 RES1   0.0000
    57 C29     10.6209  12.8018   2.2053   C.ar      1 RES1   0.0000
    58 H20     10.9292  13.5085   1.6843   H         1 RES1   0.0000
    59 C30     10.6810  11.5279   1.7441   C.ar      1 RES1   0.0000
    60 H21     11.0445  11.3563   0.9039   H         1 RES1   0.0000
    61 C31     10.2048  10.4902   2.5142   C.ar      1 RES1   0.0000
    62 C32     10.1973   9.0689   2.1291   C.ar      1 RES1   0.0000
    63 C33     10.5783   8.5218   0.9142   C.ar      1 RES1   0.0000
    64 H22     10.8741   9.0729   0.2244   H         1 RES1   0.0000
    65 C34      9.6708   6.9491   2.9816   C.ar      1 RES1   0.0000
    66 C35     10.0544   6.3616   1.7997   C.ar      1 RES1   0.0000
    67 H23     10.0093   5.4389   1.7049   H         1 RES1   0.0000
    68 C36     10.5156   7.1489   0.7330   C.ar      1 RES1   0.0000
    69 C37     10.9417   6.4968  -0.5127   C.2       1 RES1   0.0000
    70 C38     11.3554   5.2411  -0.5992   C.2       1 RES1   0.0000
    71 H24     11.4155   4.7162   0.1668   H         1 RES1   0.0000
    72 C39     11.5484   6.0910  -2.9919   C.2       1 RES1   0.0000
    73 C40     11.8843   6.2122  -4.2809   C.2       1 RES1   0.0000
    74 C41     12.3781   6.9834  -6.6591   C.2       1 RES1   0.0000
    75 H25     12.4784   7.4982  -7.4272   H         1 RES1   0.0000
    76 C42     12.7240   5.7135  -6.6571   C.2       1 RES1   0.0000
    77 H26     13.0474   5.3037  -7.4251   H         1 RES1   0.0000
    78 N1       7.2283   9.2466   4.2129   N.ar      1 RES1   0.0000
    79 N2       8.4681   9.8385   6.3091   N.ar      1 RES1   0.0000
    80 N3      10.8099   9.1638   5.7675   N.ar      1 RES1   0.0000
    81 N4       8.8557   7.1752   5.1910   N.ar      1 RES1   0.0000
    82 N5       9.7506   8.2981   3.1340   N.ar      1 RES1   0.0000
    83 N6       9.6871  10.7185   3.7661   N.ar      1 RES1   0.0000
    84 C43      6.7556   2.6993   9.4410   C.3       2 RES2   0.0000
    85 H27      5.9258   2.3217   9.1403   H         2 RES2   0.0000
    86 H28      7.2343   2.0492   9.9578   H         2 RES2   0.0000
    87 H29      7.2820   2.9577   8.6812   H         2 RES2   0.0000
    88 C44      6.4949   3.8541  10.2708   C.3       2 RES2   0.0000
    89 H30      5.7153   3.6704  10.8185   H         2 RES2   0.0000
    90 H31      7.2469   3.9833  10.8720   H         2 RES2   0.0000
    91 O1       6.2668   5.0473   9.5542   O.3       2 RES2   0.0000
    92 C43A     5.7779   7.3952   9.4410   C.3       2 RES2   0.0000
    93 H27A     6.6077   7.7728   9.1403   H         2 RES2   0.0000
    94 H28A     5.2992   8.0453   9.9578   H         2 RES2   0.0000
    95 H29A     5.2515   7.1368   8.6812   H         2 RES2   0.0000
    96 C44A     6.0386   6.2404  10.2708   C.3       2 RES2   0.0000
    97 H30A     6.8182   6.4241  10.8185   H         2 RES2   0.0000
    98 H31A     5.2866   6.1112  10.8720   H         2 RES2   0.0000
    99 Cl1     10.1958   2.0791   0.5566   Cl        3 RES3   0.0000
   100 O2       9.8764   0.7490   0.9307   O.2       3 RES3   0.0000
   101 O3      11.6138   2.2026   0.4324   O.3       3 RES3  -1.0000
   102 O4       9.5856   2.3843  -0.6939   O.2       3 RES3   0.0000
   103 O5       9.7385   2.9920   1.5443   O.2       3 RES3   0.0000
   104 Cl2     10.5622  11.6157  18.2786   Cl        4 RES4   0.0000
   105 O6      11.5158  10.8475  18.9375   O.2       4 RES4   0.0000
   106 O7      11.1348  12.7191  17.6321   O.2       4 RES4   0.0000
   107 O8      10.0769  10.8314  17.2161   O.3       4 RES4  -1.0000
   108 O9       9.5706  11.9256  18.9993   O.2       4 RES4   0.0000
   109 O10      8.7233  16.1653  18.0789   O.3       5 RES5   0.0000
   110 H32      8.9514  15.7192  17.3912   H         5 RES5   0.0000
   111 H33      8.7634  16.9951  17.8998   H         5 RES5   0.0000
   112 O11     10.1446  15.6646  19.9115   O.3       6 RES6   0.0000
   113 H34     10.6284  14.9661  19.8744   H         6 RES6   0.0000
   114 H35     10.4429  16.3006  20.3892   H         6 RES6   0.0000
   115 O12      4.8780  15.1094  19.3123   O.3       7 RES7   0.0000
   116 H36      4.2990  14.7602  19.8291   H         7 RES7   0.0000
   117 H37      4.9658  15.9493  19.4153   H         7 RES7   0.0000
@<TRIPOS>BOND
     1     1    78    1
     2     2    10    1
     3     3    12    1
     4     4    15    1
     5     5    15    1
     6     6    69    1
     7     7    70    1
     8     8    73    1
     9     9    73    1
    10    10    11    1
    11    12    10    2
    12    13    12    1
    13    14     2    1
    14    15    14    2
    15    16     4    1
    16    17    16    1
    17    18     5    1
    18    19    18    1
    19    20    19   ar
    20    21    20    1
    21    22    20   ar
    22    23    19   ar
    23    24    23    1
    24    25    23   ar
    25    26    25    1
    26    27    26   ar
    27    28    27    1
    28    29    27   ar
    29    30    29    1
    30    31    29   ar
    31    32    31    1
    32    33    31   ar
    33    34    33    1
    34    35    22    1
    35    36    35   ar
    36    37    36    1
    37    38    36   ar
    38    39    38    1
    39    40    38   ar
    40    41    40    1
    41    42    40   ar
    42    43    42    1
    43    44    45    1
    44    46    44   ar
    45    47    46    1
    46    48    46   ar
    47    49    48    1
    48    50    48   ar
    49    51    50    1
    50    52    50   ar
    51    53    54    1
    52    55    53   ar
    53    56    55    1
    54    57    55   ar
    55    58    57    1
    56    59    57   ar
    57    60    59    1
    58    61    59   ar
    59    62    61    1
    60    63    62   ar
    61    64    63    1
    62    65    52    1
    63    66    65   ar
    64    67    66    1
    65    68    63   ar
    66    69    68    1
    67    70    69    2
    68    71    70    1
    69    72     6    1
    70    73    72    2
    71    74     9    1
    72    75    74    1
    73    76     8    1
    74    77    76    1
    75    78    26   ar
    76    79     1    1
    77    80     1    1
    78    81     1    1
    79    82     1    1
    80    83     1    1
    81     3    14    1
    82     7    72    1
    83    16    18    2
    84    22    79   ar
    85    25    79   ar
    86    33    78   ar
    87    35    80   ar
    88    42    80   ar
    89    44    81   ar
    90    52    81   ar
    91    53    83   ar
    92    61    83   ar
    93    62    82   ar
    94    65    82   ar
    95    66    68   ar
    96    74    76    2
    97    84    85    1
    98    86    84    1
    99    87    84    1
   100    88    84    1
   101    89    88    1
   102    90    88    1
   103    91    88    1
   104    92    93    1
   105    94    92    1
   106    95    92    1
   107    96    91    1
   108    97    96    1
   109    98    96    1
   110    92    96    1
   111    99   100    2
   112   101    99    1
   113   102    99    2
   114   103    99    2
   115   104   105    2
   116   106   104    2
   117   107   104    1
   118   108   104    2
   119   109   110    1
   120   111   109    1
   121   112   113    1
   122   114   112    1
   123   115   116    1
   124   117   115    1
@<TRIPOS>SUBSTRUCTURE
     1 RES1        1 GROUP             0 ****  ****    0  
     2 RES2       84 GROUP             0 ****  ****    0  
     3 RES3       99 GROUP             0 ****  ****    0  
     4 RES4      104 GROUP             0 ****  ****    0  
     5 RES5      109 GROUP             0 ****  ****    0  
     6 RES6      112 GROUP             0 ****  ****    0  
     7 RES7      115 GROUP             0 ****  ****    0  
@<TRIPOS>CRYSIN
   25.0670   20.1890   20.5910   90.0000   90.0000   90.0000    56     1
