@<TRIPOS>MOLECULE
YIQPAR
   123   131     6     0     0
SMALL
USER_CHARGES
****
Generated from the CSD

@<TRIPOS>ATOM
     1 Fe1      5.9366  10.3708   4.7924   Fe        1 RES1   2.0000
     2 S1       0.6678   6.6667  -1.3325   S.3       1 RES1   0.0000
     3 S2       3.5158   7.4366  -1.4803   S.3       1 RES1   0.0000
     4 S3       0.6440   6.2384  -4.5801   S.3       1 RES1   0.0000
     5 S4       3.5179   6.9204  -4.6610   S.3       1 RES1   0.0000
     6 S5      10.3264  12.4421  10.3563   S.3       1 RES1   0.0000
     7 S6       9.8004  15.2610  11.0484   S.3       1 RES1   0.0000
     8 S7      12.5401  12.3067  12.7561   S.3       1 RES1   0.0000
     9 S8      11.8943  15.0903  13.4911   S.3       1 RES1   0.0000
    10 C1       4.1721   8.7995   7.0838   C.ar      1 RES1   0.0000
    11 C2       2.9879   8.2439   7.5421   C.ar      1 RES1   0.0000
    12 H1       2.8850   8.0572   8.4469   H         1 RES1   0.0000
    13 C3       1.9692   7.9646   6.6760   C.ar      1 RES1   0.0000
    14 H2       1.1584   7.6362   6.9898   H         1 RES1   0.0000
    15 C4       2.1634   8.1801   5.3167   C.ar      1 RES1   0.0000
    16 H3       1.4920   7.9862   4.7013   H         1 RES1   0.0000
    17 C5       3.3722   8.6882   4.9033   C.ar      1 RES1   0.0000
    18 C6       3.7101   8.8291   3.4717   C.ar      1 RES1   0.0000
    19 C7       2.9972   8.2026   2.4658   C.ar      1 RES1   0.0000
    20 H4       2.2430   7.6972   2.6696   H         1 RES1   0.0000
    21 C8       3.4191   8.3383   1.1432   C.ar      1 RES1   0.0000
    22 C9       2.6800   7.7057   0.0477   C.2       1 RES1   0.0000
    23 C10      1.3964   7.3259   0.0917   C.2       1 RES1   0.0000
    24 H5       0.9040   7.4141   0.8763   H         1 RES1   0.0000
    25 C11      2.0803   6.9090  -2.3496   C.2       1 RES1   0.0000
    26 C12      2.0704   6.7108  -3.6824   C.2       1 RES1   0.0000
    27 C13      1.3932   6.4622  -6.1421   C.2       1 RES1   0.0000
    28 H6       0.8964   6.3786  -6.9266   H         1 RES1   0.0000
    29 C14      2.6782   6.7516  -6.1828   C.2       1 RES1   0.0000
    30 H7       3.1222   6.8614  -6.9918   H         1 RES1   0.0000
    31 C15      4.5409   9.1137   0.8989   C.ar      1 RES1   0.0000
    32 H8       4.8456   9.2255   0.0265   H         1 RES1   0.0000
    33 C16      5.2073   9.7193   1.9402   C.ar      1 RES1   0.0000
    34 C17      6.3963  10.5971   1.7648   C.ar      1 RES1   0.0000
    35 C18      6.9174  10.8576   0.5033   C.ar      1 RES1   0.0000
    36 H9       6.5602  10.4525  -0.2547   H         1 RES1   0.0000
    37 C19      7.9797  11.7332   0.4035   C.ar      1 RES1   0.0000
    38 H10      8.3482  11.9348  -0.4259   H         1 RES1   0.0000
    39 C20      8.4764  12.2938   1.5345   C.ar      1 RES1   0.0000
    40 H11      9.1971  12.8781   1.4774   H         1 RES1   0.0000
    41 C21      7.9195  12.0049   2.7837   C.ar      1 RES1   0.0000
    42 C22      3.7267  12.8573   4.5688   C.ar      1 RES1   0.0000
    43 C23      2.9767  13.8849   5.1170   C.ar      1 RES1   0.0000
    44 H12      2.2586  14.2375   4.6422   H         1 RES1   0.0000
    45 C24      3.2872  14.3897   6.3601   C.ar      1 RES1   0.0000
    46 H13      2.7793  15.0693   6.7392   H         1 RES1   0.0000
    47 C25      4.3790  13.8552   7.0346   C.ar      1 RES1   0.0000
    48 H14      4.6181  14.1698   7.8763   H         1 RES1   0.0000
    49 C26      5.1013  12.8474   6.4265   C.ar      1 RES1   0.0000
    50 C27      6.3696  12.3421   7.0179   C.ar      1 RES1   0.0000
    51 C28      6.9972  12.9791   8.0752   C.ar      1 RES1   0.0000
    52 H15      6.5945  13.7046   8.4937   H         1 RES1   0.0000
    53 C29      8.2463  12.5164   8.5066   C.ar      1 RES1   0.0000
    54 C30      8.7805  11.3837   7.8871   C.ar      1 RES1   0.0000
    55 H16      9.6043  11.0451   8.1514   H         1 RES1   0.0000
    56 C31      8.0656  10.7757   6.8771   C.ar      1 RES1   0.0000
    57 C32      8.5080   9.5057   6.2281   C.ar      1 RES1   0.0000
    58 C33      9.6250   8.8206   6.6434   C.ar      1 RES1   0.0000
    59 H17     10.1533   9.1521   7.3342   H         1 RES1   0.0000
    60 C34      9.9518   7.6269   6.0198   C.ar      1 RES1   0.0000
    61 H18     10.7184   7.1578   6.2603   H         1 RES1   0.0000
    62 C35      9.1302   7.1593   5.0498   C.ar      1 RES1   0.0000
    63 H19      9.3205   6.3479   4.6402   H         1 RES1   0.0000
    64 C36      8.0008   7.8821   4.6606   C.ar      1 RES1   0.0000
    65 C37      8.9786  13.2405   9.5616   C.2       1 RES1   0.0000
    66 C38      8.7460  14.5115   9.8978   C.2       1 RES1   0.0000
    67 H20      8.0361  14.9823   9.5228   H         1 RES1   0.0000
    68 C39     10.7231  13.8066  11.3916   C.2       1 RES1   0.0000
    69 C40     11.6007  13.7499  12.3982   C.2       1 RES1   0.0000
    70 C41     12.8267  14.1469  14.6175   C.2       1 RES1   0.0000
    71 H21     13.1159  14.5105  15.4224   H         1 RES1   0.0000
    72 C42     13.1111  12.9027  14.2914   C.2       1 RES1   0.0000
    73 H22     13.6007  12.3576  14.8640   H         1 RES1   0.0000
    74 N1       4.3634   9.0681   5.7604   N.ar      1 RES1   0.0000
    75 N2       4.8042   9.5636   3.2153   N.ar      1 RES1   0.0000
    76 N3       6.8855  11.1486   2.8958   N.ar      1 RES1   0.0000
    77 N4       4.7702  12.3176   5.2208   N.ar      1 RES1   0.0000
    78 N5       6.8987  11.2633   6.4321   N.ar      1 RES1   0.0000
    79 N6       7.6906   9.0563   5.2389   N.ar      1 RES1   0.0000
    80 C43      5.2806   9.1273   8.0352   C.3       1 RES1   0.0000
    81 H23      6.1268   8.9573   7.6134   H         1 RES1   0.0000
    82 H24      5.2000   8.5825   8.8218   H         1 RES1   0.0000
    83 H25      5.2290  10.0546   8.2818   H         1 RES1   0.0000
    84 C44      8.4634  12.6336   4.0146   C.3       1 RES1   0.0000
    85 H26      7.7587  13.0923   4.4792   H         1 RES1   0.0000
    86 H27      9.1509  13.2615   3.7782   H         1 RES1   0.0000
    87 H28      8.8331  11.9552   4.5852   H         1 RES1   0.0000
    88 C45      7.0961   7.3751   3.5927   C.3       1 RES1   0.0000
    89 H29      6.1862   7.4274   3.8923   H         1 RES1   0.0000
    90 H30      7.3157   6.4613   3.3950   H         1 RES1   0.0000
    91 H31      7.2039   7.9078   2.8020   H         1 RES1   0.0000
    92 C46      3.4007  12.3686   3.1953   C.3       1 RES1   0.0000
    93 H32      4.2149  12.2144   2.7103   H         1 RES1   0.0000
    94 H33      2.8751  13.0281   2.7389   H         1 RES1   0.0000
    95 H34      2.9046  11.5489   3.2585   H         1 RES1   0.0000
    96 Cl1     11.4492   9.5495   2.6714   Cl        2 RES2   0.0000
    97 O1      10.3555  10.0055   3.4317   O.2       2 RES2   0.0000
    98 O2      11.2008   9.6485   1.2635   O.2       2 RES2   0.0000
    99 O3      12.6115  10.3701   2.9610   O.3       2 RES2  -1.0000
   100 O4      11.7627   8.1887   2.9771   O.2       2 RES2   0.0000
   101 Cl2     12.1566   5.6178   9.3588   Cl        3 RES3   0.0000
   102 O5      11.5392   5.5791   8.0638   O.2       3 RES3   0.0000
   103 O6      11.1579   5.7767  10.3684   O.2       3 RES3   0.0000
   104 O7      13.0687   6.7198   9.4212   O.2       3 RES3   0.0000
   105 O8      12.8679   4.3857   9.5730   O.3       3 RES3  -1.0000
   106 C47      7.2557   2.1498   1.4163   C.3       4 RES4   0.0000
   107 H35      8.0447   2.0398   0.8803   H         4 RES4   0.0000
   108 H36      6.5191   2.3977   0.8539   H         4 RES4   0.0000
   109 H37      7.0539   1.3237   1.8626   H         4 RES4   0.0000
   110 C48      7.4616   3.0987   2.3191   C.1       4 RES4   0.0000
   111 N7       7.7021   3.9635   3.1098   N.1       4 RES4   0.0000
   112 C49     11.6413   8.9762  11.4853   C.3       5 RES5   0.0000
   113 H38     11.5770   8.0865  11.1327   H         5 RES5   0.0000
   114 H39     11.9123   9.5783  10.7884   H         5 RES5   0.0000
   115 H40     10.7866   9.2477  11.8277   H         5 RES5   0.0000
   116 C50     12.6219   9.0018  12.5572   C.1       5 RES5   0.0000
   117 N8      13.3829   9.0321  13.4172   N.1       5 RES5   0.0000
   118 C51      9.6749   9.0349  18.9377   C.3       6 RES6   0.0000
   119 H41      9.1205   8.4279  19.4329   H         6 RES6   0.0000
   120 H42     10.5481   8.6529  18.8256   H         6 RES6   0.0000
   121 H43      9.2826   9.1953  18.0757   H         6 RES6   0.0000
   122 C52      9.7814  10.2567  19.6408   C.1       6 RES6   0.0000
   123 N9       9.8441  11.2220  20.2338   N.1       6 RES6   0.0000
@<TRIPOS>BOND
     1     1    74    1
     2     2    23    1
     3     3    22    1
     4     4    26    1
     5     5    26    1
     6     6    65    1
     7     7    66    1
     8     8    69    1
     9     9    69    1
    10    10    11   ar
    11    11    12    1
    12    13    11   ar
    13    14    13    1
    14    15    13   ar
    15    16    15    1
    16    17    15   ar
    17    18    17    1
    18    19    18   ar
    19    20    19    1
    20    21    19   ar
    21    22    21    1
    22    23    22    2
    23    24    23    1
    24    25     2    1
    25    26    25    2
    26    27     4    1
    27    28    27    1
    28    29     5    1
    29    30    29    1
    30    31    21   ar
    31    32    31    1
    32    33    31   ar
    33    34    33    1
    34    35    34   ar
    35    36    35    1
    36    37    35   ar
    37    38    37    1
    38    39    37   ar
    39    40    39    1
    40    41    39   ar
    41    42    43   ar
    42    43    44    1
    43    45    43   ar
    44    46    45    1
    45    47    45   ar
    46    48    47    1
    47    49    47   ar
    48    50    49    1
    49    51    50   ar
    50    52    51    1
    51    53    51   ar
    52    54    53   ar
    53    55    54    1
    54    56    54   ar
    55    57    56    1
    56    58    57   ar
    57    59    58    1
    58    60    58   ar
    59    61    60    1
    60    62    60   ar
    61    63    62    1
    62    64    62   ar
    63    65    53    1
    64    66    65    2
    65    67    66    1
    66    68     6    1
    67    69    68    2
    68    70     9    1
    69    71    70    1
    70    72     8    1
    71    73    72    1
    72    74    10   ar
    73    75     1    1
    74    76     1    1
    75    77     1    1
    76    78     1    1
    77    79     1    1
    78    80    10    1
    79    81    80    1
    80    82    80    1
    81    83    80    1
    82    84    41    1
    83    85    84    1
    84    86    84    1
    85    87    84    1
    86    88    64    1
    87    89    88    1
    88    90    88    1
    89    91    88    1
    90    92    42    1
    91    93    92    1
    92    94    92    1
    93    95    92    1
    94     3    25    1
    95     7    68    1
    96    17    74   ar
    97    18    75   ar
    98    27    29    2
    99    33    75   ar
   100    34    76   ar
   101    41    76   ar
   102    42    77   ar
   103    49    77   ar
   104    50    78   ar
   105    56    78   ar
   106    57    79   ar
   107    64    79   ar
   108    70    72    2
   109    96    97    2
   110    98    96    2
   111    99    96    1
   112   100    96    2
   113   101   102    2
   114   103   101    2
   115   104   101    2
   116   105   101    1
   117   106   107    1
   118   108   106    1
   119   109   106    1
   120   110   106    1
   121   111   110    3
   122   112   113    1
   123   114   112    1
   124   115   112    1
   125   116   112    1
   126   117   116    3
   127   118   119    1
   128   120   118    1
   129   121   118    1
   130   122   118    1
   131   123   122    3
@<TRIPOS>SUBSTRUCTURE
     1 RES1        1 GROUP             0 ****  ****    0  
     2 RES2       96 GROUP             0 ****  ****    0  
     3 RES3      101 GROUP             0 ****  ****    0  
     4 RES4      106 GROUP             0 ****  ****    0  
     5 RES5      112 GROUP             0 ****  ****    0  
     6 RES6      118 GROUP             0 ****  ****    0  
@<TRIPOS>CRYSIN
   12.0730   12.3650   20.9020   77.5350   82.2910   66.8690     2     1
