@<TRIPOS>MOLECULE
YIYZIT
   100   105     1     0     0
SMALL
NO_CHARGES
****
Generated from the CSD

@<TRIPOS>ATOM
     1 Fe1     12.0466   8.4923   5.5500   Fe        1 RES1   0.0000
     2 Si1     15.1935   9.6301   6.2777   Si        1 RES1   0.0000
     3 Si2     13.0055  10.8046   7.9283   Si        1 RES1   0.0000
     4 O1      14.5402  10.2971   7.6301   O.3       1 RES1   0.0000
     5 N1      10.5488   9.3282   4.4797   N.2       1 RES1   0.0000
     6 N2      11.0201   6.8316   5.0479   N.2       1 RES1   0.0000
     7 C1       9.9341   8.4189   3.7036   C.2       1 RES1   0.0000
     8 C2       9.1258  11.0545   5.4502   C.ar      1 RES1   0.0000
     9 C3       8.7781  12.3997   5.5718   C.ar      1 RES1   0.0000
    10 H1       8.1488  12.6499   6.2079   H         1 RES1   0.0000
    11 C4      10.1915   7.0597   4.0223   C.2       1 RES1   0.0000
    12 C5      13.8437   9.4812   5.0114   C.2       1 RES1   0.0000
    13 H2      13.6806  10.3223   4.5359   H         1 RES1   0.0000
    14 C6      10.1073  10.6966   4.4988   C.ar      1 RES1   0.0000
    15 C7      11.0223   5.5096   5.6297   C.ar      1 RES1   0.0000
    16 C8      11.9699   4.5461   5.2461   C.ar      1 RES1   0.0000
    17 C9      11.8461   9.4285   7.4735   C.2       1 RES1   0.0000
    18 H3      10.9139   9.6102   7.7199   H         1 RES1   0.0000
    19 C10      9.5038   5.9495   3.2741   C.3       1 RES1   0.0000
    20 H4       9.9446   5.1166   3.4622   H         1 RES1   0.0000
    21 H5       9.5427   6.1259   2.3309   H         1 RES1   0.0000
    22 H6       8.5863   5.8972   3.5507   H         1 RES1   0.0000
    23 C11      8.4281  10.0036   6.3043   C.3       1 RES1   0.0000
    24 H7       9.0493   9.2535   6.4100   H         1 RES1   0.0000
    25 C12     13.6187   8.3528   4.2031   C.2       1 RES1   0.0000
    26 H8      14.2272   7.6070   4.3261   H         1 RES1   0.0000
    27 H9      13.4064   8.5246   3.2726   H         1 RES1   0.0000
    28 C13     11.9205   3.2825   5.8535   C.ar      1 RES1   0.0000
    29 H10     12.5425   2.6352   5.6128   H         1 RES1   0.0000
    30 C14     12.1910   8.0798   7.5822   C.2       1 RES1   0.0000
    31 H11     11.5103   7.4920   7.9499   H         1 RES1   0.0000
    32 H12     13.0827   7.8913   7.9188   H         1 RES1   0.0000
    33 C15     10.2685  12.9991   3.8143   C.ar      1 RES1   0.0000
    34 H13     10.6316  13.6528   3.2617   H         1 RES1   0.0000
    35 C16     10.0485   5.2092   6.6014   C.ar      1 RES1   0.0000
    36 C17      9.3494  13.3694   4.7676   C.ar      1 RES1   0.0000
    37 H14      9.1150  14.2628   4.8700   H         1 RES1   0.0000
    38 C18     12.8903  11.1634   9.7560   C.3       1 RES1   0.0000
    39 H15     12.9525  10.3417  10.2482   H         1 RES1   0.0000
    40 H16     12.0504  11.5889   9.9467   H         1 RES1   0.0000
    41 H17     13.6105  11.7452  10.0135   H         1 RES1   0.0000
    42 C19     10.6722  11.6702   3.6497   C.ar      1 RES1   0.0000
    43 C20      8.9905   8.7818   2.5859   C.3       1 RES1   0.0000
    44 H18      8.7529   9.7097   2.6557   H         1 RES1   0.0000
    45 H19      8.1967   8.2429   2.6479   H         1 RES1   0.0000
    46 H20      9.4183   8.6241   1.7420   H         1 RES1   0.0000
    47 C21     13.0137   4.8025   4.1867   C.3       1 RES1   0.0000
    48 H21     12.8369   5.6826   3.7947   H         1 RES1   0.0000
    49 C22     10.9664   2.9826   6.8008   C.ar      1 RES1   0.0000
    50 H22     10.9422   2.1376   7.1885   H         1 RES1   0.0000
    51 C23     15.9565   7.9850   6.6721   C.3       1 RES1   0.0000
    52 H23     16.6105   8.0942   7.3656   H         1 RES1   0.0000
    53 H24     16.3800   7.6316   5.8863   H         1 RES1   0.0000
    54 H25     15.2754   7.3783   6.9694   H         1 RES1   0.0000
    55 C24     16.5229  10.7780   5.6776   C.3       1 RES1   0.0000
    56 H26     16.1192  11.5695   5.3129   H         1 RES1   0.0000
    57 H27     17.0415  10.3404   4.9990   H         1 RES1   0.0000
    58 H28     17.0943  11.0176   6.4115   H         1 RES1   0.0000
    59 C25      7.1707   9.4587   5.6201   C.3       1 RES1   0.0000
    60 H29      6.5409  10.1724   5.4900   H         1 RES1   0.0000
    61 H30      6.7742   8.7805   6.1722   H         1 RES1   0.0000
    62 H31      7.4069   9.0816   4.7690   H         1 RES1   0.0000
    63 C26     10.0477   3.9360   7.1706   C.ar      1 RES1   0.0000
    64 H32      9.4122   3.7273   7.8147   H         1 RES1   0.0000
    65 C27     12.6173  12.3514   6.9764   C.3       1 RES1   0.0000
    66 H33     13.2180  13.0518   7.2444   H         1 RES1   0.0000
    67 H34     11.7145  12.6189   7.1543   H         1 RES1   0.0000
    68 H35     12.7217  12.1834   6.0370   H         1 RES1   0.0000
    69 C28     11.6595  11.3390   2.5461   C.3       1 RES1   0.0000
    70 H36     11.9490  10.4102   2.6603   H         1 RES1   0.0000
    71 C29      8.9714   6.1873   7.0354   C.3       1 RES1   0.0000
    72 H37      9.1719   7.0577   6.6337   H         1 RES1   0.0000
    73 C30     12.9021  12.2450   2.5859   C.3       1 RES1   0.0000
    74 H38     12.6467  13.1488   2.3915   H         1 RES1   0.0000
    75 H39     13.5401  11.9443   1.9315   H         1 RES1   0.0000
    76 H40     13.2992  12.2066   3.4590   H         1 RES1   0.0000
    77 C31      8.0651  10.4942   7.7048   C.3       1 RES1   0.0000
    78 H41      8.8334  10.9013   8.1099   H         1 RES1   0.0000
    79 H42      7.7787   9.7511   8.2405   H         1 RES1   0.0000
    80 H43      7.3544  11.1378   7.6438   H         1 RES1   0.0000
    81 C32     10.9916  11.4732   1.1681   C.3       1 RES1   0.0000
    82 H44     10.2837  10.8276   1.0909   H         1 RES1   0.0000
    83 H45     11.6447  11.3188   0.4802   H         1 RES1   0.0000
    84 H46     10.6308  12.3565   1.0722   H         1 RES1   0.0000
    85 C33     14.4126   4.8335   4.8100   C.3       1 RES1   0.0000
    86 H47     14.4438   5.5056   5.4947   H         1 RES1   0.0000
    87 H48     15.0595   5.0364   4.1319   H         1 RES1   0.0000
    88 H49     14.6095   3.9754   5.1948   H         1 RES1   0.0000
    89 C34      7.5915   5.7447   6.5405   C.3       1 RES1   0.0000
    90 H50      7.6027   5.6762   5.5833   H         1 RES1   0.0000
    91 H51      6.9331   6.3909   6.8078   H         1 RES1   0.0000
    92 H52      7.3728   4.8904   6.9212   H         1 RES1   0.0000
    93 C35     12.9398   3.7592   3.0642   C.3       1 RES1   0.0000
    94 H53     13.1544   2.8924   3.4171   H         1 RES1   0.0000
    95 H54     13.5677   3.9870   2.3728   H         1 RES1   0.0000
    96 H55     12.0518   3.7441   2.6992   H         1 RES1   0.0000
    97 C36      8.9408   6.3637   8.5562   C.3       1 RES1   0.0000
    98 H56      8.6116   5.5599   8.9646   H         1 RES1   0.0000
    99 H57      8.3637   7.0965   8.7812   H         1 RES1   0.0000
   100 H58      9.8297   6.5447   8.8745   H         1 RES1   0.0000
@<TRIPOS>BOND
     1     1     5    1
     2     2     4    1
     3     3     4    1
     4     5     7    2
     5     6     1    1
     6     7    11    1
     7     8     9   ar
     8     9    10    1
     9    11     6    2
    10    12     1   un
    11    13    12    1
    12    14     5    1
    13    15     6    1
    14    16    15   ar
    15    17     1   un
    16    18    17    1
    17    19    11    1
    18    20    19    1
    19    21    19    1
    20    22    19    1
    21    23     8    1
    22    24    23    1
    23    25     1   un
    24    26    25    1
    25    27    25    1
    26    28    16   ar
    27    29    28    1
    28    30     1   un
    29    31    30    1
    30    32    30    1
    31    33    34    1
    32    35    15   ar
    33    36     9   ar
    34    37    36    1
    35    38     3    1
    36    39    38    1
    37    40    38    1
    38    41    38    1
    39    42    14   ar
    40    43     7    1
    41    44    43    1
    42    45    43    1
    43    46    43    1
    44    47    16    1
    45    48    47    1
    46    49    28   ar
    47    50    49    1
    48    51     2    1
    49    52    51    1
    50    53    51    1
    51    54    51    1
    52    55     2    1
    53    56    55    1
    54    57    55    1
    55    58    55    1
    56    59    23    1
    57    60    59    1
    58    61    59    1
    59    62    59    1
    60    63    35   ar
    61    64    63    1
    62    65     3    1
    63    66    65    1
    64    67    65    1
    65    68    65    1
    66    69    42    1
    67    70    69    1
    68    71    35    1
    69    72    71    1
    70    73    69    1
    71    74    73    1
    72    75    73    1
    73    76    73    1
    74    77    23    1
    75    78    77    1
    76    79    77    1
    77    80    77    1
    78    81    69    1
    79    82    81    1
    80    83    81    1
    81    84    81    1
    82    85    47    1
    83    86    85    1
    84    87    85    1
    85    88    85    1
    86    89    71    1
    87    90    89    1
    88    91    89    1
    89    92    89    1
    90    93    47    1
    91    94    93    1
    92    95    93    1
    93    96    93    1
    94    97    71    1
    95    98    97    1
    96    99    97    1
    97   100    97    1
    98     2    12    1
    99     3    17    1
   100     8    14   ar
   101    12    25    2
   102    17    30    2
   103    33    36   ar
   104    33    42   ar
   105    49    63   ar
@<TRIPOS>SUBSTRUCTURE
     1 RES1        1 GROUP             0 ****  ****    0  
@<TRIPOS>CRYSIN
   36.0951   12.9239   16.8544   90.0000  112.7840   90.0000    15     1
