@<TRIPOS>MOLECULE
YIZFAQ
   109   111     6     0     0
SMALL
USER_CHARGES
****
Generated from the CSD

@<TRIPOS>ATOM
     1 Fe1      3.2184   0.3412   3.9562   Fe        1 RES1   1.0000
     2 C1       1.1974   2.5083   7.0867   C.ar      1 RES1   0.0000
     3 C2       0.4385   2.1921   8.1677   C.ar      1 RES1   0.0000
     4 H1       0.3493   1.2829   8.4330   H         1 RES1   0.0000
     5 C3      -0.2107   3.1928   8.8937   C.ar      1 RES1   0.0000
     6 H2      -0.7208   2.9684   9.6632   H         1 RES1   0.0000
     7 C4      -0.1129   4.4714   8.5017   C.ar      1 RES1   0.0000
     8 H3      -0.5470   5.1540   8.9993   H         1 RES1   0.0000
     9 C5       0.6127   4.7979   7.3876   C.ar      1 RES1   0.0000
    10 H4       0.6490   5.7003   7.0959   H         1 RES1   0.0000
    11 C6       1.2858   3.8305   6.6920   C.ar      1 RES1   0.0000
    12 H5       1.8139   4.0667   5.9384   H         1 RES1   0.0000
    13 C7       1.8797   1.4821   6.2419   C.2       1 RES1   0.0000
    14 C8       2.3773  -1.9334   5.8658   C.2       1 RES1   0.0000
    15 H6       1.9873  -2.2148   6.6854   H         1 RES1   0.0000
    16 C9       2.8894  -2.9239   5.0012   C.ar      1 RES1   0.0000
    17 C10      2.8160  -4.2848   5.3787   C.ar      1 RES1   0.0000
    18 H7       2.4151  -4.5044   6.2116   H         1 RES1   0.0000
    19 C11      3.2905  -5.2880   4.6079   C.ar      1 RES1   0.0000
    20 H8       3.2432  -6.1833   4.9194   H         1 RES1   0.0000
    21 C12      3.8570  -5.0165   3.3394   C.ar      1 RES1   0.0000
    22 C13      3.9265  -3.6795   2.9368   C.ar      1 RES1   0.0000
    23 H9       4.2965  -3.4728   2.0868   H         1 RES1   0.0000
    24 C14      3.4700  -2.6460   3.7446   C.ar      1 RES1   0.0000
    25 C15      4.4731  -7.4289   3.0477   C.3       1 RES1   0.0000
    26 H10      5.2369  -7.8630   2.5923   H         1 RES1   0.0000
    27 H11      4.6620  -7.4173   4.0192   H         1 RES1   0.0000
    28 C16      3.2554  -8.1974   2.7969   C.3       1 RES1   0.0000
    29 H12      2.5010  -7.7736   3.2576   H         1 RES1   0.0000
    30 H13      3.3697  -9.1108   3.1309   H         1 RES1   0.0000
    31 H14      3.0764  -8.2213   1.8334   H         1 RES1   0.0000
    32 C17      4.7662  -5.7849   1.1734   C.3       1 RES1   0.0000
    33 H15      4.2130  -5.0686   0.7722   H         1 RES1   0.0000
    34 H16      4.6407  -6.6077   0.6375   H         1 RES1   0.0000
    35 C18      6.1844  -5.3869   1.1417   C.3       1 RES1   0.0000
    36 H17      6.2666  -4.4460   1.4044   H         1 RES1   0.0000
    37 H18      6.5362  -5.5044   0.2349   H         1 RES1   0.0000
    38 H19      6.6951  -5.9457   1.7647   H         1 RES1   0.0000
    39 C19     -0.0907   1.2428   1.3199   C.ar      1 RES1   0.0000
    40 C20     -1.1690   0.5378   1.8624   C.ar      1 RES1   0.0000
    41 H20     -1.0590  -0.0074   2.6333   H         1 RES1   0.0000
    42 C21     -2.4118   0.6561   1.2421   C.ar      1 RES1   0.0000
    43 H21     -3.1715   0.2313   1.6235   H         1 RES1   0.0000
    44 C22     -2.5482   1.3719   0.1003   C.ar      1 RES1   0.0000
    45 H22     -3.3920   1.3992  -0.3353   H         1 RES1   0.0000
    46 C23     -1.4961   2.0517  -0.4343   C.ar      1 RES1   0.0000
    47 H23     -1.6119   2.5514  -1.2328   H         1 RES1   0.0000
    48 C24     -0.2624   2.0165   0.1861   C.ar      1 RES1   0.0000
    49 H24      0.4639   2.5186  -0.1650   H         1 RES1   0.0000
    50 C25      4.4827   2.2646   1.9271   C.2       1 RES1   0.0000
    51 H25      4.4139   2.7881   1.1378   H         1 RES1   0.0000
    52 C26      5.7121   2.2823   2.6214   C.ar      1 RES1   0.0000
    53 C27      5.9674   1.5601   3.8186   C.ar      1 RES1   0.0000
    54 C28      7.1970   1.6889   4.4482   C.ar      1 RES1   0.0000
    55 H26      7.3632   1.1714   5.2282   H         1 RES1   0.0000
    56 C29      8.2090   2.5509   3.9835   C.ar      1 RES1   0.0000
    57 C30      7.9644   3.2302   2.7758   C.ar      1 RES1   0.0000
    58 H27      8.6400   3.7872   2.4062   H         1 RES1   0.0000
    59 C31      6.7693   3.0963   2.1290   C.ar      1 RES1   0.0000
    60 H28      6.6379   3.5685   1.3146   H         1 RES1   0.0000
    61 C32      9.6560   2.0659   5.9304   C.3       1 RES1   0.0000
    62 H29      8.8110   1.9532   6.4320   H         1 RES1   0.0000
    63 H30     10.2538   2.6464   6.4650   H         1 RES1   0.0000
    64 C33     10.3157   0.7015   5.7364   C.3       1 RES1   0.0000
    65 H31      9.7320   0.1301   5.1966   H         1 RES1   0.0000
    66 H32     10.4652   0.2842   6.6102   H         1 RES1   0.0000
    67 H33     11.1754   0.8155   5.2797   H         1 RES1   0.0000
    68 C34     10.4054   3.6762   4.2291   C.3       1 RES1   0.0000
    69 H34     10.4257   3.7075   3.2404   H         1 RES1   0.0000
    70 H35     11.2938   3.3722   4.5432   H         1 RES1   0.0000
    71 C35     10.1381   5.0565   4.7623   C.3       1 RES1   0.0000
    72 H36      9.3429   5.4267   4.3254   H         1 RES1   0.0000
    73 H37     10.9087   5.6313   4.5788   H         1 RES1   0.0000
    74 H38      9.9880   5.0094   5.7298   H         1 RES1   0.0000
    75 C36      1.2187   1.1260   2.0235   C.2       1 RES1   0.0000
    76 N1       1.7862   0.2010   6.5270   N.am      1 RES1   0.0000
    77 H39      1.3634  -0.0935   7.2411   H         1 RES1   0.0000
    78 N2       2.4083  -0.6617   5.6097   N.2       1 RES1   0.0000
    79 N3       4.3297  -6.0257   2.5501   N.pl3     1 RES1   0.0000
    80 N4       2.3031   1.7388   1.5311   N.am      1 RES1   0.0000
    81 H40      2.2891   2.2019   0.7840   H         1 RES1   0.0000
    82 N5       3.4405   1.5829   2.2914   N.2       1 RES1   0.0000
    83 N6       9.3787   2.7044   4.6633   N.pl3     1 RES1   0.0000
    84 O1       2.5414   1.8480   5.2150   O.2       1 RES1   0.0000
    85 O2       3.5823  -1.4033   3.2840   O.3       1 RES1   0.0000
    86 O3       1.3314   0.4383   3.0834   O.2       1 RES1   0.0000
    87 O4       5.0708   0.7763   4.3426   O.3       1 RES1   0.0000
    88 Cl1     -1.7376   0.5914  12.2637   Cl        2 RES2  -1.0000
    89 O5       0.1585  -1.1793   8.3723   O.3       3 RES3   0.0000
    90 H41      0.5338  -1.2290   9.0996   H         3 RES3   0.0000
    91 H42     -0.6334  -0.9691   8.3947   H         3 RES3   0.0000
    92 C37      1.2355  -1.8767  11.8134   C.3       4 RES4   0.0000
    93 H43      0.5796  -2.3882  12.3387   H         4 RES4   0.0000
    94 H44      1.7105  -1.2578  12.4060   H         4 RES4   0.0000
    95 H45      1.8808  -2.5015  11.4134   H         4 RES4   0.0000
    96 O6       0.6306  -1.2589  10.7970   O.3       4 RES4   0.0000
    97 H46      0.0182  -0.8197  11.1244   H         4 RES4   0.0000
    98 C38     -3.7374  -0.3491   8.9940   C.3       5 RES5   0.0000
    99 H47     -3.8327  -0.1656   8.0370   H         5 RES5   0.0000
   100 H48     -4.1276   0.3891   9.5088   H         5 RES5   0.0000
   101 H49     -4.2046  -1.1820   9.2157   H         5 RES5   0.0000
   102 O7      -2.4154  -0.4675   9.3134   O.3       5 RES5   0.0000
   103 H50     -2.2397  -0.2017  10.0684   H         5 RES5   0.0000
   104 C39     -4.7042   2.7761  11.5626   C.3       6 RES6   0.0000
   105 H51     -5.1121   2.1903  10.9000   H         6 RES6   0.0000
   106 H52     -5.2279   3.6045  11.6391   H         6 RES6   0.0000
   107 H53     -4.6814   2.3292  12.4350   H         6 RES6   0.0000
   108 O8      -3.3956   3.0189  11.1323   O.3       6 RES6   0.0000
   109 H54     -2.9650   2.3716  11.4042   H         6 RES6   0.0000
@<TRIPOS>BOND
     1     1    78    1
     2     2     3   ar
     3     3     4    1
     4     5     3   ar
     5     6     5    1
     6     7     5   ar
     7     8     7    1
     8     9     7   ar
     9    10     9    1
    10    11     2   ar
    11    12    11    1
    12    13     2    1
    13    14    15    1
    14    16    14    1
    15    17    16   ar
    16    18    17    1
    17    19    17   ar
    18    20    19    1
    19    21    19   ar
    20    22    21   ar
    21    23    22    1
    22    24    16   ar
    23    25    26    1
    24    27    25    1
    25    28    25    1
    26    29    28    1
    27    30    28    1
    28    31    28    1
    29    32    33    1
    30    34    32    1
    31    35    32    1
    32    36    35    1
    33    37    35    1
    34    38    35    1
    35    39    40   ar
    36    40    41    1
    37    42    40   ar
    38    43    42    1
    39    44    42   ar
    40    45    44    1
    41    46    44   ar
    42    47    46    1
    43    48    39   ar
    44    49    48    1
    45    50    51    1
    46    52    50    1
    47    53    52   ar
    48    54    53   ar
    49    55    54    1
    50    56    54   ar
    51    57    56   ar
    52    58    57    1
    53    59    52   ar
    54    60    59    1
    55    61    62    1
    56    63    61    1
    57    64    61    1
    58    65    64    1
    59    66    64    1
    60    67    64    1
    61    68    69    1
    62    70    68    1
    63    71    68    1
    64    72    71    1
    65    73    71    1
    66    74    71    1
    67    75    39    1
    68    76    13   am
    69    77    76    1
    70    78    14    2
    71    79    21    1
    72    80    75   am
    73    81    80    1
    74    82     1    1
    75    83    56    1
    76    84     1    1
    77    85     1    1
    78    86     1    1
    79    87     1    1
    80     9    11   ar
    81    13    84    2
    82    22    24   ar
    83    24    85    1
    84    25    79    1
    85    32    79    1
    86    46    48   ar
    87    50    82    2
    88    53    87    1
    89    57    59   ar
    90    61    83    1
    91    68    83    1
    92    75    86    2
    93    76    78    1
    94    80    82    1
    95    89    90    1
    96    91    89    1
    97    92    93    1
    98    94    92    1
    99    95    92    1
   100    96    92    1
   101    97    96    1
   102    98    99    1
   103   100    98    1
   104   101    98    1
   105   102    98    1
   106   103   102    1
   107   104   105    1
   108   106   104    1
   109   107   104    1
   110   108   104    1
   111   109   108    1
@<TRIPOS>SUBSTRUCTURE
     1 RES1        1 GROUP             0 ****  ****    0  
     2 RES2       88 GROUP             0 ****  ****    0  
     3 RES3       89 GROUP             0 ****  ****    0  
     4 RES4       92 GROUP             0 ****  ****    0  
     5 RES5       98 GROUP             0 ****  ****    0  
     6 RES6      104 GROUP             0 ****  ****    0  
@<TRIPOS>CRYSIN
   12.3110   13.1320   14.2990   99.4090  108.6110   98.7610     2     1
