@<TRIPOS>MOLECULE
YOGKEK
   137   148     2     0     0
SMALL
USER_CHARGES
****
Generated from the CSD

@<TRIPOS>ATOM
     1 Fe1      2.4426   0.9312   2.6823   Fe        1 RES1   1.0000
     2 P1       1.8892   0.1480   4.6797   P.3       1 RES1   0.0000
     3 P2       4.0467  -0.4187   1.8498   P.3       1 RES1   0.0000
     4 P3       2.3100   2.7233   1.3948   P.3       1 RES1   0.0000
     5 N1       4.0131   1.9130   3.7121   N.3       1 RES1   0.0000
     6 N2       1.0730   0.0559   1.8902   N.1       1 RES1   0.0000
     7 N3       0.2457  -0.5071   1.4258   N.1       1 RES1   0.0000
     8 C1       3.5577   2.2848   5.0836   C.3       1 RES1   0.0000
     9 C2       2.9495   1.1063   5.8446   C.3       1 RES1   0.0000
    10 C3       5.2277   1.0142   3.8146   C.3       1 RES1   0.0000
    11 C4       5.5893   0.3682   2.5177   C.3       1 RES1   0.0000
    12 C5       4.4620   3.1853   3.0349   C.3       1 RES1   0.0000
    13 C6       3.2861   3.9126   2.3857   C.3       1 RES1   0.0000
    14 C7       0.1460   0.5577   5.1146   C.ar      1 RES1   0.0000
    15 C8      -0.8335  -0.4024   5.1705   C.ar      1 RES1   0.0000
    16 C9      -2.1506  -0.0523   5.4113   C.ar      1 RES1   0.0000
    17 C10     -2.4939   1.2831   5.5961   C.ar      1 RES1   0.0000
    18 C11     -1.5027   2.2450   5.5619   C.ar      1 RES1   0.0000
    19 C12     -0.1964   1.9148   5.3150   C.ar      1 RES1   0.0000
    20 C13      1.9909  -1.5683   5.2218   C.ar      1 RES1   0.0000
    21 C14      1.5944  -2.5934   4.3396   C.ar      1 RES1   0.0000
    22 C15      1.5911  -3.9397   4.7512   C.ar      1 RES1   0.0000
    23 C16      2.0017  -4.2374   6.0093   C.ar      1 RES1   0.0000
    24 C17      2.4095  -3.2809   6.9054   C.ar      1 RES1   0.0000
    25 C18      2.3991  -1.9346   6.5032   C.ar      1 RES1   0.0000
    26 C19      4.2037  -2.1747   2.3484   C.ar      1 RES1   0.0000
    27 C20      4.8199  -2.5302   3.5133   C.ar      1 RES1   0.0000
    28 C21      4.9306  -3.8657   3.8969   C.ar      1 RES1   0.0000
    29 C22      4.3951  -4.8402   3.1095   C.ar      1 RES1   0.0000
    30 C23      3.7683  -4.5045   1.9244   C.ar      1 RES1   0.0000
    31 C24      3.6255  -3.1636   1.5485   C.ar      1 RES1   0.0000
    32 C25      4.3614  -0.5414   0.0528   C.ar      1 RES1   0.0000
    33 C26      3.2985  -0.3790  -0.8527   C.ar      1 RES1   0.0000
    34 C27      3.5446  -0.5107  -2.2071   C.ar      1 RES1   0.0000
    35 C28      4.7948  -0.8193  -2.6839   C.ar      1 RES1   0.0000
    36 C29      5.8286  -1.0016  -1.7955   C.ar      1 RES1   0.0000
    37 C30      5.6271  -0.8717  -0.4287   C.ar      1 RES1   0.0000
    38 C31      2.9035   2.9092  -0.3044   C.ar      1 RES1   0.0000
    39 C32      4.2650   2.9850  -0.6213   C.ar      1 RES1   0.0000
    40 C33      4.7241   3.0969  -1.9524   C.ar      1 RES1   0.0000
    41 C34      3.8175   3.1600  -2.9262   C.ar      1 RES1   0.0000
    42 C35      2.4835   3.0536  -2.7352   C.ar      1 RES1   0.0000
    43 C36      2.0322   2.9164  -1.4041   C.ar      1 RES1   0.0000
    44 C37      0.6973   3.5805   1.3062   C.ar      1 RES1   0.0000
    45 C38     -0.4859   3.0283   1.8281   C.ar      1 RES1   0.0000
    46 C39     -1.6361   3.7538   1.8079   C.ar      1 RES1   0.0000
    47 C40     -1.7032   5.0315   1.2658   C.ar      1 RES1   0.0000
    48 C41     -0.5457   5.5837   0.7145   C.ar      1 RES1   0.0000
    49 C42      0.6441   4.8619   0.7098   C.ar      1 RES1   0.0000
    50 H1       1.6263   1.8570   3.3424   H         1 RES1   0.0000
    51 H2       4.3126   2.6150   5.5775   H         1 RES1   0.0000
    52 H3       2.8954   2.9760   5.0106   H         1 RES1   0.0000
    53 H4       3.6480   0.5450   6.1848   H         1 RES1   0.0000
    54 H5       2.4175   1.4311   6.5762   H         1 RES1   0.0000
    55 H6       5.0447   0.3248   4.4592   H         1 RES1   0.0000
    56 H7       5.9724   1.5394   4.1144   H         1 RES1   0.0000
    57 H8       5.9158   1.0287   1.9011   H         1 RES1   0.0000
    58 H9       6.2668  -0.2978   2.6575   H         1 RES1   0.0000
    59 H10      4.8650   3.7610   3.6888   H         1 RES1   0.0000
    60 H11      5.1081   2.9669   2.3593   H         1 RES1   0.0000
    61 H12      2.7295   4.2952   3.0675   H         1 RES1   0.0000
    62 H13      3.6181   4.6092   1.8141   H         1 RES1   0.0000
    63 H14     -0.6034  -1.3265   5.0385   H         1 RES1   0.0000
    64 H15     -2.8280  -0.7309   5.4532   H         1 RES1   0.0000
    65 H16     -3.4081   1.5340   5.7452   H         1 RES1   0.0000
    66 H17     -1.7339   3.1636   5.7142   H         1 RES1   0.0000
    67 H18      0.4771   2.5970   5.2777   H         1 RES1   0.0000
    68 H19      1.3218  -2.3714   3.4465   H         1 RES1   0.0000
    69 H20      1.3042  -4.6327   4.1532   H         1 RES1   0.0000
    70 H21      2.0051  -5.1578   6.2857   H         1 RES1   0.0000
    71 H22      2.6958  -3.5246   7.7892   H         1 RES1   0.0000
    72 H23      2.6781  -1.2561   7.1198   H         1 RES1   0.0000
    73 H24      5.1845  -1.8462   4.0787   H         1 RES1   0.0000
    74 H25      5.3836  -4.0967   4.7108   H         1 RES1   0.0000
    75 H26      4.4491  -5.7588   3.3797   H         1 RES1   0.0000
    76 H27      3.4296  -5.1975   1.3528   H         1 RES1   0.0000
    77 H28      3.1407  -2.9272   0.7548   H         1 RES1   0.0000
    78 H29      2.4155  -0.1805  -0.5358   H         1 RES1   0.0000
    79 H30      2.8237  -0.3862  -2.8283   H         1 RES1   0.0000
    80 H31      4.9460  -0.9060  -3.6282   H         1 RES1   0.0000
    81 H32      6.7023  -1.2200  -2.1263   H         1 RES1   0.0000
    82 H33      6.3546  -1.0088   0.1817   H         1 RES1   0.0000
    83 H34      4.9085   2.9561   0.0901   H         1 RES1   0.0000
    84 H35      5.6641   3.1257  -2.1481   H         1 RES1   0.0000
    85 H36      4.1331   3.2936  -3.8239   H         1 RES1   0.0000
    86 H37      1.8707   3.0680  -3.4729   H         1 RES1   0.0000
    87 H38      1.0890   2.8244  -1.2457   H         1 RES1   0.0000
    88 H39     -0.4818   2.1404   2.1962   H         1 RES1   0.0000
    89 H40     -2.4312   3.3694   2.1838   H         1 RES1   0.0000
    90 H41     -2.5272   5.5242   1.2689   H         1 RES1   0.0000
    91 H42     -0.5707   6.4662   0.3370   H         1 RES1   0.0000
    92 H43      1.4303   5.2336   0.3013   H         1 RES1   0.0000
    93 B1       9.5946  17.4172   4.6005   B         2 RES2  -1.0000
    94 C43     11.1215  17.5850   5.1938   C.ar      2 RES2   0.0000
    95 C44     11.5095  18.6407   6.0201   C.ar      2 RES2   0.0000
    96 C45     12.7300  18.7039   6.6818   C.ar      2 RES2   0.0000
    97 C46     13.6307  17.6626   6.5280   C.ar      2 RES2   0.0000
    98 C47     13.3218  16.6429   5.6878   C.ar      2 RES2   0.0000
    99 C48     12.1145  16.5906   5.0090   C.ar      2 RES2   0.0000
   100 C49      8.9360  18.9223   4.3815   C.ar      2 RES2   0.0000
   101 C50      8.8429  19.5088   3.1048   C.ar      2 RES2   0.0000
   102 C51      8.3514  20.8028   2.9215   C.ar      2 RES2   0.0000
   103 C52      7.9272  21.5355   3.9591   C.ar      2 RES2   0.0000
   104 C53      7.9945  21.0302   5.2420   C.ar      2 RES2   0.0000
   105 C54      8.4961  19.7308   5.4330   C.ar      2 RES2   0.0000
   106 C55      9.5637  16.6502   3.1669   C.ar      2 RES2   0.0000
   107 C56      8.4186  15.9409   2.7662   C.ar      2 RES2   0.0000
   108 C57      8.2658  15.4194   1.4678   C.ar      2 RES2   0.0000
   109 C58      9.2116  15.5854   0.5219   C.ar      2 RES2   0.0000
   110 C59     10.3606  16.2279   0.8869   C.ar      2 RES2   0.0000
   111 C60     10.5203  16.7314   2.1962   C.ar      2 RES2   0.0000
   112 C61      8.7509  16.5437   5.6924   C.ar      2 RES2   0.0000
   113 C62      9.2582  15.3742   6.2655   C.ar      2 RES2   0.0000
   114 C63      8.5639  14.5188   7.0701   C.ar      2 RES2   0.0000
   115 C64      7.2721  14.8238   7.4211   C.ar      2 RES2   0.0000
   116 C65      6.6687  15.9770   6.9148   C.ar      2 RES2   0.0000
   117 C66      7.4372  16.8162   6.0543   C.ar      2 RES2   0.0000
   118 H44     10.8965  19.3698   6.1397   H         2 RES2   0.0000
   119 H45     12.9461  19.4583   7.2347   H         2 RES2   0.0000
   120 H46     14.4621  17.6608   7.0095   H         2 RES2   0.0000
   121 H47     13.9600  15.9373   5.5588   H         2 RES2   0.0000
   122 H48     11.9462  15.8651   4.4033   H         2 RES2   0.0000
   123 H49      9.1264  19.0053   2.3391   H         2 RES2   0.0000
   124 H50      8.3138  21.1727   2.0362   H         2 RES2   0.0000
   125 H51      7.5747  22.4162   3.8100   H         2 RES2   0.0000
   126 H52      7.7069  21.5571   5.9906   H         2 RES2   0.0000
   127 H53      8.5374  19.3825   6.3277   H         2 RES2   0.0000
   128 H54      7.7124  15.8056   3.4030   H         2 RES2   0.0000
   129 H55      7.4662  14.9321   1.2503   H         2 RES2   0.0000
   130 H56      9.0799  15.2660  -0.3728   H         2 RES2   0.0000
   131 H57     11.0688  16.3379   0.2454   H         2 RES2   0.0000
   132 H58     11.3505  17.1573   2.4183   H         2 RES2   0.0000
   133 H59     10.1718  15.1541   6.0776   H         2 RES2   0.0000
   134 H60      8.9745  13.7121   7.3869   H         2 RES2   0.0000
   135 H61      6.7858  14.2463   8.0160   H         2 RES2   0.0000
   136 H62      5.7614  16.1972   7.1369   H         2 RES2   0.0000
   137 H63      7.0252  17.6121   5.7095   H         2 RES2   0.0000
@<TRIPOS>BOND
     1     1     2    1
     2     2     9    1
     3     3     1    1
     4     4     1    1
     5     5     1    1
     6     6     1    1
     7     7     6    3
     8     8     5    1
     9     9     8    1
    10    10     5    1
    11    11     3    1
    12    12     5    1
    13    13     4    1
    14    14     2    1
    15    15    14   ar
    16    16    15   ar
    17    17    16   ar
    18    18    17   ar
    19    19    14   ar
    20    20     2    1
    21    21    20   ar
    22    22    21   ar
    23    23    22   ar
    24    24    23   ar
    25    25    20   ar
    26    26     3    1
    27    27    26   ar
    28    28    27   ar
    29    29    28   ar
    30    30    29   ar
    31    31    26   ar
    32    32     3    1
    33    33    32   ar
    34    34    33   ar
    35    35    34   ar
    36    36    35   ar
    37    37    32   ar
    38    38     4    1
    39    39    38   ar
    40    40    39   ar
    41    41    40   ar
    42    42    41   ar
    43    43    38   ar
    44    44     4    1
    45    45    44   ar
    46    46    45   ar
    47    47    46   ar
    48    48    47   ar
    49    49    44   ar
    50    50     1    1
    51    51     8    1
    52    52     8    1
    53    53     9    1
    54    54     9    1
    55    55    10    1
    56    56    10    1
    57    57    11    1
    58    58    11    1
    59    59    12    1
    60    60    12    1
    61    61    13    1
    62    62    13    1
    63    63    15    1
    64    64    16    1
    65    65    17    1
    66    66    18    1
    67    67    19    1
    68    68    21    1
    69    69    22    1
    70    70    23    1
    71    71    24    1
    72    72    25    1
    73    73    27    1
    74    74    28    1
    75    75    29    1
    76    76    30    1
    77    77    31    1
    78    78    33    1
    79    79    34    1
    80    80    35    1
    81    81    36    1
    82    82    37    1
    83    83    39    1
    84    84    40    1
    85    85    41    1
    86    86    42    1
    87    87    43    1
    88    88    45    1
    89    89    46    1
    90    90    47    1
    91    91    48    1
    92    92    49    1
    93    10    11    1
    94    12    13    1
    95    18    19   ar
    96    24    25   ar
    97    30    31   ar
    98    36    37   ar
    99    42    43   ar
   100    48    49   ar
   101    93    94    1
   102    94    95   ar
   103    95    96   ar
   104    96    97   ar
   105    97    98   ar
   106    98    99   ar
   107    99    94   ar
   108   100    93    1
   109   101   100   ar
   110   102   101   ar
   111   103   102   ar
   112   104   103   ar
   113   105   100   ar
   114   106    93    1
   115   107   106   ar
   116   108   107   ar
   117   109   108   ar
   118   110   109   ar
   119   111   106   ar
   120   112    93    1
   121   113   112   ar
   122   114   113   ar
   123   115   114   ar
   124   116   115   ar
   125   117   112   ar
   126   118    95    1
   127   119    96    1
   128   120    97    1
   129   121    98    1
   130   122    99    1
   131   123   101    1
   132   124   102    1
   133   125   103    1
   134   126   104    1
   135   127   105    1
   136   128   107    1
   137   129   108    1
   138   130   109    1
   139   131   110    1
   140   132   111    1
   141   133   113    1
   142   134   114    1
   143   135   115    1
   144   136   116    1
   145   137   117    1
   146   104   105   ar
   147   110   111   ar
   148   116   117   ar
@<TRIPOS>SUBSTRUCTURE
     1 RES1        1 GROUP             0 ****  ****    0  
     2 RES2       93 GROUP             0 ****  ****    0  
@<TRIPOS>CRYSIN
   19.2210   18.0470   16.9250   90.0000  113.4100   90.0000    14     1
