@<TRIPOS>MOLECULE
YOJHEO
   107   117     1     0     0
SMALL
NO_CHARGES
****
Generated from the CSD

@<TRIPOS>ATOM
     1 Fe1      2.2520  -0.3874  11.4772   Fe        1 RES1   0.0000
     2 P1       3.0468  -0.0560  13.5111   P.3       1 RES1   0.0000
     3 P2       0.6923   1.1003  11.0467   P.3       1 RES1   0.0000
     4 F1       9.1095   3.8639   9.6556   F         1 RES1   0.0000
     5 F2       7.7219   5.4885   9.4175   F         1 RES1   0.0000
     6 F3       8.2413   4.7870  11.3730   F         1 RES1   0.0000
     7 N1       3.5534  -1.8937  11.4463   N.2       1 RES1   0.0000
     8 N2       2.0494  -0.9172   9.5016   N.3       1 RES1   0.0000
     9 N3       0.3317  -2.4246  12.5397   N.1       1 RES1   0.0000
    10 C1       0.0724   0.4897   9.4302   C.ar      1 RES1   0.0000
    11 C2       3.7768   1.5283  14.0991   C.ar      1 RES1   0.0000
    12 C3       3.1425   0.0211   9.1519   C.2       1 RES1   0.0000
    13 H1       3.4537   0.0276   8.1762   H         1 RES1   0.0000
    14 C4       3.5657   0.6386  10.2419   C.2       1 RES1   0.0000
    15 C5       4.6826   1.5849  10.1778   C.ar      1 RES1   0.0000
    16 C6       4.4869   2.9361   9.8463   C.ar      1 RES1   0.0000
    17 H2       3.6104   3.2430   9.6460   H         1 RES1   0.0000
    18 C7       5.5404   3.8277   9.8051   C.ar      1 RES1   0.0000
    19 H3       5.3807   4.7379   9.5847   H         1 RES1   0.0000
    20 C8       6.8310   3.4013  10.0840   C.ar      1 RES1   0.0000
    21 C9       7.0575   2.0598  10.3878   C.ar      1 RES1   0.0000
    22 H4       7.9397   1.7567  10.5687   H         1 RES1   0.0000
    23 C10      6.0004   1.1698  10.4266   C.ar      1 RES1   0.0000
    24 H5       6.1696   0.2565  10.6261   H         1 RES1   0.0000
    25 C11      2.4513  -2.3441   9.3421   C.3       1 RES1   0.0000
    26 H6       2.6485  -2.5355   8.3909   H         1 RES1   0.0000
    27 H7       1.7144  -2.9375   9.6331   H         1 RES1   0.0000
    28 C12      3.6804  -2.5959  10.1847   C.3       1 RES1   0.0000
    29 H8       3.7799  -3.5669  10.3502   H         1 RES1   0.0000
    30 H9       4.4863  -2.2793   9.7047   H         1 RES1   0.0000
    31 C13      1.0482  -1.5887  12.1485   C.1       1 RES1   0.0000
    32 C14     -0.1665  -3.6321  13.1781   C.3       1 RES1   0.0000
    33 C15     -0.7689  -4.5143  12.0951   C.3       1 RES1   0.0000
    34 H10     -1.5471  -4.0656  11.7037   H         1 RES1   0.0000
    35 H11     -1.0466  -5.3686  12.4866   H         1 RES1   0.0000
    36 H12     -0.1002  -4.6769  11.3971   H         1 RES1   0.0000
    37 C16     -1.2075  -3.2369  14.2108   C.3       1 RES1   0.0000
    38 H13     -0.7867  -2.6893  14.9063   H         1 RES1   0.0000
    39 H14     -1.5893  -4.0430  14.6158   H         1 RES1   0.0000
    40 H15     -1.9194  -2.7212  13.7763   H         1 RES1   0.0000
    41 C17      1.0408  -4.3122  13.8173   C.3       1 RES1   0.0000
    42 H16      1.7145  -4.4956  13.1298   H         1 RES1   0.0000
    43 H17      0.7596  -5.1544  14.2322   H         1 RES1   0.0000
    44 H18      1.4235  -3.7232  14.5008   H         1 RES1   0.0000
    45 C18      4.4932  -2.0502  12.3852   C.ar      1 RES1   0.0000
    46 C19      7.9610   4.3708  10.1230   C.3       1 RES1   0.0000
    47 C20      5.5710  -2.9820  12.3352   C.ar      1 RES1   0.0000
    48 H19      5.6478  -3.5696  11.5927   H         1 RES1   0.0000
    49 C21      6.4995  -3.0422  13.3448   C.ar      1 RES1   0.0000
    50 H20      7.2015  -3.6796  13.2864   H         1 RES1   0.0000
    51 C22      6.4453  -2.1970  14.4545   C.ar      1 RES1   0.0000
    52 H21      7.0999  -2.2493  15.1410   H         1 RES1   0.0000
    53 C23      5.4060  -1.2766  14.5257   C.ar      1 RES1   0.0000
    54 H22      5.3595  -0.6835  15.2663   H         1 RES1   0.0000
    55 C24      4.4381  -1.2072  13.5396   C.ar      1 RES1   0.0000
    56 C25      4.9564   1.9659  13.5040   C.ar      1 RES1   0.0000
    57 H23      5.4022   1.4030  12.8820   H         1 RES1   0.0000
    58 C26      5.4917   3.2087  13.8027   C.ar      1 RES1   0.0000
    59 H24      6.2977   3.4923  13.3875   H         1 RES1   0.0000
    60 C27      4.8499   4.0349  14.7065   C.ar      1 RES1   0.0000
    61 H25      5.2059   4.8937  14.9021   H         1 RES1   0.0000
    62 C28      3.6943   3.6115  15.3221   C.ar      1 RES1   0.0000
    63 H26      3.2603   4.1753  15.9513   H         1 RES1   0.0000
    64 C29      3.1602   2.3624  15.0278   C.ar      1 RES1   0.0000
    65 H27      2.3668   2.0753  15.4643   H         1 RES1   0.0000
    66 C30      1.9729  -0.4954  14.9362   C.ar      1 RES1   0.0000
    67 C31      2.3154  -1.4455  15.8940   C.ar      1 RES1   0.0000
    68 H28      3.1440  -1.9050  15.8257   H         1 RES1   0.0000
    69 C32      1.4507  -1.7298  16.9561   C.ar      1 RES1   0.0000
    70 H29      1.6842  -2.3972  17.5905   H         1 RES1   0.0000
    71 C33      0.2631  -1.0463  17.0857   C.ar      1 RES1   0.0000
    72 H30     -0.3096  -1.2193  17.8237   H         1 RES1   0.0000
    73 C34     -0.0922  -0.1055  16.1351   C.ar      1 RES1   0.0000
    74 H31     -0.9122   0.3660  16.2207   H         1 RES1   0.0000
    75 C35      0.7422   0.1529  15.0585   C.ar      1 RES1   0.0000
    76 H32      0.4733   0.7786  14.3961   H         1 RES1   0.0000
    77 C36      0.8242  -0.5370   8.8409   C.ar      1 RES1   0.0000
    78 C37      0.3995  -1.1173   7.6505   C.ar      1 RES1   0.0000
    79 H33      0.9191  -1.8001   7.2427   H         1 RES1   0.0000
    80 C38     -0.7779  -0.7000   7.0612   C.ar      1 RES1   0.0000
    81 H34     -1.0706  -1.1054   6.2532   H         1 RES1   0.0000
    82 C39     -1.5395   0.3082   7.6413   C.ar      1 RES1   0.0000
    83 H35     -2.3503   0.5891   7.2336   H         1 RES1   0.0000
    84 C40     -1.1092   0.9011   8.8167   C.ar      1 RES1   0.0000
    85 H36     -1.6250   1.5958   9.2088   H         1 RES1   0.0000
    86 C41      1.0971   2.8717  10.8047   C.ar      1 RES1   0.0000
    87 C42      0.7139   3.6214   9.6968   C.ar      1 RES1   0.0000
    88 H37      0.2065   3.2174   9.0026   H         1 RES1   0.0000
    89 C43      1.0735   4.9643   9.6051   C.ar      1 RES1   0.0000
    90 H38      0.8189   5.4701   8.8424   H         1 RES1   0.0000
    91 C44      1.7976   5.5641  10.6131   C.ar      1 RES1   0.0000
    92 H39      2.0444   6.4787  10.5417   H         1 RES1   0.0000
    93 C45      2.1654   4.8330  11.7292   C.ar      1 RES1   0.0000
    94 H40      2.6473   5.2495  12.4342   H         1 RES1   0.0000
    95 C46      1.8276   3.4883  11.8158   C.ar      1 RES1   0.0000
    96 H41      2.0985   2.9840  12.5738   H         1 RES1   0.0000
    97 C47     -0.8724   1.2157  12.0093   C.ar      1 RES1   0.0000
    98 C48     -1.1942   2.3220  12.7906   C.ar      1 RES1   0.0000
    99 H42     -0.6307   3.0868  12.7787   H         1 RES1   0.0000
   100 C49     -2.3346   2.3176  13.5897   C.ar      1 RES1   0.0000
   101 H43     -2.5371   3.0708  14.1322   H         1 RES1   0.0000
   102 C50     -3.1723   1.2203  13.5944   C.ar      1 RES1   0.0000
   103 H44     -3.9510   1.2209  14.1390   H         1 RES1   0.0000
   104 C51     -2.8804   0.1189  12.8060   C.ar      1 RES1   0.0000
   105 H45     -3.4617  -0.6325  12.8047   H         1 RES1   0.0000
   106 C52     -1.7379   0.1142  12.0184   C.ar      1 RES1   0.0000
   107 H46     -1.5409  -0.6433  11.4801   H         1 RES1   0.0000
@<TRIPOS>BOND
     1     1     2    1
     2     2    11    1
     3     3     1    1
     4     4    46    1
     5     5    46    1
     6     6    46    1
     7     7     1    1
     8     8     1    1
     9     9    31    3
    10    10     3    1
    11    11    56   ar
    12    12     8    1
    13    13    12    1
    14    14     1    1
    15    15    14    1
    16    16    15   ar
    17    17    16    1
    18    18    16   ar
    19    19    18    1
    20    20    18   ar
    21    21    20   ar
    22    22    21    1
    23    23    15   ar
    24    24    23    1
    25    25     8    1
    26    26    25    1
    27    27    25    1
    28    28     7    1
    29    29    28    1
    30    30    28    1
    31    31     1    1
    32    32     9    1
    33    33    32    1
    34    34    33    1
    35    35    33    1
    36    36    33    1
    37    37    32    1
    38    38    37    1
    39    39    37    1
    40    40    37    1
    41    41    32    1
    42    42    41    1
    43    43    41    1
    44    44    41    1
    45    45     7    1
    46    46    20    1
    47    47    45   ar
    48    48    47    1
    49    49    47   ar
    50    50    49    1
    51    51    49   ar
    52    52    51    1
    53    53    51   ar
    54    54    53    1
    55    55     2    1
    56    56    57    1
    57    58    56   ar
    58    59    58    1
    59    60    58   ar
    60    61    60    1
    61    62    60   ar
    62    63    62    1
    63    64    11   ar
    64    65    64    1
    65    66     2    1
    66    67    66   ar
    67    68    67    1
    68    69    67   ar
    69    70    69    1
    70    71    69   ar
    71    72    71    1
    72    73    71   ar
    73    74    73    1
    74    75    66   ar
    75    76    75    1
    76    77     8    1
    77    78    77   ar
    78    79    78    1
    79    80    78   ar
    80    81    80    1
    81    82    80   ar
    82    83    82    1
    83    84    10   ar
    84    85    84    1
    85    86     3    1
    86    87    86   ar
    87    88    87    1
    88    89    87   ar
    89    90    89    1
    90    91    89   ar
    91    92    91    1
    92    93    91   ar
    93    94    93    1
    94    95    86   ar
    95    96    95    1
    96    97     3    1
    97    98    97   ar
    98    99    98    1
    99   100    98   ar
   100   101   100    1
   101   102   100   ar
   102   103   102    1
   103   104   102   ar
   104   105   104    1
   105   106    97   ar
   106   107   106    1
   107    10    77   ar
   108    12    14    2
   109    21    23   ar
   110    25    28    1
   111    45    55   ar
   112    53    55   ar
   113    62    64   ar
   114    73    75   ar
   115    82    84   ar
   116    93    95   ar
   117   104   106   ar
@<TRIPOS>SUBSTRUCTURE
     1 RES1        1 GROUP             0 ****  ****    0  
@<TRIPOS>CRYSIN
   11.7110   12.5996   16.8271   96.3440  100.6083  116.0944     2     1
