@<TRIPOS>MOLECULE
YOPPOK06
   118   128     2     0     0
SMALL
NO_CHARGES
****
Generated from the CSD

@<TRIPOS>ATOM
     1 Fe1      1.9018   5.0195   7.7853   Fe        1 RES1   0.0000
     2 Se1     -0.0071   7.0791  11.7705   Se        1 RES1   0.0000
     3 F1       3.6791   3.7300  16.5904   F         1 RES1   0.0000
     4 F2       3.2145   4.5893  19.1189   F         1 RES1   0.0000
     5 F3       1.3142   6.4546  19.5879   F         1 RES1   0.0000
     6 F4      -0.1097   7.4877  17.5285   F         1 RES1   0.0000
     7 F5       0.3253   6.6342  15.0160   F         1 RES1   0.0000
     8 F6       6.6631   9.1990  13.3039   F         1 RES1   0.0000
     9 F7       7.9141  10.7069  11.4365   F         1 RES1   0.0000
    10 F8       6.5548  11.5381   9.2418   F         1 RES1   0.0000
    11 F9       3.9749  10.8186   8.8854   F         1 RES1   0.0000
    12 F10      2.7255   9.2965  10.7392   F         1 RES1   0.0000
    13 O1       2.2080   4.6347  14.4933   O.3       1 RES1   0.0000
    14 O2       4.0589   8.5188  13.0610   O.3       1 RES1   0.0000
    15 N1       1.2047   5.8220   9.4039   N.2       1 RES1   0.0000
    16 N2       2.6133   3.4661   8.7910   N.ar      1 RES1   0.0000
    17 N3       3.6880   5.8408   8.0513   N.ar      1 RES1   0.0000
    18 N4       3.7474   4.9401  10.2276   N.pl3     1 RES1   0.0000
    19 N5       2.9379   4.7474  12.3931   N.ar      1 RES1   0.0000
    20 N6       3.9262   6.7610  11.6084   N.ar      1 RES1   0.0000
    21 N7       3.1464   6.6302  13.8440   N.ar      1 RES1   0.0000
    22 C1       0.7158   6.3162  10.3277   C.1       1 RES1   0.0000
    23 C2       2.3711   2.1946   8.3742   C.ar      1 RES1   0.0000
    24 H1       1.8984   2.0638   7.5611   H         1 RES1   0.0000
    25 C3       2.7814   1.0919   9.0824   C.ar      1 RES1   0.0000
    26 H2       2.5863   0.2187   8.7632   H         1 RES1   0.0000
    27 C4       3.4794   1.2607  10.2620   C.ar      1 RES1   0.0000
    28 H3       3.7417   0.5096  10.7811   H         1 RES1   0.0000
    29 C5       3.7910   2.5435  10.6755   C.ar      1 RES1   0.0000
    30 H4       4.2936   2.6927  11.4678   H         1 RES1   0.0000
    31 C6       3.3494   3.6086   9.9020   C.ar      1 RES1   0.0000
    32 C7       4.3009   6.5015   7.0389   C.ar      1 RES1   0.0000
    33 H5       3.8478   6.5777   6.2080   H         1 RES1   0.0000
    34 C8       5.5485   7.0662   7.1616   C.ar      1 RES1   0.0000
    35 H6       5.9344   7.5454   6.4385   H         1 RES1   0.0000
    36 C9       6.2354   6.9256   8.3627   C.ar      1 RES1   0.0000
    37 H7       7.0958   7.3114   8.4751   H         1 RES1   0.0000
    38 C10      5.6484   6.2166   9.3874   C.ar      1 RES1   0.0000
    39 H8       6.1065   6.0805  10.2081   H         1 RES1   0.0000
    40 C11      4.3720   5.7057   9.1932   C.ar      1 RES1   0.0000
    41 C12      3.5279   5.4854  11.4594   C.ar      1 RES1   0.0000
    42 C13      2.7921   5.3923  13.5334   C.ar      1 RES1   0.0000
    43 C14      3.6907   7.2292  12.8042   C.ar      1 RES1   0.0000
    44 C15      2.0244   5.1894  15.7508   C.ar      1 RES1   0.0000
    45 C16      2.7383   4.6560  16.8132   C.ar      1 RES1   0.0000
    46 C17      2.4940   5.0784  18.1015   C.ar      1 RES1   0.0000
    47 C18      1.5432   6.0272  18.3435   C.ar      1 RES1   0.0000
    48 C19      0.8229   6.5625  17.2990   C.ar      1 RES1   0.0000
    49 C20      1.0596   6.1381  16.0076   C.ar      1 RES1   0.0000
    50 C21      4.6901   9.2085  12.0347   C.ar      1 RES1   0.0000
    51 C22      6.0002   9.5705  12.2075   C.ar      1 RES1   0.0000
    52 C23      6.6390  10.3522  11.2607   C.ar      1 RES1   0.0000
    53 C24      5.9582  10.7628  10.1583   C.ar      1 RES1   0.0000
    54 C25      4.6430  10.3961   9.9590   C.ar      1 RES1   0.0000
    55 C26      4.0108   9.6180  10.9166   C.ar      1 RES1   0.0000
    56 Se1A     3.8107   2.9599   3.8002   Se        1 RES1   0.0000
    57 F1A      0.1245   6.3090  -1.0197   F         1 RES1   0.0000
    58 F2A      0.5891   5.4497  -3.5482   F         1 RES1   0.0000
    59 F3A      2.4894   3.5843  -4.0172   F         1 RES1   0.0000
    60 F4A      3.9133   2.5513  -1.9579   F         1 RES1   0.0000
    61 F5A      3.4783   3.4048   0.5546   F         1 RES1   0.0000
    62 F6A     -2.8595   0.8400   2.2668   F         1 RES1   0.0000
    63 F7A     -4.1105  -0.6679   4.1342   F         1 RES1   0.0000
    64 F8A     -2.7512  -1.4991   6.3288   F         1 RES1   0.0000
    65 F9A     -0.1713  -0.7796   6.6853   F         1 RES1   0.0000
    66 F10A     1.0781   0.7425   4.8314   F         1 RES1   0.0000
    67 O1A      1.5956   5.4043   1.0773   O.3       1 RES1   0.0000
    68 O2A     -0.2553   1.5202   2.5097   O.3       1 RES1   0.0000
    69 N1A      2.5989   4.2169   6.1668   N.2       1 RES1   0.0000
    70 N2A      1.1903   6.5729   6.7796   N.ar      1 RES1   0.0000
    71 N3A      0.1156   4.1982   7.5194   N.ar      1 RES1   0.0000
    72 N4A      0.0562   5.0989   5.3431   N.pl3     1 RES1   0.0000
    73 N5A      0.8657   5.2916   3.1775   N.ar      1 RES1   0.0000
    74 N6A     -0.1226   3.2780   3.9623   N.ar      1 RES1   0.0000
    75 N7A      0.6572   3.4088   1.7266   N.ar      1 RES1   0.0000
    76 C1A      3.0878   3.7228   5.2429   C.1       1 RES1   0.0000
    77 C2A      1.4325   7.8444   7.1964   C.ar      1 RES1   0.0000
    78 H1A      1.9053   7.9752   8.0095   H         1 RES1   0.0000
    79 C3A      1.0222   8.9471   6.4883   C.ar      1 RES1   0.0000
    80 H2A      1.2173   9.8203   6.8075   H         1 RES1   0.0000
    81 C4A      0.3242   8.7783   5.3087   C.ar      1 RES1   0.0000
    82 H3A      0.0619   9.5294   4.7895   H         1 RES1   0.0000
    83 C5A      0.0126   7.4955   4.8951   C.ar      1 RES1   0.0000
    84 H4A     -0.4900   7.3462   4.1029   H         1 RES1   0.0000
    85 C6A      0.4542   6.4304   5.6687   C.ar      1 RES1   0.0000
    86 C7A     -0.4973   3.5375   8.5318   C.ar      1 RES1   0.0000
    87 H5A     -0.0442   3.4613   9.3626   H         1 RES1   0.0000
    88 C8A     -1.7449   2.9728   8.4091   C.ar      1 RES1   0.0000
    89 H6A     -2.1308   2.4936   9.1322   H         1 RES1   0.0000
    90 C9A     -2.4318   3.1134   7.2080   C.ar      1 RES1   0.0000
    91 H7A     -3.2922   2.7276   7.0955   H         1 RES1   0.0000
    92 C10A    -1.8448   3.8224   6.1833   C.ar      1 RES1   0.0000
    93 H8A     -2.3029   3.9585   5.3625   H         1 RES1   0.0000
    94 C11A    -0.5684   4.3333   6.3774   C.ar      1 RES1   0.0000
    95 C12A     0.2757   4.5536   4.1113   C.ar      1 RES1   0.0000
    96 C13A     1.0115   4.6467   2.0373   C.ar      1 RES1   0.0000
    97 C14A     0.1129   2.8098   2.7664   C.ar      1 RES1   0.0000
    98 C15A     1.7792   4.8496  -0.1802   C.ar      1 RES1   0.0000
    99 C16A     1.0653   5.3830  -1.2425   C.ar      1 RES1   0.0000
   100 C17A     1.3096   4.9606  -2.5309   C.ar      1 RES1   0.0000
   101 C18A     2.2604   4.0118  -2.7728   C.ar      1 RES1   0.0000
   102 C19A     2.9807   3.4765  -1.7283   C.ar      1 RES1   0.0000
   103 C20A     2.7440   3.9009  -0.4369   C.ar      1 RES1   0.0000
   104 C21A    -0.8865   0.8305   3.5359   C.ar      1 RES1   0.0000
   105 C22A    -2.1966   0.4685   3.3631   C.ar      1 RES1   0.0000
   106 C23A    -2.8354  -0.3132   4.3100   C.ar      1 RES1   0.0000
   107 C24A    -2.1546  -0.7238   5.4124   C.ar      1 RES1   0.0000
   108 C25A    -0.8394  -0.3571   5.6117   C.ar      1 RES1   0.0000
   109 C26A    -0.2072   0.4210   4.6541   C.ar      1 RES1   0.0000
   110 C27      2.9552  11.7601  13.8766   C.1       2 RES2   0.0000
   111 N8       3.6291  12.0778  13.0186   N.1       2 RES2   0.0000
   112 C28      2.0612  11.3341  14.9618   C.3       2 RES2   0.0000
   113 H9       1.3605  12.0207  15.0911   H         2 RES2   0.0000
   114 H10      2.5801  11.2694  15.8027   H         2 RES2   0.0000
   115 C29      1.4034  10.0058  14.6862   C.3       2 RES2   0.0000
   116 H11      0.9039  10.0559  13.8454   H         2 RES2   0.0000
   117 H12      0.7888   9.7878  15.4181   H         2 RES2   0.0000
   118 H13      2.0898   9.3089  14.6177   H         2 RES2   0.0000
@<TRIPOS>BOND
     1     1    15    1
     2     2    22    2
     3     3    45    1
     4     4    46    1
     5     5    47    1
     6     6    48    1
     7     7    49    1
     8     8    51    1
     9     9    52    1
    10    10    53    1
    11    11    54    1
    12    12    55    1
    13    13    42    1
    14    14    43    1
    15    15    22    2
    16    16     1    1
    17    17     1    1
    18    18    31    1
    19    19    41   ar
    20    20    41   ar
    21    21    42   ar
    22    23    16   ar
    23    24    23    1
    24    25    23   ar
    25    26    25    1
    26    27    25   ar
    27    28    27    1
    28    29    27   ar
    29    30    29    1
    30    31    16   ar
    31    32    17   ar
    32    33    32    1
    33    34    32   ar
    34    35    34    1
    35    36    34   ar
    36    37    36    1
    37    38    36   ar
    38    39    38    1
    39    40    17   ar
    40    41    18    1
    41    42    19   ar
    42    43    20   ar
    43    44    13    1
    44    45    44   ar
    45    46    45   ar
    46    47    46   ar
    47    48    47   ar
    48    49    44   ar
    49    50    14    1
    50    51    50   ar
    51    52    51   ar
    52    53    52   ar
    53    54    53   ar
    54    55    50   ar
    55    56    76    2
    56    57    99    1
    57    58   100    1
    58    59   101    1
    59    60   102    1
    60    61   103    1
    61    62   105    1
    62    63   106    1
    63    64   107    1
    64    65   108    1
    65    66   109    1
    66    67    96    1
    67    68    97    1
    68    69     1    1
    69    70     1    1
    70    71     1    1
    71    72    85    1
    72    73    95   ar
    73    74    95   ar
    74    75    96   ar
    75    76    69    2
    76    77    70   ar
    77    78    77    1
    78    79    77   ar
    79    80    79    1
    80    81    79   ar
    81    82    81    1
    82    83    81   ar
    83    84    83    1
    84    85    70   ar
    85    86    71   ar
    86    87    86    1
    87    88    86   ar
    88    89    88    1
    89    90    88   ar
    90    91    90    1
    91    92    90   ar
    92    93    92    1
    93    94    71   ar
    94    95    72    1
    95    96    73   ar
    96    97    74   ar
    97    98    67    1
    98    99    98   ar
    99   100    99   ar
   100   101   100   ar
   101   102   101   ar
   102   103    98   ar
   103   104    68    1
   104   105   104   ar
   105   106   105   ar
   106   107   106   ar
   107   108   107   ar
   108   109   104   ar
   109    18    40    1
   110    21    43   ar
   111    29    31   ar
   112    38    40   ar
   113    48    49   ar
   114    54    55   ar
   115    72    94    1
   116    75    97   ar
   117    83    85   ar
   118    92    94   ar
   119   102   103   ar
   120   108   109   ar
   121   110   111    3
   122   112   110    1
   123   113   112    1
   124   114   112    1
   125   115   112    1
   126   116   115    1
   127   117   115    1
   128   118   115    1
@<TRIPOS>SUBSTRUCTURE
     1 RES1        1 GROUP             0 ****  ****    0  
     2 RES2      110 GROUP             0 ****  ****    0  
@<TRIPOS>CRYSIN
    8.4892   11.3859   15.8730   92.6020  100.3130   99.3200     2     1
