@<TRIPOS>MOLECULE
YOXRAG
   109   117     3     0     0
SMALL
USER_CHARGES
****
Generated from the CSD

@<TRIPOS>ATOM
     1 Fe1     -0.1812   8.0940   4.1437   Fe        1 RES1   2.0000
     2 P1       1.2029   7.8336   2.4916   P.3       1 RES1   0.0000
     3 P2       1.6442   8.0348   5.4199   P.3       1 RES1   0.0000
     4 N1      -0.7596   6.2009   4.1675   N.2       1 RES1   0.0000
     5 N2      -1.0808   8.1101   5.9284   N.2       1 RES1   0.0000
     6 N3      -2.5330   8.7669   2.3406   N.1       1 RES1   0.0000
     7 N4      -0.0276  11.0319   3.5966   N.1       1 RES1   0.0000
     8 C1      -0.3398   5.1601   3.5620   C.2       1 RES1   0.0000
     9 H1      -0.8554   4.3720   3.6799   H         1 RES1   0.0000
    10 C2       0.8414   5.0346   2.7064   C.ar      1 RES1   0.0000
    11 C3       1.1764   3.7126   2.3512   C.ar      1 RES1   0.0000
    12 H2       0.6490   2.9939   2.6796   H         1 RES1   0.0000
    13 C4       2.2585   3.4437   1.5335   C.ar      1 RES1   0.0000
    14 H3       2.4711   2.5454   1.3061   H         1 RES1   0.0000
    15 C5       3.0279   4.4772   1.0496   C.ar      1 RES1   0.0000
    16 H4       3.7800   4.2915   0.4995   H         1 RES1   0.0000
    17 C6       2.7058   5.7938   1.3644   C.ar      1 RES1   0.0000
    18 H5       3.2384   6.5014   1.0204   H         1 RES1   0.0000
    19 C7       1.6101   6.0916   2.1794   C.ar      1 RES1   0.0000
    20 C8       0.7850   8.5208   0.8674   C.ar      1 RES1   0.0000
    21 C9      -0.1243   7.8333   0.0693   C.ar      1 RES1   0.0000
    22 H6      -0.4553   6.9883   0.3531   H         1 RES1   0.0000
    23 C10     -0.5516   8.3681  -1.1342   C.ar      1 RES1   0.0000
    24 H7      -1.1661   7.8872  -1.6758   H         1 RES1   0.0000
    25 C11     -0.0814   9.6095  -1.5493   C.ar      1 RES1   0.0000
    26 H8      -0.3707   9.9783  -2.3749   H         1 RES1   0.0000
    27 C12      0.8095  10.3024  -0.7523   C.ar      1 RES1   0.0000
    28 H9       1.1245  11.1551  -1.0286   H         1 RES1   0.0000
    29 C13      1.2494   9.7642   0.4488   C.ar      1 RES1   0.0000
    30 H10      1.8681  10.2447   0.9861   H         1 RES1   0.0000
    31 C14      2.8005   8.5958   2.9874   C.3       1 RES1   0.0000
    32 H11      3.5087   8.3529   2.3395   H         1 RES1   0.0000
    33 H12      2.7165   9.5815   3.0020   H         1 RES1   0.0000
    34 C15      3.1636   8.0771   4.3839   C.3       1 RES1   0.0000
    35 H13      3.8378   8.6711   4.7994   H         1 RES1   0.0000
    36 H14      3.5501   7.1684   4.3152   H         1 RES1   0.0000
    37 C16      1.9418   6.7565   6.6814   C.ar      1 RES1   0.0000
    38 C17      2.1585   7.0962   8.0187   C.ar      1 RES1   0.0000
    39 H15      2.1447   8.0079   8.2845   H         1 RES1   0.0000
    40 C18      2.3946   6.1070   8.9581   C.ar      1 RES1   0.0000
    41 H16      2.5386   6.3442   9.8670   H         1 RES1   0.0000
    42 C19      2.4210   4.7716   8.5828   C.ar      1 RES1   0.0000
    43 H17      2.5833   4.0960   9.2304   H         1 RES1   0.0000
    44 C20      2.2110   4.4289   7.2593   C.ar      1 RES1   0.0000
    45 H18      2.2302   3.5152   6.9984   H         1 RES1   0.0000
    46 C21      1.9699   5.4187   6.3074   C.ar      1 RES1   0.0000
    47 H19      1.8243   5.1770   5.4006   H         1 RES1   0.0000
    48 C22      1.5160   9.5568   6.3959   C.ar      1 RES1   0.0000
    49 C23      2.5795  10.4222   6.5923   C.ar      1 RES1   0.0000
    50 H20      3.4146  10.2428   6.1776   H         1 RES1   0.0000
    51 C24      2.4357  11.5498   7.3906   C.ar      1 RES1   0.0000
    52 H21      3.1624  12.1537   7.4944   H         1 RES1   0.0000
    53 C25      1.2361  11.7959   8.0348   C.ar      1 RES1   0.0000
    54 H22      1.1472  12.5543   8.5998   H         1 RES1   0.0000
    55 C26      0.1596  10.9320   7.8564   C.ar      1 RES1   0.0000
    56 H23     -0.6580  11.0976   8.3104   H         1 RES1   0.0000
    57 C27      0.2733   9.8240   7.0152   C.ar      1 RES1   0.0000
    58 C28     -0.8409   8.8714   6.9294   C.2       1 RES1   0.0000
    59 H24     -1.4285   8.8149   7.6739   H         1 RES1   0.0000
    60 C29     -1.9760   6.9377   6.1477   C.3       1 RES1   0.0000
    61 H25     -1.5420   6.3481   6.8295   H         1 RES1   0.0000
    62 C30     -2.0819   6.1459   4.8532   C.3       1 RES1   0.0000
    63 H26     -2.7287   6.6356   4.2692   H         1 RES1   0.0000
    64 C31     -2.7004   4.7867   5.1435   C.3       1 RES1   0.0000
    65 H27     -2.1585   4.3011   5.8151   H         1 RES1   0.0000
    66 H28     -2.7351   4.2436   4.3164   H         1 RES1   0.0000
    67 C32     -4.1204   5.0267   5.6801   C.3       1 RES1   0.0000
    68 H29     -4.6764   5.4204   4.9612   H         1 RES1   0.0000
    69 H30     -4.5220   4.1573   5.9332   H         1 RES1   0.0000
    70 C33     -4.1388   5.9590   6.8933   C.3       1 RES1   0.0000
    71 H31     -3.7341   5.4913   7.6656   H         1 RES1   0.0000
    72 H32     -5.0784   6.1679   7.1248   H         1 RES1   0.0000
    73 C34     -3.3801   7.2685   6.6484   C.3       1 RES1   0.0000
    74 H33     -3.8583   7.8143   5.9757   H         1 RES1   0.0000
    75 H34     -3.3243   7.7894   7.4885   H         1 RES1   0.0000
    76 C35     -1.6821   8.4440   3.0574   C.1       1 RES1   0.0000
    77 C36     -3.4954   9.2183   1.4388   C.ar      1 RES1   0.0000
    78 C37     -3.9567  10.5232   1.5534   C.ar      1 RES1   0.0000
    79 H35     -3.6566  11.0823   2.2592   H         1 RES1   0.0000
    80 C38     -4.8607  10.9899   0.6212   C.ar      1 RES1   0.0000
    81 H36     -5.1742  11.8854   0.6755   H         1 RES1   0.0000
    82 C39     -5.3157  10.1621  -0.3937   C.ar      1 RES1   0.0000
    83 H37     -5.9228  10.4958  -1.0440   H         1 RES1   0.0000
    84 C40     -4.8817   8.8482  -0.4563   C.ar      1 RES1   0.0000
    85 H38     -5.2186   8.2744  -1.1349   H         1 RES1   0.0000
    86 C41     -3.9629   8.3591   0.4562   C.ar      1 RES1   0.0000
    87 H39     -3.6611   7.4598   0.4110   H         1 RES1   0.0000
    88 C42     -0.0072   9.9170   3.9324   C.1       1 RES1   0.0000
    89 C43     -0.3920  12.2653   3.0344   C.ar      1 RES1   0.0000
    90 C44      0.4907  12.8982   2.1579   C.ar      1 RES1   0.0000
    91 H40      1.3535  12.5371   1.9946   H         1 RES1   0.0000
    92 C45      0.0834  14.0660   1.5298   C.ar      1 RES1   0.0000
    93 H41      0.6698  14.5113   0.9294   H         1 RES1   0.0000
    94 C46     -1.1740  14.5839   1.7748   C.ar      1 RES1   0.0000
    95 H42     -1.4507  15.3776   1.3321   H         1 RES1   0.0000
    96 C47     -2.0348  13.9547   2.6602   C.ar      1 RES1   0.0000
    97 H43     -2.8926  14.3253   2.8296   H         1 RES1   0.0000
    98 C48     -1.6460  12.7834   3.3008   C.ar      1 RES1   0.0000
    99 H44     -2.2309  12.3473   3.9090   H         1 RES1   0.0000
   100 B1       0.0797   1.5613   5.7051   B         2 RES2  -1.0000
   101 F1       0.7553   1.1535   6.8378   F         2 RES2   0.0000
   102 F2       0.4247   2.8632   5.4133   F         2 RES2   0.0000
   103 F3       0.4461   0.7536   4.6350   F         2 RES2   0.0000
   104 F4      -1.2819   1.4910   5.9048   F         2 RES2   0.0000
   105 B2       6.8016   4.6422   1.2170   B         3 RES3  -1.0000
   106 F5       7.8930   5.4948   1.1162   F         3 RES3   0.0000
   107 F6       7.2289   3.4130   1.6998   F         3 RES3   0.0000
   108 F7       6.2254   4.4874  -0.0333   F         3 RES3   0.0000
   109 F8       5.8883   5.1912   2.0962   F         3 RES3   0.0000
@<TRIPOS>BOND
     1     1     2    1
     2     2    19    1
     3     3     1    1
     4     4     1    1
     5     5     1    1
     6     6    76    3
     7     7    88    3
     8     8     4    2
     9     9     8    1
    10    10     8    1
    11    11    10   ar
    12    12    11    1
    13    13    11   ar
    14    14    13    1
    15    15    13   ar
    16    16    15    1
    17    17    15   ar
    18    18    17    1
    19    19    10   ar
    20    20     2    1
    21    21    20   ar
    22    22    21    1
    23    23    21   ar
    24    24    23    1
    25    25    23   ar
    26    26    25    1
    27    27    25   ar
    28    28    27    1
    29    29    20   ar
    30    30    29    1
    31    31     2    1
    32    32    31    1
    33    33    31    1
    34    34     3    1
    35    35    34    1
    36    36    34    1
    37    37     3    1
    38    38    37   ar
    39    39    38    1
    40    40    38   ar
    41    41    40    1
    42    42    40   ar
    43    43    42    1
    44    44    42   ar
    45    45    44    1
    46    46    37   ar
    47    47    46    1
    48    48     3    1
    49    49    48   ar
    50    50    49    1
    51    51    49   ar
    52    52    51    1
    53    53    51   ar
    54    54    53    1
    55    55    53   ar
    56    56    55    1
    57    57    48   ar
    58    58     5    2
    59    59    58    1
    60    60     5    1
    61    61    60    1
    62    62     4    1
    63    63    62    1
    64    64    62    1
    65    65    64    1
    66    66    64    1
    67    67    64    1
    68    68    67    1
    69    69    67    1
    70    70    67    1
    71    71    70    1
    72    72    70    1
    73    73    60    1
    74    74    73    1
    75    75    73    1
    76    76     1    1
    77    77     6    1
    78    78    77   ar
    79    79    78    1
    80    80    78   ar
    81    81    80    1
    82    82    80   ar
    83    83    82    1
    84    84    82   ar
    85    85    84    1
    86    86    77   ar
    87    87    86    1
    88    88     1    1
    89    89     7    1
    90    90    89   ar
    91    91    90    1
    92    92    90   ar
    93    93    92    1
    94    94    92   ar
    95    95    94    1
    96    96    94   ar
    97    97    96    1
    98    98    89   ar
    99    99    98    1
   100    17    19   ar
   101    27    29   ar
   102    31    34    1
   103    44    46   ar
   104    55    57   ar
   105    57    58    1
   106    60    62    1
   107    70    73    1
   108    84    86   ar
   109    96    98   ar
   110   100   101    1
   111   102   100    1
   112   103   100    1
   113   104   100    1
   114   105   106    1
   115   107   105    1
   116   108   105    1
   117   109   105    1
@<TRIPOS>SUBSTRUCTURE
     1 RES1        1 GROUP             0 ****  ****    0  
     2 RES2      100 GROUP             0 ****  ****    0  
     3 RES3      105 GROUP             0 ****  ****    0  
@<TRIPOS>CRYSIN
    9.8340   19.1669   12.3417   90.0000  106.8850   90.0000     4     1
