@<TRIPOS>MOLECULE
YUFYUV02
   125   131     1     0     0
SMALL
NO_CHARGES
****
Generated from the CSD

@<TRIPOS>ATOM
     1 Fe1     -0.7486   3.8811   3.3948   Fe        1 RES1   0.0000
     2 Cl1      0.9110   7.9458   3.5542   Cl        1 RES1   0.0000
     3 Cl2      1.2719   1.7586   0.1054   Cl        1 RES1   0.0000
     4 Cl3     -1.9958   1.9429  -0.3566   Cl        1 RES1   0.0000
     5 B1       2.3204   3.8724   3.7533   B         1 RES1   0.0000
     6 O1       1.8248   5.2462   3.3724   O.3       1 RES1   0.0000
     7 O2       1.8832   2.8940   2.6771   O.3       1 RES1   0.0000
     8 O3      -3.1448   3.4840   1.7550   O.3       1 RES1   0.0000
     9 N1       0.4734   5.3538   3.2901   N.2       1 RES1   0.0000
    10 N2       0.5602   2.9367   2.3711   N.2       1 RES1   0.0000
    11 N3      -1.7914   3.3559   1.8625   N.2       1 RES1   0.0000
    12 C1      -0.0372   6.5434   3.3873   C.2       1 RES1   0.0000
    13 C2       0.1966   2.4661   1.2011   C.2       1 RES1   0.0000
    14 C3      -1.1963   2.6370   0.9516   C.2       1 RES1   0.0000
    15 C4       3.8664   3.8518   3.8519   C.3       1 RES1   0.0000
    16 H1       4.1496   4.4806   4.5626   H         1 RES1   0.0000
    17 H2       4.1586   2.9446   4.1159   H         1 RES1   0.0000
    18 C5       4.5588   4.2362   2.5405   C.3       1 RES1   0.0000
    19 H3       4.1661   3.6992   1.8088   H         1 RES1   0.0000
    20 H4       4.3647   5.1877   2.3492   H         1 RES1   0.0000
    21 C6       6.0579   4.0440   2.5211   C.3       1 RES1   0.0000
    22 H5       6.2694   3.1194   2.8041   H         1 RES1   0.0000
    23 H6       6.4699   4.6625   3.1735   H         1 RES1   0.0000
    24 C7       6.6621   4.2932   1.1511   C.3       1 RES1   0.0000
    25 H7       6.2271   3.6889   0.4997   H         1 RES1   0.0000
    26 H8       6.4565   5.2233   0.8799   H         1 RES1   0.0000
    27 C8       8.1602   4.0867   1.0715   C.3       1 RES1   0.0000
    28 H9       8.3735   3.1708   1.3810   H         1 RES1   0.0000
    29 H10      8.6009   4.7226   1.6893   H         1 RES1   0.0000
    30 C9       8.7385   4.2766  -0.3188   C.3       1 RES1   0.0000
    31 H11      8.5216   5.1909  -0.6301   H         1 RES1   0.0000
    32 H12      8.2977   3.6375  -0.9343   H         1 RES1   0.0000
    33 C10     10.2374   4.0804  -0.4044   C.3       1 RES1   0.0000
    34 H13     10.4548   3.1700  -0.0815   H         1 RES1   0.0000
    35 H14     10.6736   4.7266   0.2050   H         1 RES1   0.0000
    36 C11     10.8217   4.2536  -1.7916   C.3       1 RES1   0.0000
    37 H15     10.3970   3.5964  -2.3967   H         1 RES1   0.0000
    38 H16     10.5869   5.1577  -2.1211   H         1 RES1   0.0000
    39 C12     12.3243   4.0844  -1.8796   C.3       1 RES1   0.0000
    40 H17     12.5601   3.1803  -1.5507   H         1 RES1   0.0000
    41 H18     12.7496   4.7408  -1.2737   H         1 RES1   0.0000
    42 C13     12.9123   4.2576  -3.2636   C.3       1 RES1   0.0000
    43 H19     12.6632   5.1537  -3.6012   H         1 RES1   0.0000
    44 H20     12.5023   3.5869  -3.8660   H         1 RES1   0.0000
    45 C14     14.4157   4.1144  -3.3368   C.3       1 RES1   0.0000
    46 H21     14.6615   3.2159  -3.0024   H         1 RES1   0.0000
    47 H22     14.8256   4.7820  -2.7321   H         1 RES1   0.0000
    48 C15     15.0043   4.2932  -4.7235   C.3       1 RES1   0.0000
    49 H23     14.7401   5.1853  -5.0637   H         1 RES1   0.0000
    50 H24     14.6051   3.6153  -5.3244   H         1 RES1   0.0000
    51 C16     16.5130   4.1729  -4.8005   C.3       1 RES1   0.0000
    52 H25     16.7798   3.2871  -4.4499   H         1 RES1   0.0000
    53 H26     16.9160   4.8618  -4.2150   H         1 RES1   0.0000
    54 C17     17.0723   4.3335  -6.1962   C.3       1 RES1   0.0000
    55 H27     16.6704   3.6375  -6.7747   H         1 RES1   0.0000
    56 H28     16.7860   5.2130  -6.5479   H         1 RES1   0.0000
    57 C18     18.5767   4.2410  -6.3130   C.3       1 RES1   0.0000
    58 H29     18.8711   3.3654  -5.9572   H         1 RES1   0.0000
    59 H30     18.9870   4.9473  -5.7522   H         1 RES1   0.0000
    60 C19     19.0838   4.3889  -7.7374   C.3       1 RES1   0.0000
    61 H31     20.0645   4.3984  -7.7361   H         1 RES1   0.0000
    62 H32     18.7475   5.2288  -8.1163   H         1 RES1   0.0000
    63 H33     18.7649   3.6367  -8.2765   H         1 RES1   0.0000
    64 Cl1A    -2.4083   7.9458   3.2354   Cl        1 RES1   0.0000
    65 Cl2A    -2.7692   1.7586   6.6842   Cl        1 RES1   0.0000
    66 Cl3A     0.4985   1.9429   7.1462   Cl        1 RES1   0.0000
    67 B1A     -3.8176   3.8724   3.0363   B         1 RES1   0.0000
    68 O1A     -3.3221   5.2462   3.4172   O.3       1 RES1   0.0000
    69 O2A     -3.3805   2.8940   4.1125   O.3       1 RES1   0.0000
    70 O3A      1.6475   3.4840   5.0346   O.3       1 RES1   0.0000
    71 N1A     -1.9707   5.3538   3.4995   N.2       1 RES1   0.0000
    72 N2A     -2.0575   2.9367   4.4185   N.2       1 RES1   0.0000
    73 N3A      0.2942   3.3559   4.9271   N.2       1 RES1   0.0000
    74 C1A     -1.4601   6.5434   3.4023   C.2       1 RES1   0.0000
    75 C2A     -1.6938   2.4661   5.5885   C.2       1 RES1   0.0000
    76 C3A     -0.3010   2.6370   5.8380   C.2       1 RES1   0.0000
    77 C4A     -5.3637   3.8518   2.9377   C.3       1 RES1   0.0000
    78 H1A     -5.6469   4.4806   2.2270   H         1 RES1   0.0000
    79 H2A     -5.6559   2.9446   2.6738   H         1 RES1   0.0000
    80 C5A     -6.0561   4.2362   4.2491   C.3       1 RES1   0.0000
    81 H3A     -5.6634   3.6992   4.9809   H         1 RES1   0.0000
    82 H4A     -5.8620   5.1877   4.4404   H         1 RES1   0.0000
    83 C6A     -7.5552   4.0440   4.2685   C.3       1 RES1   0.0000
    84 H5A     -7.7667   3.1194   3.9855   H         1 RES1   0.0000
    85 H6A     -7.9672   4.6625   3.6162   H         1 RES1   0.0000
    86 C7A     -8.1594   4.2932   5.6385   C.3       1 RES1   0.0000
    87 H7A     -7.7244   3.6889   6.2899   H         1 RES1   0.0000
    88 H8A     -7.9538   5.2233   5.9097   H         1 RES1   0.0000
    89 C8A     -9.6575   4.0867   5.7181   C.3       1 RES1   0.0000
    90 H9A     -9.8707   3.1708   5.4086   H         1 RES1   0.0000
    91 H10A   -10.0981   4.7226   5.1004   H         1 RES1   0.0000
    92 C9A    -10.2357   4.2766   7.1085   C.3       1 RES1   0.0000
    93 H11A   -10.0188   5.1909   7.4197   H         1 RES1   0.0000
    94 H12A    -9.7950   3.6375   7.7239   H         1 RES1   0.0000
    95 C10A   -11.7346   4.0804   7.1940   C.3       1 RES1   0.0000
    96 H13A   -11.9521   3.1700   6.8711   H         1 RES1   0.0000
    97 H14A   -12.1709   4.7266   6.5846   H         1 RES1   0.0000
    98 C11A   -12.3189   4.2536   8.5813   C.3       1 RES1   0.0000
    99 H15A   -11.8943   3.5964   9.1864   H         1 RES1   0.0000
   100 H16A   -12.0841   5.1577   8.9107   H         1 RES1   0.0000
   101 C12A   -13.8215   4.0844   8.6693   C.3       1 RES1   0.0000
   102 H17A   -14.0574   3.1803   8.3404   H         1 RES1   0.0000
   103 H18A   -14.2469   4.7408   8.0634   H         1 RES1   0.0000
   104 C13A   -14.4096   4.2576  10.0533   C.3       1 RES1   0.0000
   105 H19A   -14.1604   5.1537  10.3908   H         1 RES1   0.0000
   106 H20A   -13.9995   3.5869  10.6556   H         1 RES1   0.0000
   107 C14A   -15.9129   4.1144  10.1264   C.3       1 RES1   0.0000
   108 H21A   -16.1587   3.2159   9.7920   H         1 RES1   0.0000
   109 H22A   -16.3229   4.7820   9.5218   H         1 RES1   0.0000
   110 C15A   -16.5016   4.2932  11.5132   C.3       1 RES1   0.0000
   111 H23A   -16.2374   5.1853  11.8533   H         1 RES1   0.0000
   112 H24A   -16.1024   3.6153  12.1140   H         1 RES1   0.0000
   113 C16A   -18.0102   4.1729  11.5902   C.3       1 RES1   0.0000
   114 H25A   -18.2771   3.2871  11.2395   H         1 RES1   0.0000
   115 H26A   -18.4133   4.8618  11.0046   H         1 RES1   0.0000
   116 C17A   -18.5695   4.3335  12.9858   C.3       1 RES1   0.0000
   117 H27A   -18.1677   3.6375  13.5643   H         1 RES1   0.0000
   118 H28A   -18.2832   5.2130  13.3375   H         1 RES1   0.0000
   119 C18A   -20.0740   4.2410  13.1026   C.3       1 RES1   0.0000
   120 H29A   -20.3684   3.3654  12.7468   H         1 RES1   0.0000
   121 H30A   -20.4843   4.9473  12.5418   H         1 RES1   0.0000
   122 C19A   -20.5810   4.3889  14.5271   C.3       1 RES1   0.0000
   123 H31A   -21.5618   4.3984  14.5257   H         1 RES1   0.0000
   124 H32A   -20.2448   5.2288  14.9059   H         1 RES1   0.0000
   125 H33A   -20.2622   3.6367  15.0662   H         1 RES1   0.0000
@<TRIPOS>BOND
     1     1     9    1
     2     2    12    1
     3     3    13    1
     4     4    14    1
     5     5     6    1
     6     6     9    1
     7     7     5    1
     8     8    11    1
     9     9    12    2
    10    10     1    1
    11    11     1    1
    12    12    74    1
    13    13    10    2
    14    14    11    2
    15    15     5    1
    16    16    15    1
    17    17    15    1
    18    18    15    1
    19    19    18    1
    20    20    18    1
    21    21    18    1
    22    22    21    1
    23    23    21    1
    24    24    21    1
    25    25    24    1
    26    26    24    1
    27    27    24    1
    28    28    27    1
    29    29    27    1
    30    30    27    1
    31    31    30    1
    32    32    30    1
    33    33    30    1
    34    34    33    1
    35    35    33    1
    36    36    33    1
    37    37    36    1
    38    38    36    1
    39    39    36    1
    40    40    39    1
    41    41    39    1
    42    42    39    1
    43    43    42    1
    44    44    42    1
    45    45    42    1
    46    46    45    1
    47    47    45    1
    48    48    45    1
    49    49    48    1
    50    50    48    1
    51    51    48    1
    52    52    51    1
    53    53    51    1
    54    54    51    1
    55    55    54    1
    56    56    54    1
    57    57    54    1
    58    58    57    1
    59    59    57    1
    60    60    57    1
    61    61    60    1
    62    62    60    1
    63    63    60    1
    64    64    74    1
    65    65    75    1
    66    66    76    1
    67    67     8    1
    68    68    67    1
    69    69    67    1
    70    70     5    1
    71    71     1    1
    72    72     1    1
    73    73     1    1
    74    74    71    2
    75    75    72    2
    76    76    73    2
    77    77    67    1
    78    78    77    1
    79    79    77    1
    80    80    77    1
    81    81    80    1
    82    82    80    1
    83    83    80    1
    84    84    83    1
    85    85    83    1
    86    86    83    1
    87    87    86    1
    88    88    86    1
    89    89    86    1
    90    90    89    1
    91    91    89    1
    92    92    89    1
    93    93    92    1
    94    94    92    1
    95    95    92    1
    96    96    95    1
    97    97    95    1
    98    98    95    1
    99    99    98    1
   100   100    98    1
   101   101    98    1
   102   102   101    1
   103   103   101    1
   104   104   101    1
   105   105   104    1
   106   106   104    1
   107   107   104    1
   108   108   107    1
   109   109   107    1
   110   110   107    1
   111   111   110    1
   112   112   110    1
   113   113   110    1
   114   114   113    1
   115   115   113    1
   116   116   113    1
   117   117   116    1
   118   118   116    1
   119   119   116    1
   120   120   119    1
   121   121   119    1
   122   122   119    1
   123   123   122    1
   124   124   122    1
   125   125   122    1
   126     7    10    1
   127    13    14    1
   128    68    71    1
   129    69    72    1
   130    70    73    1
   131    75    76    1
@<TRIPOS>SUBSTRUCTURE
     1 RES1        1 GROUP             0 ****  ****    0  
@<TRIPOS>CRYSIN
   44.7550    7.9093   13.9055   90.0000  102.4360   90.0000    15     1
