@<TRIPOS>MOLECULE
YUFYUV01
   125   131     1     0     0
SMALL
NO_CHARGES
****
Generated from the CSD

@<TRIPOS>ATOM
     1 Fe1     -0.7473   3.8786   3.3904   Fe        1 RES1   0.0000
     2 Cl1      0.9134   7.9432   3.5515   Cl        1 RES1   0.0000
     3 Cl2      1.2722   1.7568   0.1050   Cl        1 RES1   0.0000
     4 Cl3     -1.9967   1.9405  -0.3571   Cl        1 RES1   0.0000
     5 B1       2.3141   3.8630   3.7444   B         1 RES1   0.0000
     6 O1       1.8261   5.2400   3.3647   O.3       1 RES1   0.0000
     7 O2       1.8796   2.8844   2.6794   O.3       1 RES1   0.0000
     8 O3      -3.1375   3.4843   1.7484   O.3       1 RES1   0.0000
     9 N1       0.4730   5.3506   3.2768   N.2       1 RES1   0.0000
    10 N2       0.5612   2.9397   2.3710   N.2       1 RES1   0.0000
    11 N3      -1.7850   3.3587   1.8573   N.2       1 RES1   0.0000
    12 C1      -0.0337   6.5498   3.3801   C.2       1 RES1   0.0000
    13 C2       0.1964   2.4670   1.2029   C.2       1 RES1   0.0000
    14 C3      -1.2007   2.6417   0.9530   C.2       1 RES1   0.0000
    15 C4       3.8720   3.8472   3.8517   C.3       1 RES1   0.0000
    16 H1       4.1520   4.4795   4.5594   H         1 RES1   0.0000
    17 H2       4.1683   2.9413   4.1200   H         1 RES1   0.0000
    18 C5       4.5597   4.2290   2.5373   C.3       1 RES1   0.0000
    19 H3       4.1673   3.6859   1.8091   H         1 RES1   0.0000
    20 H4       4.3587   5.1783   2.3421   H         1 RES1   0.0000
    21 C6       6.0598   4.0440   2.5170   C.3       1 RES1   0.0000
    22 H5       6.2721   3.1199   2.8005   H         1 RES1   0.0000
    23 H6       6.4678   4.6637   3.1721   H         1 RES1   0.0000
    24 C7       6.6746   4.2954   1.1432   C.3       1 RES1   0.0000
    25 H7       6.2360   3.6962   0.4869   H         1 RES1   0.0000
    26 H8       6.4728   5.2273   0.8747   H         1 RES1   0.0000
    27 C8       8.1694   4.0827   1.0699   C.3       1 RES1   0.0000
    28 H9       8.6117   4.7127   1.6911   H         1 RES1   0.0000
    29 H10      8.3769   3.1634   1.3752   H         1 RES1   0.0000
    30 C9       8.7481   4.2772  -0.3210   C.3       1 RES1   0.0000
    31 H11      8.5322   5.1933  -0.6293   H         1 RES1   0.0000
    32 H12      8.3097   3.6409  -0.9398   H         1 RES1   0.0000
    33 C10     10.2482   4.0788  -0.4041   C.3       1 RES1   0.0000
    34 H13     10.4665   3.1682  -0.0827   H         1 RES1   0.0000
    35 H14     10.6899   4.7246   0.2034   H         1 RES1   0.0000
    36 C11     10.8214   4.2543  -1.7983   C.3       1 RES1   0.0000
    37 H15     10.3960   3.5966  -2.4031   H         1 RES1   0.0000
    38 H16     10.5902   5.1585  -2.1265   H         1 RES1   0.0000
    39 C12     12.3237   4.0811  -1.8714   C.3       1 RES1   0.0000
    40 H17     12.7497   4.7356  -1.2612   H         1 RES1   0.0000
    41 H18     12.5528   3.1753  -1.5460   H         1 RES1   0.0000
    42 C13     12.9073   4.2622  -3.2598   C.3       1 RES1   0.0000
    43 H19     12.6595   5.1601  -3.5938   H         1 RES1   0.0000
    44 H20     12.4999   3.5934  -3.8651   H         1 RES1   0.0000
    45 C14     14.4149   4.1183  -3.3267   C.3       1 RES1   0.0000
    46 H21     14.6656   3.2219  -2.9876   H         1 RES1   0.0000
    47 H22     14.8225   4.7902  -2.7245   H         1 RES1   0.0000
    48 C15     14.9971   4.2922  -4.7168   C.3       1 RES1   0.0000
    49 H23     14.7332   5.1815  -5.0612   H         1 RES1   0.0000
    50 H24     14.5963   3.6100  -5.3135   H         1 RES1   0.0000
    51 C16     16.5163   4.1744  -4.7913   C.3       1 RES1   0.0000
    52 H25     16.9220   4.8645  -4.2068   H         1 RES1   0.0000
    53 H26     16.7860   3.2883  -4.4428   H         1 RES1   0.0000
    54 C17     17.0635   4.3380  -6.1936   C.3       1 RES1   0.0000
    55 H27     16.6596   3.6440  -6.7741   H         1 RES1   0.0000
    56 H28     16.7789   5.2202  -6.5435   H         1 RES1   0.0000
    57 C18     18.5777   4.2392  -6.2980   C.3       1 RES1   0.0000
    58 H29     18.8675   3.3610  -5.9454   H         1 RES1   0.0000
    59 H30     18.9862   4.9420  -5.7325   H         1 RES1   0.0000
    60 C19     19.0839   4.3934  -7.7274   C.3       1 RES1   0.0000
    61 H31     20.0631   4.3515  -7.7342   H         1 RES1   0.0000
    62 H32     18.7933   5.2573  -8.0868   H         1 RES1   0.0000
    63 H33     18.7245   3.6709  -8.2821   H         1 RES1   0.0000
    64 Cl1A    -2.4079   7.9432   3.2293   Cl        1 RES1   0.0000
    65 Cl2A    -2.7668   1.7568   6.6759   Cl        1 RES1   0.0000
    66 Cl3A     0.5021   1.9405   7.1379   Cl        1 RES1   0.0000
    67 B1A     -3.8087   3.8630   3.0365   B         1 RES1   0.0000
    68 O1A     -3.3207   5.2400   3.4162   O.3       1 RES1   0.0000
    69 O2A     -3.3742   2.8844   4.1015   O.3       1 RES1   0.0000
    70 O3A      1.6430   3.4843   5.0325   O.3       1 RES1   0.0000
    71 N1A     -1.9676   5.3506   3.5041   N.2       1 RES1   0.0000
    72 N2A     -2.0558   2.9397   4.4099   N.2       1 RES1   0.0000
    73 N3A      0.2904   3.3587   4.9236   N.2       1 RES1   0.0000
    74 C1A     -1.4609   6.5498   3.4007   C.2       1 RES1   0.0000
    75 C2A     -1.6910   2.4670   5.5779   C.2       1 RES1   0.0000
    76 C3A     -0.2939   2.6417   5.8279   C.2       1 RES1   0.0000
    77 C4A     -5.3666   3.8472   2.9292   C.3       1 RES1   0.0000
    78 H1A     -5.6466   4.4795   2.2214   H         1 RES1   0.0000
    79 H2A     -5.6629   2.9413   2.6608   H         1 RES1   0.0000
    80 C5A     -6.0543   4.2290   4.2436   C.3       1 RES1   0.0000
    81 H3A     -5.6619   3.6859   4.9717   H         1 RES1   0.0000
    82 H4A     -5.8533   5.1783   4.4387   H         1 RES1   0.0000
    83 C6A     -7.5543   4.0440   4.2638   C.3       1 RES1   0.0000
    84 H5A     -7.7667   3.1199   3.9804   H         1 RES1   0.0000
    85 H6A     -7.9624   4.6637   3.6088   H         1 RES1   0.0000
    86 C7A     -8.1692   4.2954   5.6376   C.3       1 RES1   0.0000
    87 H7A     -7.7305   3.6962   6.2940   H         1 RES1   0.0000
    88 H8A     -7.9674   5.2273   5.9061   H         1 RES1   0.0000
    89 C8A     -9.6639   4.0827   5.7110   C.3       1 RES1   0.0000
    90 H9A    -10.1063   4.7127   5.0897   H         1 RES1   0.0000
    91 H10A    -9.8715   3.1634   5.4057   H         1 RES1   0.0000
    92 C9A    -10.2427   4.2772   7.1018   C.3       1 RES1   0.0000
    93 H11A   -10.0268   5.1933   7.4101   H         1 RES1   0.0000
    94 H12A    -9.8043   3.6409   7.7207   H         1 RES1   0.0000
    95 C10A   -11.7427   4.0788   7.1850   C.3       1 RES1   0.0000
    96 H13A   -11.9611   3.1682   6.8636   H         1 RES1   0.0000
    97 H14A   -12.1845   4.7246   6.5774   H         1 RES1   0.0000
    98 C11A   -12.3159   4.2543   8.5791   C.3       1 RES1   0.0000
    99 H15A   -11.8906   3.5966   9.1840   H         1 RES1   0.0000
   100 H16A   -12.0848   5.1585   8.9073   H         1 RES1   0.0000
   101 C12A   -13.8183   4.0811   8.6522   C.3       1 RES1   0.0000
   102 H17A   -14.2442   4.7356   8.0421   H         1 RES1   0.0000
   103 H18A   -14.0474   3.1753   8.3269   H         1 RES1   0.0000
   104 C13A   -14.4018   4.2622  10.0407   C.3       1 RES1   0.0000
   105 H19A   -14.1541   5.1601  10.3747   H         1 RES1   0.0000
   106 H20A   -13.9945   3.5934  10.6459   H         1 RES1   0.0000
   107 C14A   -15.9095   4.1183  10.1075   C.3       1 RES1   0.0000
   108 H21A   -16.1602   3.2219   9.7685   H         1 RES1   0.0000
   109 H22A   -16.3171   4.7902   9.5054   H         1 RES1   0.0000
   110 C15A   -16.4917   4.2922  11.4976   C.3       1 RES1   0.0000
   111 H23A   -16.2278   5.1815  11.8421   H         1 RES1   0.0000
   112 H24A   -16.0909   3.6100  12.0943   H         1 RES1   0.0000
   113 C16A   -18.0109   4.1744  11.5722   C.3       1 RES1   0.0000
   114 H25A   -18.4165   4.8645  10.9877   H         1 RES1   0.0000
   115 H26A   -18.2805   3.2883  11.2236   H         1 RES1   0.0000
   116 C17A   -18.5581   4.3380  12.9745   C.3       1 RES1   0.0000
   117 H27A   -18.1542   3.6440  13.5549   H         1 RES1   0.0000
   118 H28A   -18.2735   5.2202  13.3244   H         1 RES1   0.0000
   119 C18A   -20.0723   4.2392  13.0789   C.3       1 RES1   0.0000
   120 H29A   -20.3621   3.3610  12.7263   H         1 RES1   0.0000
   121 H30A   -20.4808   4.9420  12.5134   H         1 RES1   0.0000
   122 C19A   -20.5785   4.3934  14.5083   C.3       1 RES1   0.0000
   123 H31A   -21.5576   4.3515  14.5151   H         1 RES1   0.0000
   124 H32A   -20.2879   5.2573  14.8677   H         1 RES1   0.0000
   125 H33A   -20.2191   3.6709  15.0630   H         1 RES1   0.0000
@<TRIPOS>BOND
     1     1     9    1
     2     2    12    1
     3     3    13    1
     4     4    14    1
     5     5     6    1
     6     6     9    1
     7     7     5    1
     8     8    11    1
     9     9    12    2
    10    10     1    1
    11    11     1    1
    12    12    74    1
    13    13    10    2
    14    14    11    2
    15    15     5    1
    16    16    15    1
    17    17    15    1
    18    18    15    1
    19    19    18    1
    20    20    18    1
    21    21    18    1
    22    22    21    1
    23    23    21    1
    24    24    21    1
    25    25    24    1
    26    26    24    1
    27    27    24    1
    28    28    27    1
    29    29    27    1
    30    30    27    1
    31    31    30    1
    32    32    30    1
    33    33    30    1
    34    34    33    1
    35    35    33    1
    36    36    33    1
    37    37    36    1
    38    38    36    1
    39    39    36    1
    40    40    39    1
    41    41    39    1
    42    42    39    1
    43    43    42    1
    44    44    42    1
    45    45    42    1
    46    46    45    1
    47    47    45    1
    48    48    45    1
    49    49    48    1
    50    50    48    1
    51    51    48    1
    52    52    51    1
    53    53    51    1
    54    54    51    1
    55    55    54    1
    56    56    54    1
    57    57    54    1
    58    58    57    1
    59    59    57    1
    60    60    57    1
    61    61    60    1
    62    62    60    1
    63    63    60    1
    64    64    74    1
    65    65    75    1
    66    66    76    1
    67    67     8    1
    68    68    67    1
    69    69    67    1
    70    70     5    1
    71    71     1    1
    72    72     1    1
    73    73     1    1
    74    74    71    2
    75    75    72    2
    76    76    73    2
    77    77    67    1
    78    78    77    1
    79    79    77    1
    80    80    77    1
    81    81    80    1
    82    82    80    1
    83    83    80    1
    84    84    83    1
    85    85    83    1
    86    86    83    1
    87    87    86    1
    88    88    86    1
    89    89    86    1
    90    90    89    1
    91    91    89    1
    92    92    89    1
    93    93    92    1
    94    94    92    1
    95    95    92    1
    96    96    95    1
    97    97    95    1
    98    98    95    1
    99    99    98    1
   100   100    98    1
   101   101    98    1
   102   102   101    1
   103   103   101    1
   104   104   101    1
   105   105   104    1
   106   106   104    1
   107   107   104    1
   108   108   107    1
   109   109   107    1
   110   110   107    1
   111   111   110    1
   112   112   110    1
   113   113   110    1
   114   114   113    1
   115   115   113    1
   116   116   113    1
   117   117   116    1
   118   118   116    1
   119   119   116    1
   120   120   119    1
   121   121   119    1
   122   122   119    1
   123   123   122    1
   124   124   122    1
   125   125   122    1
   126     7    10    1
   127    13    14    1
   128    68    71    1
   129    69    72    1
   130    70    73    1
   131    75    76    1
@<TRIPOS>SUBSTRUCTURE
     1 RES1        1 GROUP             0 ****  ****    0  
@<TRIPOS>CRYSIN
   44.7655    7.9046   13.8872   90.0000  102.4300   90.0000    15     1
