@<TRIPOS>MOLECULE
YUFYUV04
   125   131     1     0     0
SMALL
USER_CHARGES
****
Generated from the CSD

@<TRIPOS>ATOM
     1 Fe1     -0.7290   3.8930   3.4096   Fe        1 RES1   2.0000
     2 Cl1      0.9302   7.9542   3.5539   Cl        1 RES1   0.0000
     3 Cl2      1.2734   1.7767   0.1102   Cl        1 RES1   0.0000
     4 Cl3     -1.9933   1.9609  -0.3340   Cl        1 RES1   0.0000
     5 B1       2.3338   3.8891   3.7465   B         1 RES1  -1.0000
     6 O1       1.8409   5.2566   3.3833   O.3       1 RES1   0.0000
     7 O2       1.9011   2.9210   2.6753   O.3       1 RES1   0.0000
     8 O3      -3.1306   3.4896   1.7935   O.3       1 RES1   0.0000
     9 N1       0.4796   5.3734   3.3101   N.2       1 RES1   0.0000
    10 N2       0.5684   2.9670   2.3676   N.2       1 RES1   0.0000
    11 N3      -1.7712   3.3609   1.8858   N.2       1 RES1   0.0000
    12 C1      -0.0160   6.5535   3.3987   C.2       1 RES1   0.0000
    13 C2       0.2095   2.4826   1.2220   C.2       1 RES1   0.0000
    14 C3      -1.1933   2.6541   0.9670   C.2       1 RES1   0.0000
    15 C4       3.8807   3.8668   3.8529   C.3       1 RES1   0.0000
    16 H1       4.1615   4.4934   4.5525   H         1 RES1   0.0000
    17 H2       4.1677   2.9694   4.1243   H         1 RES1   0.0000
    18 C5       4.5864   4.2369   2.5463   C.3       1 RES1   0.0000
    19 H3       4.2012   3.6977   1.8248   H         1 RES1   0.0000
    20 H4       4.3905   5.1764   2.3472   H         1 RES1   0.0000
    21 C6       6.0871   4.0495   2.5286   C.3       1 RES1   0.0000
    22 H5       6.2956   3.1338   2.8082   H         1 RES1   0.0000
    23 H6       6.4903   4.6602   3.1791   H         1 RES1   0.0000
    24 C7       6.7094   4.3012   1.1688   C.3       1 RES1   0.0000
    25 H7       6.2778   3.7112   0.5169   H         1 RES1   0.0000
    26 H8       6.5137   5.2248   0.9056   H         1 RES1   0.0000
    27 C8       8.1891   4.0884   1.0897   C.3       1 RES1   0.0000
    28 H9       8.6295   4.7126   1.7048   H         1 RES1   0.0000
    29 H10      8.3899   3.1799   1.3966   H         1 RES1   0.0000
    30 C9       8.7831   4.2758  -0.2973   C.3       1 RES1   0.0000
    31 H11      8.5712   5.1812  -0.6069   H         1 RES1   0.0000
    32 H12      8.3484   3.6460  -0.9097   H         1 RES1   0.0000
    33 C10     10.2736   4.0765  -0.3832   C.3       1 RES1   0.0000
    34 H13     10.4896   3.1759  -0.0614   H         1 RES1   0.0000
    35 H14     10.7087   4.7166   0.2169   H         1 RES1   0.0000
    36 C11     10.8559   4.2440  -1.7744   C.3       1 RES1   0.0000
    37 H15     10.4268   3.5960  -2.3731   H         1 RES1   0.0000
    38 H16     10.6294   5.1399  -2.1017   H         1 RES1   0.0000
    39 C12     12.3604   4.0614  -1.8603   C.3       1 RES1   0.0000
    40 H17     12.7850   4.7055  -1.2575   H         1 RES1   0.0000
    41 H18     12.5845   3.1632  -1.5384   H         1 RES1   0.0000
    42 C13     12.9453   4.2353  -3.2364   C.3       1 RES1   0.0000
    43 H19     12.7039   5.1248  -3.5678   H         1 RES1   0.0000
    44 H20     12.5362   3.5754  -3.8338   H         1 RES1   0.0000
    45 C14     14.4440   4.0868  -3.3142   C.3       1 RES1   0.0000
    46 H21     14.6876   3.1942  -2.9909   H         1 RES1   0.0000
    47 H22     14.8569   4.7412  -2.7113   H         1 RES1   0.0000
    48 C15     15.0215   4.2742  -4.6917   C.3       1 RES1   0.0000
    49 H23     14.7624   5.1597  -5.0217   H         1 RES1   0.0000
    50 H24     14.6221   3.6079  -5.2904   H         1 RES1   0.0000
    51 C16     16.5287   4.1543  -4.7776   C.3       1 RES1   0.0000
    52 H25     16.9296   4.8286  -4.1898   H         1 RES1   0.0000
    53 H26     16.7942   3.2736  -4.4393   H         1 RES1   0.0000
    54 C17     17.0965   4.3274  -6.1701   C.3       1 RES1   0.0000
    55 H27     16.7045   3.6429  -6.7511   H         1 RES1   0.0000
    56 H28     16.8107   5.2002  -6.5124   H         1 RES1   0.0000
    57 C18     18.6003   4.2385  -6.2846   C.3       1 RES1   0.0000
    58 H29     18.8920   3.3736  -5.9300   H         1 RES1   0.0000
    59 H30     19.0019   4.9397  -5.7295   H         1 RES1   0.0000
    60 C19     19.1196   4.3870  -7.7194   C.3       1 RES1   0.0000
    61 H31     20.0914   4.3751  -7.7153   H         1 RES1   0.0000
    62 H32     18.8106   5.2272  -8.0917   H         1 RES1   0.0000
    63 H33     18.7884   3.6524  -8.2609   H         1 RES1   0.0000
    64 Cl1A    -2.3883   7.9542   3.2653   Cl        1 RES1   0.0000
    65 Cl2A    -2.7315   1.7767   6.7091   Cl        1 RES1   0.0000
    66 Cl3A     0.5353   1.9609   7.1533   Cl        1 RES1   0.0000
    67 B1A     -3.7919   3.8891   3.0728   B         1 RES1  -1.0000
    68 O1A     -3.2990   5.2566   3.4360   O.3       1 RES1   0.0000
    69 O2A     -3.3592   2.9210   4.1439   O.3       1 RES1   0.0000
    70 O3A      1.6726   3.4896   5.0258   O.3       1 RES1   0.0000
    71 N1A     -1.9377   5.3734   3.5092   N.2       1 RES1   0.0000
    72 N2A     -2.0264   2.9670   4.4516   N.2       1 RES1   0.0000
    73 N3A      0.3131   3.3609   4.9335   N.2       1 RES1   0.0000
    74 C1A     -1.4421   6.5535   3.4205   C.2       1 RES1   0.0000
    75 C2A     -1.6676   2.4826   5.5973   C.2       1 RES1   0.0000
    76 C3A     -0.2648   2.6541   5.8523   C.2       1 RES1   0.0000
    77 C4A     -5.3388   3.8668   2.9664   C.3       1 RES1   0.0000
    78 H1A     -5.6196   4.4934   2.2667   H         1 RES1   0.0000
    79 H2A     -5.6258   2.9694   2.6950   H         1 RES1   0.0000
    80 C5A     -6.0445   4.2369   4.2730   C.3       1 RES1   0.0000
    81 H3A     -5.6592   3.6977   4.9944   H         1 RES1   0.0000
    82 H4A     -5.8485   5.1764   4.4721   H         1 RES1   0.0000
    83 C6A     -7.5452   4.0495   4.2907   C.3       1 RES1   0.0000
    84 H5A     -7.7536   3.1338   4.0111   H         1 RES1   0.0000
    85 H6A     -7.9483   4.6602   3.6401   H         1 RES1   0.0000
    86 C7A     -8.1675   4.3012   5.6504   C.3       1 RES1   0.0000
    87 H7A     -7.7359   3.7112   6.3024   H         1 RES1   0.0000
    88 H8A     -7.9717   5.2248   5.9137   H         1 RES1   0.0000
    89 C8A     -9.6472   4.0884   5.7295   C.3       1 RES1   0.0000
    90 H9A    -10.0875   4.7126   5.1144   H         1 RES1   0.0000
    91 H10A    -9.8479   3.1799   5.4227   H         1 RES1   0.0000
    92 C9A    -10.2411   4.2758   7.1166   C.3       1 RES1   0.0000
    93 H11A   -10.0292   5.1812   7.4262   H         1 RES1   0.0000
    94 H12A    -9.8065   3.6460   7.7290   H         1 RES1   0.0000
    95 C10A   -11.7317   4.0765   7.2025   C.3       1 RES1   0.0000
    96 H13A   -11.9477   3.1759   6.8806   H         1 RES1   0.0000
    97 H14A   -12.1667   4.7166   6.6024   H         1 RES1   0.0000
    98 C11A   -12.3140   4.2440   8.5936   C.3       1 RES1   0.0000
    99 H15A   -11.8849   3.5960   9.1924   H         1 RES1   0.0000
   100 H16A   -12.0874   5.1399   8.9210   H         1 RES1   0.0000
   101 C12A   -13.8185   4.0614   8.6796   C.3       1 RES1   0.0000
   102 H17A   -14.2430   4.7055   8.0767   H         1 RES1   0.0000
   103 H18A   -14.0425   3.1632   8.3577   H         1 RES1   0.0000
   104 C13A   -14.4034   4.2353  10.0557   C.3       1 RES1   0.0000
   105 H19A   -14.1620   5.1248  10.3871   H         1 RES1   0.0000
   106 H20A   -13.9942   3.5754  10.6531   H         1 RES1   0.0000
   107 C14A   -15.9021   4.0868  10.1334   C.3       1 RES1   0.0000
   108 H21A   -16.1456   3.1942   9.8102   H         1 RES1   0.0000
   109 H22A   -16.3150   4.7412   9.5306   H         1 RES1   0.0000
   110 C15A   -16.4796   4.2742  11.5109   C.3       1 RES1   0.0000
   111 H23A   -16.2204   5.1597  11.8410   H         1 RES1   0.0000
   112 H24A   -16.0802   3.6079  12.1096   H         1 RES1   0.0000
   113 C16A   -17.9868   4.1543  11.5968   C.3       1 RES1   0.0000
   114 H25A   -18.3876   4.8286  11.0090   H         1 RES1   0.0000
   115 H26A   -18.2523   3.2736  11.2586   H         1 RES1   0.0000
   116 C17A   -18.5545   4.3274  12.9893   C.3       1 RES1   0.0000
   117 H27A   -18.1626   3.6429  13.5703   H         1 RES1   0.0000
   118 H28A   -18.2688   5.2002  13.3317   H         1 RES1   0.0000
   119 C18A   -20.0584   4.2385  13.1039   C.3       1 RES1   0.0000
   120 H29A   -20.3501   3.3736  12.7493   H         1 RES1   0.0000
   121 H30A   -20.4600   4.9397  12.5488   H         1 RES1   0.0000
   122 C19A   -20.5777   4.3870  14.5387   C.3       1 RES1   0.0000
   123 H31A   -21.5494   4.3751  14.5346   H         1 RES1   0.0000
   124 H32A   -20.2687   5.2272  14.9110   H         1 RES1   0.0000
   125 H33A   -20.2464   3.6524  15.0801   H         1 RES1   0.0000
@<TRIPOS>BOND
     1     1     9    1
     2     2    12    1
     3     3    13    1
     4     4    14    1
     5     5     6    1
     6     6     9    1
     7     7     5    1
     8     8    11    1
     9     9    12    2
    10    10     1    1
    11    11     1    1
    12    12    74    1
    13    13    10    2
    14    14    11    2
    15    15     5    1
    16    16    15    1
    17    17    15    1
    18    18    15    1
    19    19    18    1
    20    20    18    1
    21    21    18    1
    22    22    21    1
    23    23    21    1
    24    24    21    1
    25    25    24    1
    26    26    24    1
    27    27    24    1
    28    28    27    1
    29    29    27    1
    30    30    27    1
    31    31    30    1
    32    32    30    1
    33    33    30    1
    34    34    33    1
    35    35    33    1
    36    36    33    1
    37    37    36    1
    38    38    36    1
    39    39    36    1
    40    40    39    1
    41    41    39    1
    42    42    39    1
    43    43    42    1
    44    44    42    1
    45    45    42    1
    46    46    45    1
    47    47    45    1
    48    48    45    1
    49    49    48    1
    50    50    48    1
    51    51    48    1
    52    52    51    1
    53    53    51    1
    54    54    51    1
    55    55    54    1
    56    56    54    1
    57    57    54    1
    58    58    57    1
    59    59    57    1
    60    60    57    1
    61    61    60    1
    62    62    60    1
    63    63    60    1
    64    64    74    1
    65    65    75    1
    66    66    76    1
    67    67     8    1
    68    68    67    1
    69    69    67    1
    70    70     5    1
    71    71     1    1
    72    72     1    1
    73    73     1    1
    74    74    71    2
    75    75    72    2
    76    76    73    2
    77    77    67    1
    78    78    77    1
    79    79    77    1
    80    80    77    1
    81    81    80    1
    82    82    80    1
    83    83    80    1
    84    84    83    1
    85    85    83    1
    86    86    83    1
    87    87    86    1
    88    88    86    1
    89    89    86    1
    90    90    89    1
    91    91    89    1
    92    92    89    1
    93    93    92    1
    94    94    92    1
    95    95    92    1
    96    96    95    1
    97    97    95    1
    98    98    95    1
    99    99    98    1
   100   100    98    1
   101   101    98    1
   102   102   101    1
   103   103   101    1
   104   104   101    1
   105   105   104    1
   106   106   104    1
   107   107   104    1
   108   108   107    1
   109   109   107    1
   110   110   107    1
   111   111   110    1
   112   112   110    1
   113   113   110    1
   114   114   113    1
   115   115   113    1
   116   116   113    1
   117   117   116    1
   118   118   116    1
   119   119   116    1
   120   120   119    1
   121   121   119    1
   122   122   119    1
   123   123   122    1
   124   124   122    1
   125   125   122    1
   126     7    10    1
   127    13    14    1
   128    68    71    1
   129    69    72    1
   130    70    73    1
   131    75    76    1
@<TRIPOS>SUBSTRUCTURE
     1 RES1        1 GROUP             0 ****  ****    0  
@<TRIPOS>CRYSIN
   44.9250    7.9417   13.9468   90.0000  102.0690   90.0000    15     1
