@<TRIPOS>MOLECULE
YUPBUJ
   107   113     4     0     0
SMALL
USER_CHARGES
****
Generated from the CSD

@<TRIPOS>ATOM
     1 Br1     -0.0861  11.3548  10.9078   Br        1 RES1   0.0000
     2 Br2      6.8301  15.7125   1.7967   Br        1 RES1   0.0000
     3 Br3     10.0938   5.9085   9.1795   Br        1 RES1   0.0000
     4 Br4      8.4751  17.1860  13.6443   Br        1 RES1   0.0000
     5 C1       6.7500  10.8801  10.7016   C.2       1 RES1   0.0000
     6 C2       6.3874   9.9689  11.8236   C.3       1 RES1   0.0000
     7 H1       6.9341   9.1563  11.7745   H         1 RES1   0.0000
     8 H2       5.4394   9.7279  11.7557   H         1 RES1   0.0000
     9 H3       6.5493  10.4201  12.6777   H         1 RES1   0.0000
    10 C3       8.1518  11.1153  10.3609   C.ar      1 RES1   0.0000
    11 C4       9.2855  10.6150  10.9954   C.ar      1 RES1   0.0000
    12 H4       9.2048  10.0756  11.7741   H         1 RES1   0.0000
    13 C5      10.5254  10.9152  10.4750   C.ar      1 RES1   0.0000
    14 H5      11.3082  10.5942  10.9079   H         1 RES1   0.0000
    15 C6      10.6421  11.6754   9.3295   C.ar      1 RES1   0.0000
    16 H6      11.4977  11.8802   8.9694   H         1 RES1   0.0000
    17 C7       9.4839  12.1354   8.7122   C.ar      1 RES1   0.0000
    18 C8       9.3417  12.8184   7.4261   C.2       1 RES1   0.0000
    19 C9      10.5222  13.1432   6.5666   C.3       1 RES1   0.0000
    20 H7      11.3354  13.1400   7.1124   H         1 RES1   0.0000
    21 H8      10.4007  14.0291   6.1655   H         1 RES1   0.0000
    22 H9      10.6030  12.4721   5.8561   H         1 RES1   0.0000
    23 C10      4.4967  11.4050  10.1468   C.ar      1 RES1   0.0000
    24 C11      3.9765  12.0441  11.2516   C.ar      1 RES1   0.0000
    25 H10      4.5599  12.4833  11.8595   H         1 RES1   0.0000
    26 C12      2.6066  12.0564  11.4861   C.ar      1 RES1   0.0000
    27 H11      2.2475  12.5035  12.2436   H         1 RES1   0.0000
    28 C13      1.7771  11.4033  10.5969   C.ar      1 RES1   0.0000
    29 C14      2.2847  10.7607   9.4920   C.ar      1 RES1   0.0000
    30 H12      1.7057  10.3076   8.8909   H         1 RES1   0.0000
    31 C15      3.6529  10.7800   9.2654   C.ar      1 RES1   0.0000
    32 H13      4.0071  10.3570   8.4931   H         1 RES1   0.0000
    33 C16      7.7952  13.6541   5.8399   C.ar      1 RES1   0.0000
    34 C17      7.6982  12.8991   4.6882   C.ar      1 RES1   0.0000
    35 H14      7.8445  11.9604   4.7214   H         1 RES1   0.0000
    36 C18      7.3835  13.5084   3.4818   C.ar      1 RES1   0.0000
    37 H15      7.3172  12.9985   2.6830   H         1 RES1   0.0000
    38 C19      7.1714  14.8743   3.4677   C.ar      1 RES1   0.0000
    39 C20      7.2314  15.6345   4.6085   C.ar      1 RES1   0.0000
    40 H16      7.0614  16.5688   4.5739   H         1 RES1   0.0000
    41 C21      7.5432  15.0183   5.8118   C.ar      1 RES1   0.0000
    42 H17      7.5850  15.5282   6.6129   H         1 RES1   0.0000
    43 C22      5.7018  10.4411   6.4447   C.2       1 RES1   0.0000
    44 C23      5.3568   9.2157   5.6774   C.3       1 RES1   0.0000
    45 H18      4.4380   8.9487   5.8864   H         1 RES1   0.0000
    46 H19      5.9717   8.4933   5.9237   H         1 RES1   0.0000
    47 H20      5.4348   9.3986   4.7181   H         1 RES1   0.0000
    48 C24      4.8865  11.6508   6.3025   C.ar      1 RES1   0.0000
    49 C25      3.8157  11.8475   5.4430   C.ar      1 RES1   0.0000
    50 H21      3.5524  11.1716   4.8298   H         1 RES1   0.0000
    51 C26      3.1440  13.0536   5.4992   C.ar      1 RES1   0.0000
    52 H22      2.4100  13.2093   4.9178   H         1 RES1   0.0000
    53 C27      3.5291  14.0368   6.3962   C.ar      1 RES1   0.0000
    54 H23      3.0705  14.8680   6.4310   H         1 RES1   0.0000
    55 C28      4.5993  13.7805   7.2417   C.ar      1 RES1   0.0000
    56 C29      5.1642  14.6496   8.2856   C.2       1 RES1   0.0000
    57 C30      4.6263  16.0155   8.4934   C.3       1 RES1   0.0000
    58 H24      4.3044  16.3730   7.6395   H         1 RES1   0.0000
    59 H25      5.3337  16.5950   8.8446   H         1 RES1   0.0000
    60 H26      3.8848  15.9797   9.1329   H         1 RES1   0.0000
    61 C31      7.4709   9.4404   7.6808   C.ar      1 RES1   0.0000
    62 C32      6.9472   8.4941   8.5450   C.ar      1 RES1   0.0000
    63 H27      6.0474   8.5691   8.8402   H         1 RES1   0.0000
    64 C33      7.7294   7.4407   8.9810   C.ar      1 RES1   0.0000
    65 H28      7.3714   6.7842   9.5659   H         1 RES1   0.0000
    66 C34      9.0426   7.3564   8.5528   C.ar      1 RES1   0.0000
    67 C35      9.5789   8.2922   7.6886   C.ar      1 RES1   0.0000
    68 H29     10.4803   8.2157   7.3982   H         1 RES1   0.0000
    69 C36      8.7862   9.3421   7.2511   C.ar      1 RES1   0.0000
    70 H30      9.1442   9.9932   6.6598   H         1 RES1   0.0000
    71 C37      6.7072  14.8251  10.0452   C.ar      1 RES1   0.0000
    72 C38      5.9152  15.1113  11.1391   C.ar      1 RES1   0.0000
    73 H31      5.0084  14.8263  11.1554   H         1 RES1   0.0000
    74 C39      6.4389  15.8189  12.2158   C.ar      1 RES1   0.0000
    75 H32      5.8981  16.0196  12.9701   H         1 RES1   0.0000
    76 C40      7.7554  16.2227  12.1705   C.ar      1 RES1   0.0000
    77 C41      8.5528  15.9593  11.0766   C.ar      1 RES1   0.0000
    78 H33      9.4484  16.2733  11.0503   H         1 RES1   0.0000
    79 C42      8.0329  15.2342  10.0155   C.ar      1 RES1   0.0000
    80 H34      8.5816  15.0196   9.2714   H         1 RES1   0.0000
    81 Fe1      6.7238  12.3075   8.2962   Fe        1 RES1   2.0000
    82 N1       5.9051  11.4440   9.8850   N.2       1 RES1   0.0000
    83 N2       8.2684  11.8849   9.2617   N.ar      1 RES1   0.0000
    84 N3       8.1050  13.0211   7.0896   N.2       1 RES1   0.0000
    85 N4       6.6556  10.5665   7.3181   N.2       1 RES1   0.0000
    86 N5       5.2508  12.5987   7.1873   N.ar      1 RES1   0.0000
    87 N6       6.1568  14.1114   8.9229   N.2       1 RES1   0.0000
    88 C43      5.4105  13.5926  15.1913   C.3       2 RES2   0.0000
    89 H35      4.7566  14.1441  14.7134   H         2 RES2   0.0000
    90 H36      5.8795  14.1406  15.8536   H         2 RES2   0.0000
    91 H37      4.9478  12.8564  15.6441   H         2 RES2   0.0000
    92 C44      6.3744  13.0466  14.2396   C.1       2 RES2   0.0000
    93 N7       7.1036  12.6235  13.4863   N.1       2 RES2   0.0000
    94 F1      10.6316   7.3480  14.6553   F         3 RES3   0.0000
    95 F2      10.8270   9.1649  13.3513   F         3 RES3   0.0000
    96 F3       9.8653   7.3020  12.5409   F         3 RES3   0.0000
    97 F4      11.9040   7.9316  11.8053   F         3 RES3   0.0000
    98 F5      11.6918   6.1081  13.1066   F         3 RES3   0.0000
    99 F6      12.6555   7.9726  13.9317   F         3 RES3   0.0000
   100 P1      11.2622   7.6271  13.2201   P.3       3 RES3  -1.0000
   101 F7       4.6513  11.9751   2.5926   F         4 RES4   0.0000
   102 F8       4.3839   9.7401   2.4829   F         4 RES4   0.0000
   103 F9       3.6665  11.0434   0.7861   F         4 RES4   0.0000
   104 F10      5.7541  11.9463   0.6313   F         4 RES4   0.0000
   105 F11      5.4614   9.7087   0.4959   F         4 RES4   0.0000
   106 F12      6.4465  10.6223   2.3224   F         4 RES4   0.0000
   107 P2       5.0570  10.8427   1.5430   P.3       4 RES4  -1.0000
@<TRIPOS>BOND
     1     1    28    1
     2     2    38    1
     3     3    66    1
     4     4    76    1
     5     5     6    1
     6     6     7    1
     7     8     6    1
     8     9     6    1
     9    10     5    1
    10    11    10   ar
    11    12    11    1
    12    13    11   ar
    13    14    13    1
    14    15    13   ar
    15    16    15    1
    16    17    15   ar
    17    18    17    1
    18    19    18    1
    19    20    19    1
    20    21    19    1
    21    22    19    1
    22    23    24   ar
    23    24    25    1
    24    26    24   ar
    25    27    26    1
    26    28    26   ar
    27    29    28   ar
    28    30    29    1
    29    31    23   ar
    30    32    31    1
    31    33    34   ar
    32    34    35    1
    33    36    34   ar
    34    37    36    1
    35    38    36   ar
    36    39    38   ar
    37    40    39    1
    38    41    33   ar
    39    42    41    1
    40    43    44    1
    41    44    45    1
    42    46    44    1
    43    47    44    1
    44    48    43    1
    45    49    48   ar
    46    50    49    1
    47    51    49   ar
    48    52    51    1
    49    53    51   ar
    50    54    53    1
    51    55    53   ar
    52    56    55    1
    53    57    56    1
    54    58    57    1
    55    59    57    1
    56    60    57    1
    57    61    62   ar
    58    62    63    1
    59    64    62   ar
    60    65    64    1
    61    66    64   ar
    62    67    66   ar
    63    68    67    1
    64    69    61   ar
    65    70    69    1
    66    71    72   ar
    67    72    73    1
    68    74    72   ar
    69    75    74    1
    70    76    74   ar
    71    77    76   ar
    72    78    77    1
    73    79    71   ar
    74    80    79    1
    75    81    82    1
    76    82     5    2
    77    83    10   ar
    78    84    18    2
    79    85    43    2
    80    86    48   ar
    81    87    56    2
    82    17    83   ar
    83    23    82    1
    84    29    31   ar
    85    33    84    1
    86    39    41   ar
    87    55    86   ar
    88    61    85    1
    89    67    69   ar
    90    71    87    1
    91    77    79   ar
    92    81    83    1
    93    81    84    1
    94    81    85    1
    95    81    86    1
    96    81    87    1
    97    88    89    1
    98    90    88    1
    99    91    88    1
   100    92    88    1
   101    93    92    3
   102    94   100    1
   103    95   100    1
   104    96   100    1
   105    97   100    1
   106    98   100    1
   107    99   100    1
   108   101   107    1
   109   102   107    1
   110   103   107    1
   111   104   107    1
   112   105   107    1
   113   106   107    1
@<TRIPOS>SUBSTRUCTURE
     1 RES1        1 GROUP             0 ****  ****    0  
     2 RES2       88 GROUP             0 ****  ****    0  
     3 RES3       94 GROUP             0 ****  ****    0  
     4 RES4      101 GROUP             0 ****  ****    0  
@<TRIPOS>CRYSIN
   17.9244   17.5570   15.9880   90.0000  102.1940   90.0000     9     1
