@<TRIPOS>MOLECULE
ZASQOB
   114   120     4     0     0
SMALL
NO_CHARGES
****
Generated from the CSD

@<TRIPOS>ATOM
     1 Fe1     -2.1303   0.0000   0.0000   Fe        1 RES1   0.0000
     2 C1      -4.3554   9.4372   3.8368   C.2       1 RES1   0.0000
     3 C2      -3.6620  10.6899   3.4761   C.ar      1 RES1   0.0000
     4 C3      -2.2723  10.7922   3.6642   C.ar      1 RES1   0.0000
     5 C4      -1.5336   9.7412   4.2289   C.ar      1 RES1   0.0000
     6 C5      -2.2104   8.5154   4.6210   C.2       1 RES1   0.0000
     7 C6      -4.3847  11.7290   2.9397   C.ar      1 RES1   0.0000
     8 H1      -5.3012  11.6455   2.8053   H         1 RES1   0.0000
     9 C7      -3.7136  12.9270   2.5944   C.ar      1 RES1   0.0000
    10 H2      -4.1920  13.6462   2.2504   H         1 RES1   0.0000
    11 C8      -2.3469  13.0234   2.7726   C.ar      1 RES1   0.0000
    12 H3      -1.9150  13.8111   2.5340   H         1 RES1   0.0000
    13 C9      -1.6076  11.9892   3.2961   C.ar      1 RES1   0.0000
    14 C10     -0.2030  12.0637   3.4928   C.ar      1 RES1   0.0000
    15 H4       0.2518  12.8416   3.2615   H         1 RES1   0.0000
    16 C11      0.4829  11.0187   4.0063   C.ar      1 RES1   0.0000
    17 H5       1.4046  11.0813   4.1124   H         1 RES1   0.0000
    18 C12     -0.1721   9.8544   4.3781   C.ar      1 RES1   0.0000
    19 H6       0.3132   9.1452   4.7289   H         1 RES1   0.0000
    20 C13     -4.2310   7.1415   4.6839   C.3       1 RES1   0.0000
    21 H7      -5.1733   7.2835   4.8646   H         1 RES1   0.0000
    22 H8      -3.8278   6.7451   5.4750   H         1 RES1   0.0000
    23 C14     -4.0738   6.2176   3.5193   C.2       1 RES1   0.0000
    24 C15     -2.9646   5.6296   2.9860   C.2       1 RES1   0.0000
    25 H9      -2.0997   5.6494   3.3294   H         1 RES1   0.0000
    26 C16     -2.6337   4.2895   0.8410   C.3       1 RES1   0.0000
    27 H10     -3.1510   4.3292   0.0123   H         1 RES1   0.0000
    28 C17     -1.2950   4.9590   0.5900   C.3       1 RES1   0.0000
    29 H11     -1.4275   5.9017   0.4686   H         1 RES1   0.0000
    30 H12     -0.8930   4.5865  -0.1973   H         1 RES1   0.0000
    31 H13     -0.7175   4.8130   1.3441   H         1 RES1   0.0000
    32 C18     -2.4358   2.8222   1.2023   C.2       1 RES1   0.0000
    33 C19      0.7645  -1.0679   0.4100   C.ar      1 RES1   0.0000
    34 H14      0.3005  -1.8219   0.6967   H         1 RES1   0.0000
    35 C20      2.1416  -1.0987   0.4285   C.ar      1 RES1   0.0000
    36 H15      2.5843  -1.8596   0.7275   H         1 RES1   0.0000
    37 C21      2.8723   0.0000   0.0000   C.ar      1 RES1   0.0000
    38 C22      4.3715   0.0000   0.0000   C.ar      1 RES1   0.0000
    39 C23      5.0850  -0.8682   0.8095   C.ar      1 RES1   0.0000
    40 H16      4.6456  -1.4722   1.3626   H         1 RES1   0.0000
    41 C24      6.4666  -0.8176   0.7750   C.ar      1 RES1   0.0000
    42 H17      6.9381  -1.3957   1.3317   H         1 RES1   0.0000
    43 N1      -3.5800   8.4359   4.3898   N.am      1 RES1   0.0000
    44 N2      -5.1016   5.9156   2.7190   N.2       1 RES1   0.0000
    45 N3      -4.6841   5.2163   1.7035   N.2       1 RES1   0.0000
    46 N4      -3.3758   5.0206   1.8700   N.pl3     1 RES1   0.0000
    47 N5       0.0631   0.0000   0.0000   N.ar      1 RES1   0.0000
    48 N6       7.1635   0.0000   0.0000   N.ar      1 RES1   0.0000
    49 O1      -5.5501   9.2495   3.6549   O.2       1 RES1   0.0000
    50 O2      -1.6415   7.5577   5.1272   O.2       1 RES1   0.0000
    51 O3      -2.1680   2.0941   0.1917   O.co2     1 RES1   0.0000
    52 O4      -2.5408   2.4557   2.3571   O.co2     1 RES1   0.0000
    53 O5      -2.1789  -0.1917   2.1363   O.3       1 RES1   0.0000
    54 H18     -2.3056   0.5364   2.2627   H         1 RES1   0.0000
    55 H19     -1.5887  -0.4470   2.5094   H         1 RES1   0.0000
    56 Fe1      9.3404   0.0000   0.0000   Fe        1 RES1   0.0000
    57 C1G     -4.3554  -9.4372  -3.8368   C.2       1 RES1   0.0000
    58 C2G     -3.6620 -10.6899  -3.4761   C.ar      1 RES1   0.0000
    59 C3G     -2.2723 -10.7922  -3.6642   C.ar      1 RES1   0.0000
    60 C4G     -1.5336  -9.7412  -4.2289   C.ar      1 RES1   0.0000
    61 C5G     -2.2104  -8.5154  -4.6210   C.2       1 RES1   0.0000
    62 C6G     -4.3847 -11.7290  -2.9397   C.ar      1 RES1   0.0000
    63 H1G     -5.3012 -11.6455  -2.8053   H         1 RES1   0.0000
    64 C7G     -3.7136 -12.9270  -2.5944   C.ar      1 RES1   0.0000
    65 H2G     -4.1920 -13.6462  -2.2504   H         1 RES1   0.0000
    66 C8G     -2.3469 -13.0234  -2.7726   C.ar      1 RES1   0.0000
    67 H3G     -1.9150 -13.8111  -2.5340   H         1 RES1   0.0000
    68 C9G     -1.6076 -11.9892  -3.2961   C.ar      1 RES1   0.0000
    69 C10G    -0.2030 -12.0637  -3.4928   C.ar      1 RES1   0.0000
    70 H4G      0.2518 -12.8416  -3.2615   H         1 RES1   0.0000
    71 C11G     0.4829 -11.0187  -4.0063   C.ar      1 RES1   0.0000
    72 H5G      1.4046 -11.0813  -4.1124   H         1 RES1   0.0000
    73 C12G    -0.1721  -9.8544  -4.3781   C.ar      1 RES1   0.0000
    74 H6G      0.3132  -9.1452  -4.7289   H         1 RES1   0.0000
    75 C13G    -4.2310  -7.1415  -4.6839   C.3       1 RES1   0.0000
    76 H7G     -5.1733  -7.2835  -4.8646   H         1 RES1   0.0000
    77 H8G     -3.8278  -6.7451  -5.4750   H         1 RES1   0.0000
    78 C14G    -4.0738  -6.2176  -3.5193   C.2       1 RES1   0.0000
    79 C15G    -2.9646  -5.6296  -2.9860   C.2       1 RES1   0.0000
    80 H9G     -2.0997  -5.6494  -3.3294   H         1 RES1   0.0000
    81 C16G    -2.6337  -4.2895  -0.8410   C.3       1 RES1   0.0000
    82 H10G    -3.1510  -4.3292  -0.0123   H         1 RES1   0.0000
    83 C17G    -1.2950  -4.9590  -0.5900   C.3       1 RES1   0.0000
    84 H11G    -1.4275  -5.9017  -0.4686   H         1 RES1   0.0000
    85 H12G    -0.8930  -4.5865   0.1973   H         1 RES1   0.0000
    86 H13G    -0.7175  -4.8130  -1.3441   H         1 RES1   0.0000
    87 C18G    -2.4358  -2.8222  -1.2023   C.2       1 RES1   0.0000
    88 C19G     0.7645   1.0679  -0.4100   C.ar      1 RES1   0.0000
    89 H14G     0.3005   1.8219  -0.6967   H         1 RES1   0.0000
    90 C20G     2.1416   1.0987  -0.4285   C.ar      1 RES1   0.0000
    91 H15G     2.5843   1.8596  -0.7275   H         1 RES1   0.0000
    92 C23G     5.0850   0.8682  -0.8095   C.ar      1 RES1   0.0000
    93 H16G     4.6456   1.4722  -1.3626   H         1 RES1   0.0000
    94 C24G     6.4666   0.8176  -0.7750   C.ar      1 RES1   0.0000
    95 H17G     6.9381   1.3957  -1.3317   H         1 RES1   0.0000
    96 N1G     -3.5800  -8.4359  -4.3898   N.am      1 RES1   0.0000
    97 N2G     -5.1016  -5.9156  -2.7190   N.2       1 RES1   0.0000
    98 N3G     -4.6841  -5.2163  -1.7035   N.2       1 RES1   0.0000
    99 N4G     -3.3758  -5.0206  -1.8700   N.pl3     1 RES1   0.0000
   100 N6      -4.3072   0.0000   0.0000   N.3       1 RES1   0.0000
   101 O1G     -5.5501  -9.2495  -3.6549   O.2       1 RES1   0.0000
   102 O2G     -1.6415  -7.5577  -5.1272   O.2       1 RES1   0.0000
   103 O3G     -2.1680  -2.0941  -0.1917   O.co2     1 RES1   0.0000
   104 O4G     -2.5408  -2.4557  -2.3571   O.co2     1 RES1   0.0000
   105 O5G     -2.1789   0.1917  -2.1363   O.3       1 RES1   0.0000
   106 H18G    -2.3056  -0.5364  -2.2627   H         1 RES1   0.0000
   107 H19G    -1.5887   0.4470  -2.5094   H         1 RES1   0.0000
   108 O6       0.2810   7.2677   7.3172   O.3       2 RES2   0.0000
   109 H20     -0.2311   7.4336   6.6649   H         2 RES2   0.0000
   110 H21      0.6217   8.0405   7.3863   H         2 RES2   0.0000
   111 O7       1.8026   9.6528   7.6760   O.3       3 RES3   0.0000
   112 H22      2.1617   9.4005   8.3974   H         3 RES3   0.0000
   113 H23      2.1880   9.4720   6.9485   H         3 RES3   0.0000
   114 O8       3.1613   8.4478   5.1359   O.3       4 RES4   0.0000
@<TRIPOS>BOND
     1     1    47    1
     2     2     3    1
     3     3     4   ar
     4     4     5   ar
     5     5     6    1
     6     6    43   am
     7     7     3   ar
     8     8     7    1
     9     9     7   ar
    10    10     9    1
    11    11     9   ar
    12    12    11    1
    13    13     4   ar
    14    14    13   ar
    15    15    14    1
    16    16    14   ar
    17    17    16    1
    18    18     5   ar
    19    19    18    1
    20    20    21    1
    21    22    20    1
    22    23    20    1
    23    24    23    2
    24    25    24    1
    25    26    27    1
    26    28    26    1
    27    29    28    1
    28    30    28    1
    29    31    28    1
    30    32    26    1
    31    33    34    1
    32    35    33   ar
    33    36    35    1
    34    37    35   ar
    35    38    37    1
    36    39    38   ar
    37    40    39    1
    38    41    39   ar
    39    42    41    1
    40    43     2   am
    41    44    23    1
    42    45    44    2
    43    46    24    1
    44    47    33   ar
    45    48    41   ar
    46    49     2    2
    47    50     6    2
    48    51     1    1
    49    52    32    2
    50    53     1    1
    51    54    53    1
    52    55    53    1
    53    56    48   un
    54    57    58    1
    55    58    59   ar
    56    59    60   ar
    57    60    61    1
    58    61    96   am
    59    62    58   ar
    60    63    62    1
    61    64    62   ar
    62    65    64    1
    63    66    64   ar
    64    67    66    1
    65    68    59   ar
    66    69    68   ar
    67    70    69    1
    68    71    69   ar
    69    72    71    1
    70    73    60   ar
    71    74    73    1
    72    75    76    1
    73    77    75    1
    74    78    75    1
    75    79    78    2
    76    80    79    1
    77    81    82    1
    78    83    81    1
    79    84    83    1
    80    85    83    1
    81    86    83    1
    82    87    81    1
    83    88    47   ar
    84    89    88    1
    85    90    37   ar
    86    91    90    1
    87    92    38   ar
    88    93    92    1
    89    94    48   ar
    90    95    94    1
    91    96    57   am
    92    97    78    1
    93    98    97    2
    94    99    79    1
    95   100     1   un
    96   101    57    2
    97   102    61    2
    98   103     1    1
    99   104    87    2
   100   105     1    1
   101   106   105    1
   102   107   105    1
   103    11    13   ar
   104    16    18   ar
   105    20    43    1
   106    26    46    1
   107    32    51    1
   108    45    46    1
   109    66    68   ar
   110    71    73   ar
   111    75    96    1
   112    81    99    1
   113    87   103    1
   114    88    90   ar
   115    92    94   ar
   116    98    99    1
   117   108   109    1
   118   110   108    1
   119   111   112    1
   120   113   111    1
@<TRIPOS>SUBSTRUCTURE
     1 RES1        1 GROUP             0 ****  ****    0  
     2 RES2      108 GROUP             0 ****  ****    0  
     3 RES3      111 GROUP             0 ****  ****    0  
     4 RES4      114 GROUP             0 ****  ****    0  
@<TRIPOS>CRYSIN
   11.4707   11.4707   61.6550   90.0000   90.0000  120.0000   178     1
