@<TRIPOS>MOLECULE
ZAXCUW
   107   114     1     0     0
SMALL
NO_CHARGES
****
Generated from the CSD

@<TRIPOS>ATOM
     1 Fe1     -2.0890   0.0000   7.3530   Fe        1 RES1   0.0000
     2 N1      -3.1077   1.5811   7.4383   N.2       1 RES1   0.0000
     3 N2      -1.5491  -0.0748   9.1589   N.2       1 RES1   0.0000
     4 O1      -3.1283   2.4288   8.5060   O.3       1 RES1   0.0000
     5 O2      -1.7133   0.9687  10.0457   O.3       1 RES1   0.0000
     6 B1      -3.0049   1.7563   9.8707   B         1 RES1   0.0000
     7 C1      -3.6259   2.0015   6.3059   C.2       1 RES1   0.0000
     8 C2      -0.7623  -1.0564   9.4927   C.2       1 RES1   0.0000
     9 C3      -4.3026   3.3168   6.1633   C.3       1 RES1   0.0000
    10 C4      -0.1301  -1.1981  10.8413   C.3       1 RES1   0.0000
    11 N3      -0.4165   1.1391   7.0059   N.3       1 RES1   0.0000
    12 C5      -0.3835   2.5430   6.7868   C.3       1 RES1   0.0000
    13 C6       0.9471   3.2006   6.4662   C.3       1 RES1   0.0000
    14 C7       1.9012   3.1662   7.4662   C.3       1 RES1   0.0000
    15 C8       3.2202   3.9006   7.1721   C.3       1 RES1   0.0000
    16 C9      -2.7843   5.3163  11.5016   C.ar      1 RES1   0.0000
    17 C10     -2.8419   4.3013  10.5619   C.ar      1 RES1   0.0000
    18 C11     -2.8871   2.9712  10.9222   C.ar      1 RES1   0.0000
    19 C12     -2.8601   2.7093  12.2781   C.ar      1 RES1   0.0000
    20 C13     -2.7776   3.7017  13.2281   C.ar      1 RES1   0.0000
    21 C14     -2.7353   5.0091  12.8339   C.ar      1 RES1   0.0000
    22 C15     -5.5481   1.0977   9.5913   C.ar      1 RES1   0.0000
    23 C16     -4.2843   0.8221  10.1530   C.ar      1 RES1   0.0000
    24 C17     -4.2274  -0.2766  11.0119   C.ar      1 RES1   0.0000
    25 C18     -5.3397  -1.0239  11.3089   C.ar      1 RES1   0.0000
    26 C19     -6.5586  -0.7275  10.7457   C.ar      1 RES1   0.0000
    27 C20     -6.6515   0.3367   9.8766   C.ar      1 RES1   0.0000
    28 H1      -4.3295   3.7539   7.0177   H         1 RES1   0.0000
    29 H2      -5.1972   3.1898   5.8412   H         1 RES1   0.0000
    30 H3      -3.8129   3.8602   5.5427   H         1 RES1   0.0000
    31 H4      -0.4056  -0.4745  11.4089   H         1 RES1   0.0000
    32 H5      -0.4038  -2.0320  11.2310   H         1 RES1   0.0000
    33 H6       0.8252  -1.1863  10.7486   H         1 RES1   0.0000
    34 H7      -0.0735   0.4686   6.4162   H         1 RES1   0.0000
    35 H8       0.1779   0.9146   7.6442   H         1 RES1   0.0000
    36 H9      -0.7257   2.9633   7.5795   H         1 RES1   0.0000
    37 H10     -0.9985   2.7340   6.0736   H         1 RES1   0.0000
    38 H11      0.7989   4.1191   6.2280   H         1 RES1   0.0000
    39 H12      1.3208   2.7566   5.7001   H         1 RES1   0.0000
    40 H13      2.0997   2.2476   7.6648   H         1 RES1   0.0000
    41 H14      1.5118   3.5609   8.2486   H         1 RES1   0.0000
    42 H15      3.8236   3.8396   7.9163   H         1 RES1   0.0000
    43 H16      3.6234   3.4979   6.4001   H         1 RES1   0.0000
    44 H17      3.0311   4.8241   6.9898   H         1 RES1   0.0000
    45 H18     -2.7559   6.2348  11.2251   H         1 RES1   0.0000
    46 H19     -2.8621   4.5218   9.6280   H         1 RES1   0.0000
    47 H20     -2.8885   1.7908  12.5545   H         1 RES1   0.0000
    48 H21     -2.7574   3.4812  14.1619   H         1 RES1   0.0000
    49 H22     -2.6866   5.7071  13.4913   H         1 RES1   0.0000
    50 H23     -5.6196   1.8420   8.9898   H         1 RES1   0.0000
    51 H24     -3.3802  -0.4932  11.4075   H         1 RES1   0.0000
    52 H25     -5.2682  -1.7682  11.9104   H         1 RES1   0.0000
    53 H26     -7.3334  -1.2543  10.9530   H         1 RES1   0.0000
    54 H27     -7.4987   0.5543   9.4810   H         1 RES1   0.0000
    55 N1B     -1.0703  -1.5811   7.2677   N.2       1 RES1   0.0000
    56 N2B     -2.6289   0.0748   5.5471   N.2       1 RES1   0.0000
    57 N3B     -3.7615  -1.1391   7.7001   N.3       1 RES1   0.0000
    58 C2B     -3.4157   1.0564   5.2133   C.2       1 RES1   0.0000
    59 C1B     -0.5522  -2.0015   8.4001   C.2       1 RES1   0.0000
    60 O1B     -1.0497  -2.4288   6.2001   O.3       1 RES1   0.0000
    61 O2B     -2.4647  -0.9687   4.6603   O.3       1 RES1   0.0000
    62 C5B     -3.7945  -2.5430   7.9192   C.3       1 RES1   0.0000
    63 H7B     -4.1045  -0.4686   8.2898   H         1 RES1   0.0000
    64 H8B     -4.3559  -0.9146   7.0618   H         1 RES1   0.0000
    65 C4B     -4.0479   1.1981   3.8647   C.3       1 RES1   0.0000
    66 C3B      0.1246  -3.3168   8.5427   C.3       1 RES1   0.0000
    67 B1B     -1.1732  -1.7563   4.8353   B         1 RES1   0.0000
    68 C6B     -5.1252  -3.2006   8.2398   C.3       1 RES1   0.0000
    69 H9B     -3.4523  -2.9633   7.1265   H         1 RES1   0.0000
    70 H10B    -3.1795  -2.7340   8.6324   H         1 RES1   0.0000
    71 H4B     -3.7725   0.4745   3.2971   H         1 RES1   0.0000
    72 H5B     -3.7743   2.0320   3.4750   H         1 RES1   0.0000
    73 H6B     -5.0033   1.1863   3.9574   H         1 RES1   0.0000
    74 H1B      0.1515  -3.7539   7.6883   H         1 RES1   0.0000
    75 H2B      1.0192  -3.1898   8.8648   H         1 RES1   0.0000
    76 H3B     -0.3651  -3.8602   9.1633   H         1 RES1   0.0000
    77 C11B    -1.2909  -2.9712   3.7839   C.ar      1 RES1   0.0000
    78 C16B     0.1062  -0.8221   4.5530   C.ar      1 RES1   0.0000
    79 C7B     -6.0792  -3.1662   7.2398   C.3       1 RES1   0.0000
    80 H11B    -4.9770  -4.1191   8.4780   H         1 RES1   0.0000
    81 H12B    -5.4988  -2.7566   9.0060   H         1 RES1   0.0000
    82 C10B    -1.3361  -4.3013   4.1442   C.ar      1 RES1   0.0000
    83 C12B    -1.3179  -2.7093   2.4280   C.ar      1 RES1   0.0000
    84 C15B     1.3701  -1.0977   5.1148   C.ar      1 RES1   0.0000
    85 C17B     0.0494   0.2766   3.6942   C.ar      1 RES1   0.0000
    86 C8B     -7.3982  -3.9006   7.5339   C.3       1 RES1   0.0000
    87 H13B    -6.2777  -2.2476   7.0412   H         1 RES1   0.0000
    88 H14B    -5.6898  -3.5609   6.4574   H         1 RES1   0.0000
    89 C9B     -1.3937  -5.3163   3.2044   C.ar      1 RES1   0.0000
    90 H19B    -1.3159  -4.5218   5.0780   H         1 RES1   0.0000
    91 C13B    -1.4004  -3.7017   1.4780   C.ar      1 RES1   0.0000
    92 H20B    -1.2895  -1.7908   2.1515   H         1 RES1   0.0000
    93 C20B     2.4735  -0.3367   4.8295   C.ar      1 RES1   0.0000
    94 H23B     1.4416  -1.8420   5.7162   H         1 RES1   0.0000
    95 C18B     1.1617   1.0239   3.3971   C.ar      1 RES1   0.0000
    96 H24B    -0.7979   0.4932   3.2986   H         1 RES1   0.0000
    97 H15B    -8.0016  -3.8396   6.7898   H         1 RES1   0.0000
    98 H16B    -7.8014  -3.4979   8.3060   H         1 RES1   0.0000
    99 H17B    -7.2091  -4.8240   7.7162   H         1 RES1   0.0000
   100 C14B    -1.4428  -5.0091   1.8721   C.ar      1 RES1   0.0000
   101 H18B    -1.4221  -6.2348   3.4809   H         1 RES1   0.0000
   102 H21B    -1.4206  -3.4812   0.5441   H         1 RES1   0.0000
   103 C19B     2.3805   0.7275   3.9603   C.ar      1 RES1   0.0000
   104 H27B     3.3207  -0.5543   5.2250   H         1 RES1   0.0000
   105 H25B     1.0902   1.7682   2.7956   H         1 RES1   0.0000
   106 H22B    -1.4914  -5.7071   1.2147   H         1 RES1   0.0000
   107 H26B     3.1553   1.2543   3.7530   H         1 RES1   0.0000
@<TRIPOS>BOND
     1     1     2    1
     2     2     4    1
     3     3     1    1
     4     4     6    1
     5     5     3    1
     6     6     5    1
     7     7     2    2
     8     8     3    2
     9     9     7    1
    10    10     8    1
    11    11     1    1
    12    12    11    1
    13    13    12    1
    14    14    13    1
    15    15    14    1
    16    16    17   ar
    17    17    18   ar
    18    18     6    1
    19    19    18   ar
    20    20    19   ar
    21    21    16   ar
    22    22    23   ar
    23    23     6    1
    24    24    23   ar
    25    25    24   ar
    26    26    25   ar
    27    27    22   ar
    28    28     9    1
    29    29     9    1
    30    30     9    1
    31    31    10    1
    32    32    10    1
    33    33    10    1
    34    34    11    1
    35    35    11    1
    36    36    12    1
    37    37    12    1
    38    38    13    1
    39    39    13    1
    40    40    14    1
    41    41    14    1
    42    42    15    1
    43    43    15    1
    44    44    15    1
    45    45    16    1
    46    46    17    1
    47    47    19    1
    48    48    20    1
    49    49    21    1
    50    50    22    1
    51    51    24    1
    52    52    25    1
    53    53    26    1
    54    54    27    1
    55    55     1    1
    56    56     1    1
    57    57     1    1
    58    58     7    1
    59    59     8    1
    60    60    55    1
    61    61    56    1
    62    62    57    1
    63    63    57    1
    64    64    57    1
    65    65    58    1
    66    66    59    1
    67    67    60    1
    68    68    62    1
    69    69    62    1
    70    70    62    1
    71    71    65    1
    72    72    65    1
    73    73    65    1
    74    74    66    1
    75    75    66    1
    76    76    66    1
    77    77    67    1
    78    78    67    1
    79    79    68    1
    80    80    68    1
    81    81    68    1
    82    82    77   ar
    83    83    77   ar
    84    84    78   ar
    85    85    78   ar
    86    86    79    1
    87    87    79    1
    88    88    79    1
    89    89    82   ar
    90    90    82    1
    91    91    83   ar
    92    92    83    1
    93    93    84   ar
    94    94    84    1
    95    95    85   ar
    96    96    85    1
    97    97    86    1
    98    98    86    1
    99    99    86    1
   100   100    89   ar
   101   101    89    1
   102   102    91    1
   103   103    93   ar
   104   104    93    1
   105   105    95    1
   106   106   100    1
   107   107   103    1
   108    20    21   ar
   109    26    27   ar
   110    55    59    2
   111    56    58    2
   112    61    67    1
   113    91   100   ar
   114    95   103   ar
@<TRIPOS>SUBSTRUCTURE
     1 RES1        1 GROUP             0 ****  ****    0  
@<TRIPOS>CRYSIN
   13.9280    9.8450   15.2880   90.0000  105.8600   90.0000   231     1
