@<TRIPOS>MOLECULE
ZAXDEH
   106   113     1     0     0
SMALL
NO_CHARGES
****
Generated from the CSD

@<TRIPOS>ATOM
     1 Fe1      0.6422  12.5444   0.4579   Fe        1 RES1   0.0000
     2 N1      -0.7620  13.6295   1.1295   N.2       1 RES1   0.0000
     3 N2       0.5696  11.8821   2.2261   N.2       1 RES1   0.0000
     4 N3       2.0297  11.4477  -0.2033   N.2       1 RES1   0.0000
     5 N4       0.6762  13.2376  -1.3143   N.2       1 RES1   0.0000
     6 O1      -1.1793  14.7668   0.4846   O.3       1 RES1   0.0000
     7 O2       1.1883  10.7159   2.6101   O.3       1 RES1   0.0000
     8 O3       2.4389  10.3124   0.4230   O.3       1 RES1   0.0000
     9 O4       0.0487  14.3613  -1.7024   O.3       1 RES1   0.0000
    10 B1      -1.3156  14.6432  -1.0165   B         1 RES1   0.0000
    11 B2       2.5478  10.4340   1.9673   B         1 RES1   0.0000
    12 C1      -1.0987  13.4712   2.3883   C.2       1 RES1   0.0000
    13 C2      -0.3985  12.3301   2.9900   C.2       1 RES1   0.0000
    14 C3       2.3278  11.5829  -1.4293   C.2       1 RES1   0.0000
    15 C4       1.6727  12.7375  -2.0679   C.2       1 RES1   0.0000
    16 C5      -1.9826  14.3729   3.1091   C.3       1 RES1   0.0000
    17 C6      -0.7274  11.7470   4.3289   C.3       1 RES1   0.0000
    18 C7       3.2711  10.6870  -2.2035   C.3       1 RES1   0.0000
    19 C8       1.9959  13.3071  -3.4007   C.3       1 RES1   0.0000
    20 N5      -0.5904  10.9920   0.0534   N.3       1 RES1   0.0000
    21 C9      -0.6946  10.3684  -1.3102   C.3       1 RES1   0.0000
    22 C10     -1.7316   9.2736  -1.4108   C.3       1 RES1   0.0000
    23 C11     -1.7294   8.6558  -2.7908   C.3       1 RES1   0.0000
    24 C12     -2.7078   7.5243  -2.8894   C.3       1 RES1   0.0000
    25 N6       1.8652  14.1238   0.9118   N.3       1 RES1   0.0000
    26 C13      1.9590  14.7166   2.2487   C.3       1 RES1   0.0000
    27 C14      2.9544  15.7669   2.4253   C.3       1 RES1   0.0000
    28 C15      3.0397  16.3384   3.8607   C.3       1 RES1   0.0000
    29 C16      3.9615  17.4139   4.0661   C.3       1 RES1   0.0000
    30 C17     -1.7661  16.1048  -1.5751   C.3       1 RES1   0.0000
    31 C18     -3.0351  16.5315  -0.8995   C.3       1 RES1   0.0000
    32 C19     -4.1901  15.5043  -1.0062   C.3       1 RES1   0.0000
    33 C20     -3.7567  14.0350  -0.7660   C.3       1 RES1   0.0000
    34 C21     -2.4335  13.6141  -1.4416   C.3       1 RES1   0.0000
    35 C22     -2.5330  13.5407  -2.9941   C.3       1 RES1   0.0000
    36 C23     -2.7559  14.8903  -3.6451   C.3       1 RES1   0.0000
    37 C24     -1.8485  16.0256  -3.0886   C.3       1 RES1   0.0000
    38 C25      3.7063  11.4381   2.3924   C.3       1 RES1   0.0000
    39 C26      5.0439  11.0210   1.7168   C.3       1 RES1   0.0000
    40 C27      5.4281   9.5382   2.0043   C.3       1 RES1   0.0000
    41 C28      4.2710   8.5438   1.8462   C.3       1 RES1   0.0000
    42 C29      2.9625   8.9647   2.5177   C.3       1 RES1   0.0000
    43 C30      3.0503   9.0342   4.0702   C.3       1 RES1   0.0000
    44 C31      3.8939  10.1270   4.6575   C.3       1 RES1   0.0000
    45 C32      3.7664  11.5211   3.9203   C.3       1 RES1   0.0000
    46 H1      -2.3273  15.0564   2.5300   H         1 RES1   0.0000
    47 H2      -2.7086  13.8400   3.4438   H         1 RES1   0.0000
    48 H3      -1.5201  14.7803   3.8463   H         1 RES1   0.0000
    49 H4      -0.1378  11.0075   4.4952   H         1 RES1   0.0000
    50 H5      -0.5809  12.4266   4.9902   H         1 RES1   0.0000
    51 H6      -1.6379  11.4477   4.3741   H         1 RES1   0.0000
    52 H7       3.5557  10.0189  -1.5771   H         1 RES1   0.0000
    53 H8       2.8129  10.2661  -2.9345   H         1 RES1   0.0000
    54 H9       4.0377  11.1600  -2.5362   H         1 RES1   0.0000
    55 H10      1.4514  14.0755  -3.5855   H         1 RES1   0.0000
    56 H11      2.9221  13.5600  -3.4151   H         1 RES1   0.0000
    57 H12      1.8379  12.6352  -4.0681   H         1 RES1   0.0000
    58 H13     -1.4235  11.2527   0.2711   H         1 RES1   0.0000
    59 H14     -0.3669  10.3278   0.6181   H         1 RES1   0.0000
    60 H15      0.1686  10.0228  -1.5504   H         1 RES1   0.0000
    61 H16     -0.9302  11.0519  -1.9406   H         1 RES1   0.0000
    62 H17     -2.5979   9.6192  -1.1808   H         1 RES1   0.0000
    63 H18     -1.5026   8.5921  -0.7742   H         1 RES1   0.0000
    64 H19     -0.8534   8.3488  -3.0352   H         1 RES1   0.0000
    65 H20     -1.9966   9.3296  -3.4212   H         1 RES1   0.0000
    66 H21     -2.7242   7.1555  -3.7765   H         1 RES1   0.0000
    67 H22     -2.4330   6.8485  -2.2671   H         1 RES1   0.0000
    68 H23     -3.5850   7.8371  -2.6573   H         1 RES1   0.0000
    69 H24      1.6638  14.7899   0.3388   H         1 RES1   0.0000
    70 H25      2.6960  13.8477   0.7044   H         1 RES1   0.0000
    71 H26      2.1310  14.0215   2.8873   H         1 RES1   0.0000
    72 H27      1.1034  15.0969   2.4622   H         1 RES1   0.0000
    73 H28      2.7509  16.5141   1.8585   H         1 RES1   0.0000
    74 H29      3.8128  15.4194   2.1706   H         1 RES1   0.0000
    75 H30      3.3343  15.6086   4.4111   H         1 RES1   0.0000
    76 H31      2.1530  16.5798   4.1400   H         1 RES1   0.0000
    77 H32      3.9597  17.6707   4.9922   H         1 RES1   0.0000
    78 H33      4.8519  17.1706   3.8032   H         1 RES1   0.0000
    79 H34      3.6590  18.1515   3.5301   H         1 RES1   0.0000
    80 H35     -1.0697  16.7072  -1.3020   H         1 RES1   0.0000
    81 H36     -2.8810  16.6860   0.0349   H         1 RES1   0.0000
    82 H37     -4.5246  15.5236  -1.9057   H         1 RES1   0.0000
    83 H38     -4.9101  15.7534  -0.4230   H         1 RES1   0.0000
    84 H39     -3.9635  13.9578   0.3101   H         1 RES1   0.0000
    85 H40     -4.4614  13.4171  -0.9775   H         1 RES1   0.0000
    86 H41     -2.1732  12.7491  -1.1130   H         1 RES1   0.0000
    87 H42     -1.7427  13.1121  -3.3329   H         1 RES1   0.0000
    88 H43     -3.2899  12.9981  -3.2303   H         1 RES1   0.0000
    89 H44     -2.5470  14.8112  -4.5774   H         1 RES1   0.0000
    90 H45     -3.6773  15.1510  -3.5794   H         1 RES1   0.0000
    91 H46     -0.9599  15.9465  -3.4438   H         1 RES1   0.0000
    92 H47     -2.2074  16.8617  -3.3945   H         1 RES1   0.0000
    93 H48      3.4729  12.2953   2.0310   H         1 RES1   0.0000
    94 H49      5.1554  10.7237   0.7824   H         1 RES1   0.0000
    95 H50      5.7430  11.6196   1.9899   H         1 RES1   0.0000
    96 H51      5.7857   9.4571   2.8914   H         1 RES1   0.0000
    97 H52      6.1280   9.3161   1.3882   H         1 RES1   0.0000
    98 H53      4.5313   7.7116   2.2487   H         1 RES1   0.0000
    99 H54      4.1244   8.3855   0.9097   H         1 RES1   0.0000
   100 H55      2.2691   8.3468   2.2774   H         1 RES1   0.0000
   101 H56      3.3342   8.1827   4.4131   H         1 RES1   0.0000
   102 H57      2.1696   9.2080   4.4111   H         1 RES1   0.0000
   103 H58      4.7980   9.8451   4.5014   H         1 RES1   0.0000
   104 H59      3.7764  10.2197   5.6042   H         1 RES1   0.0000
   105 H60      2.9601  11.9092   4.2714   H         1 RES1   0.0000
   106 H61      4.4939  12.0984   4.1646   H         1 RES1   0.0000
@<TRIPOS>BOND
     1     1     2    1
     2     2     6    1
     3     3     1    1
     4     4     1    1
     5     5     1    1
     6     6    10    1
     7     7     3    1
     8     8     4    1
     9     9     5    1
    10    10     9    1
    11    11     7    1
    12    12     2    2
    13    13     3    2
    14    14     4    2
    15    15     5    2
    16    16    12    1
    17    17    13    1
    18    18    14    1
    19    19    15    1
    20    20     1    1
    21    21    20    1
    22    22    21    1
    23    23    22    1
    24    24    23    1
    25    25     1    1
    26    26    25    1
    27    27    26    1
    28    28    27    1
    29    29    28    1
    30    30    10    1
    31    31    30    1
    32    32    31    1
    33    33    32    1
    34    34    10    1
    35    35    34    1
    36    36    35    1
    37    37    30    1
    38    38    11    1
    39    39    38    1
    40    40    39    1
    41    41    40    1
    42    42    11    1
    43    43    42    1
    44    44    43    1
    45    45    38    1
    46    46    16    1
    47    47    16    1
    48    48    16    1
    49    49    17    1
    50    50    17    1
    51    51    17    1
    52    52    18    1
    53    53    18    1
    54    54    18    1
    55    55    19    1
    56    56    19    1
    57    57    19    1
    58    58    20    1
    59    59    20    1
    60    60    21    1
    61    61    21    1
    62    62    22    1
    63    63    22    1
    64    64    23    1
    65    65    23    1
    66    66    24    1
    67    67    24    1
    68    68    24    1
    69    69    25    1
    70    70    25    1
    71    71    26    1
    72    72    26    1
    73    73    27    1
    74    74    27    1
    75    75    28    1
    76    76    28    1
    77    77    29    1
    78    78    29    1
    79    79    29    1
    80    80    30    1
    81    81    31    1
    82    82    32    1
    83    83    32    1
    84    84    33    1
    85    85    33    1
    86    86    34    1
    87    87    35    1
    88    88    35    1
    89    89    36    1
    90    90    36    1
    91    91    37    1
    92    92    37    1
    93    93    38    1
    94    94    39    1
    95    95    39    1
    96    96    40    1
    97    97    40    1
    98    98    41    1
    99    99    41    1
   100   100    42    1
   101   101    43    1
   102   102    43    1
   103   103    44    1
   104   104    44    1
   105   105    45    1
   106   106    45    1
   107     8    11    1
   108    12    13    1
   109    14    15    1
   110    33    34    1
   111    36    37    1
   112    41    42    1
   113    44    45    1
@<TRIPOS>SUBSTRUCTURE
     1 RES1        1 GROUP             0 ****  ****    0  
@<TRIPOS>CRYSIN
    9.0290   19.3080   20.5600   90.0000   92.7900   90.0000     9     1
