@<TRIPOS>MOLECULE
ZAYYUT
    99   104     1     0     0
SMALL
NO_CHARGES
****
Generated from the CSD

@<TRIPOS>ATOM
     1 Fe1      3.5286   0.8911   3.9851   Fe        1 RES1   0.0000
     2 P1       6.3068   1.1166   2.3206   P.3       1 RES1   0.0000
     3 P2       1.4053   2.6818   2.3256   P.3       1 RES1   0.0000
     4 P3       4.3886   2.5993   6.5608   P.3       1 RES1   0.0000
     5 O1       3.6600  -0.5260   2.6589   O.3       1 RES1   0.0000
     6 O2       5.3856   1.4767   3.4508   O.3       1 RES1   0.0000
     7 O3       6.7268   2.3431   1.4385   O.3       1 RES1   0.0000
     8 O4       7.7387   0.7490   2.8494   O.3       1 RES1   0.0000
     9 O5       1.6931   0.4451   4.4558   O.3       1 RES1   0.0000
    10 O6       2.8000   2.2214   2.6288   O.3       1 RES1   0.0000
    11 O7       0.9346   2.2639   0.9122   O.3       1 RES1   0.0000
    12 O8       1.3145   4.2470   2.2329   O.3       1 RES1   0.0000
    13 O9       4.1878  -0.2715   5.4156   O.3       1 RES1   0.0000
    14 O10      3.5502   2.4061   5.3103   O.3       1 RES1   0.0000
    15 O11      3.5173   3.2597   7.6384   O.3       1 RES1   0.0000
    16 O12      5.5389   3.6427   6.3904   O.3       1 RES1   0.0000
    17 C1       4.4722  -0.7319   1.6590   C.2       1 RES1   0.0000
    18 C2       5.6183  -0.1447   1.3157   C.2       1 RES1   0.0000
    19 C3       7.8676  -0.2128   3.8643   C.3       1 RES1   0.0000
    20 C4       8.8524   0.2128   4.8843   C.3       1 RES1   0.0000
    21 C5       5.7133   2.9959   0.6616   C.3       1 RES1   0.0000
    22 C6       6.1247   4.4427   0.4486   C.3       1 RES1   0.0000
    23 C7       6.3404  -0.5447   0.0827   C.ar      1 RES1   0.0000
    24 C8       7.6755  -0.8511   0.0476   C.ar      1 RES1   0.0000
    25 C9       8.3067  -1.2852  -1.1277   C.ar      1 RES1   0.0000
    26 C10      7.5858  -1.4554  -2.2705   C.ar      1 RES1   0.0000
    27 C11      6.2664  -1.1660  -2.2780   C.ar      1 RES1   0.0000
    28 C12      5.6377  -0.7064  -1.1202   C.ar      1 RES1   0.0000
    29 C13      0.5750   1.0469   4.2778   C.2       1 RES1   0.0000
    30 C14      0.2280   2.0682   3.4834   C.2       1 RES1   0.0000
    31 C15      1.8844   5.0981   3.2328   C.3       1 RES1   0.0000
    32 C16      0.8527   5.6683   4.1525   C.3       1 RES1   0.0000
    33 C17      1.5645   2.4767  -0.3082   C.3       1 RES1   0.0000
    34 C18      1.9428   1.0979  -0.8019   C.3       1 RES1   0.0000
    35 C19     -1.1556   2.6129   3.4809   C.ar      1 RES1   0.0000
    36 C20     -1.8171   2.8767   4.7064   C.ar      1 RES1   0.0000
    37 C21     -3.1054   3.3448   4.7239   C.ar      1 RES1   0.0000
    38 C22     -3.7583   3.5491   3.5636   C.ar      1 RES1   0.0000
    39 C23     -3.1465   3.3193   2.3757   C.ar      1 RES1   0.0000
    40 C24     -1.8606   2.8427   2.3482   C.ar      1 RES1   0.0000
    41 C25      4.8633  -0.0255   6.4982   C.2       1 RES1   0.0000
    42 C26      5.1535   1.1235   7.1372   C.2       1 RES1   0.0000
    43 C27      5.2935   4.9534   5.8967   C.3       1 RES1   0.0000
    44 C28      5.8096   5.0640   4.4883   C.3       1 RES1   0.0000
    45 C29      2.2752   2.7065   8.0344   C.3       1 RES1   0.0000
    46 C30      1.1572   3.6427   7.8289   C.3       1 RES1   0.0000
    47 C31      6.0305   1.0979   8.3326   C.ar      1 RES1   0.0000
    48 C32      7.1154   0.2468   8.3652   C.ar      1 RES1   0.0000
    49 C33      7.9263   0.1617   9.4704   C.ar      1 RES1   0.0000
    50 C34      7.6442   0.9447  10.6006   C.ar      1 RES1   0.0000
    51 C35      6.6137   1.8214  10.5379   C.ar      1 RES1   0.0000
    52 C36      5.7922   1.8980   9.4528   C.ar      1 RES1   0.0000
    53 H1       4.1549  -1.3864   1.0074   H         1 RES1   0.0000
    54 H2       8.2392  -0.9720   3.4583   H         1 RES1   0.0000
    55 H3       7.0320  -0.3634   4.2177   H         1 RES1   0.0000
    56 H4       4.8461   2.9737   1.1553   H         1 RES1   0.0000
    57 H5       5.5422   2.5584  -0.1654   H         1 RES1   0.0000
    58 H6       8.7353  -0.5115   5.4632   H         1 RES1   0.0000
    59 H7       9.5464   0.3609   4.4708   H         1 RES1   0.0000
    60 H8       8.3373   0.9694   5.2301   H         1 RES1   0.0000
    61 H9       5.4274   4.8513  -0.0351   H         1 RES1   0.0000
    62 H10      6.2155   4.8096   1.2981   H         1 RES1   0.0000
    63 H11      6.9098   4.3951  -0.0226   H         1 RES1   0.0000
    64 H12      8.2026  -0.7558   0.8746   H         1 RES1   0.0000
    65 H13      9.2416  -1.4809  -1.1102   H         1 RES1   0.0000
    66 H14      8.0172  -1.7396  -3.0298   H         1 RES1   0.0000
    67 H15      5.7708  -1.2452  -3.0699   H         1 RES1   0.0000
    68 H16      4.7192  -0.4877  -1.1453   H         1 RES1   0.0000
    69 H17     -0.1411   0.7643   4.8191   H         1 RES1   0.0000
    70 H18      2.3272   5.8156   2.8945   H         1 RES1   0.0000
    71 H19      2.4937   4.5449   3.7666   H         1 RES1   0.0000
    72 H20      2.5838   2.5193  -0.1529   H         1 RES1   0.0000
    73 H21      1.3222   3.1065  -0.8370   H         1 RES1   0.0000
    74 H22      1.5430   6.0539   4.7665   H         1 RES1   0.0000
    75 H23      0.4454   6.1041   3.6739   H         1 RES1   0.0000
    76 H24      0.6119   4.8334   4.5460   H         1 RES1   0.0000
    77 H25      2.8613   1.0128  -0.9398   H         1 RES1   0.0000
    78 H26      1.7795   0.4953   0.0476   H         1 RES1   0.0000
    79 H27      1.4037   0.7983  -1.4234   H         1 RES1   0.0000
    80 H28     -1.3200   2.7533   5.5283   H         1 RES1   0.0000
    81 H29     -3.6127   3.5261   5.5158   H         1 RES1   0.0000
    82 H30     -4.6166   3.8197   3.5887   H         1 RES1   0.0000
    83 H31     -1.4139   2.6886   1.5086   H         1 RES1   0.0000
    84 H32      5.2017  -0.8051   6.9067   H         1 RES1   0.0000
    85 H33      5.8193   5.5679   6.3002   H         1 RES1   0.0000
    86 H34      4.4448   5.1075   5.7464   H         1 RES1   0.0000
    87 H35      2.2993   2.6920   8.9742   H         1 RES1   0.0000
    88 H36      2.1695   1.9558   7.6134   H         1 RES1   0.0000
    89 H37      5.6461   5.9313   4.2578   H         1 RES1   0.0000
    90 H38      6.7532   4.8853   4.5535   H         1 RES1   0.0000
    91 H39      5.3787   4.4249   3.9997   H         1 RES1   0.0000
    92 H40      0.3571   3.2904   8.2299   H         1 RES1   0.0000
    93 H41      1.3584   4.4274   8.5657   H         1 RES1   0.0000
    94 H42      1.0876   4.0427   7.0871   H         1 RES1   0.0000
    95 H43      7.3260  -0.2962   7.6159   H         1 RES1   0.0000
    96 H44      8.6815  -0.4000   9.4929   H         1 RES1   0.0000
    97 H45      8.1994   0.8477  11.3925   H         1 RES1   0.0000
    98 H46      6.4076   2.3610  11.3098   H         1 RES1   0.0000
    99 H47      5.0748   2.5056   9.4353   H         1 RES1   0.0000
@<TRIPOS>BOND
     1     1     5    1
     2     2     6    1
     3     3    10    1
     4     4    14    1
     5     5    17    1
     6     6     1    1
     7     7     2    1
     8     8     2    1
     9     9     1    1
    10    10     1    1
    11    11     3    1
    12    12     3    1
    13    13     1    1
    14    14     1    1
    15    15     4    1
    16    16     4    1
    17    17    18    2
    18    18     2    1
    19    19     8    1
    20    20    19    1
    21    21     7    1
    22    22    21    1
    23    23    18    1
    24    24    23   ar
    25    25    24   ar
    26    26    25   ar
    27    27    26   ar
    28    28    23   ar
    29    29     9    1
    30    30     3    1
    31    31    12    1
    32    32    31    1
    33    33    11    1
    34    34    33    1
    35    35    30    1
    36    36    35   ar
    37    37    36   ar
    38    38    37   ar
    39    39    38   ar
    40    40    35   ar
    41    41    13    1
    42    42     4    1
    43    43    16    1
    44    44    43    1
    45    45    15    1
    46    46    45    1
    47    47    42    1
    48    48    47   ar
    49    49    48   ar
    50    50    49   ar
    51    51    50   ar
    52    52    47   ar
    53    53    17    1
    54    54    19    1
    55    55    19    1
    56    56    21    1
    57    57    21    1
    58    58    20    1
    59    59    20    1
    60    60    20    1
    61    61    22    1
    62    62    22    1
    63    63    22    1
    64    64    24    1
    65    65    25    1
    66    66    26    1
    67    67    27    1
    68    68    28    1
    69    69    29    1
    70    70    31    1
    71    71    31    1
    72    72    33    1
    73    73    33    1
    74    74    32    1
    75    75    32    1
    76    76    32    1
    77    77    34    1
    78    78    34    1
    79    79    34    1
    80    80    36    1
    81    81    37    1
    82    82    38    1
    83    83    40    1
    84    84    41    1
    85    85    43    1
    86    86    43    1
    87    87    45    1
    88    88    45    1
    89    89    44    1
    90    90    44    1
    91    91    44    1
    92    92    46    1
    93    93    46    1
    94    94    46    1
    95    95    48    1
    96    96    49    1
    97    97    50    1
    98    98    51    1
    99    99    52    1
   100    27    28   ar
   101    29    30    2
   102    39    40   ar
   103    41    42    2
   104    51    52   ar
@<TRIPOS>SUBSTRUCTURE
     1 RES1        1 GROUP             0 ****  ****    0  
@<TRIPOS>CRYSIN
   19.2490    8.5110   25.3130   90.0000   98.1000   90.0000    14     1
