@<TRIPOS>MOLECULE
ZEBXIQ
   109   123     1     0     0
SMALL
NO_CHARGES
****
Generated from the CSD

@<TRIPOS>ATOM
     1 Fe1      1.5324   2.0708  12.4176   Fe        1 RES1   0.0000
     2 Br1      6.2492   1.4386  19.1592   Br        1 RES1   0.0000
     3 Br2      4.7794   6.7834  18.0477   Br        1 RES1   0.0000
     4 Br3     -3.3473  -2.3270   7.7037   Br        1 RES1   0.0000
     5 Br4     -3.1676   2.9940   5.8128   Br        1 RES1   0.0000
     6 O1       1.1920   0.8312   9.8272   O.3       1 RES1   0.0000
     7 O2      -0.1261   2.8755  10.1937   O.3       1 RES1   0.0000
     8 O3       4.0491   2.9744  13.5322   O.3       1 RES1   0.0000
     9 O4       2.0420   3.6374  14.7578   O.3       1 RES1   0.0000
    10 O5       2.8328   1.3192  14.8766   O.3       1 RES1   0.0000
    11 O6      -0.7791   0.7957  11.2916   O.3       1 RES1   0.0000
    12 N1       0.5000   3.2768  11.3456   N.2       1 RES1   0.0000
    13 N2       1.3285   3.5453  13.5957   N.2       1 RES1   0.0000
    14 N3       0.0777   0.8683  12.3651   N.2       1 RES1   0.0000
    15 N4       1.8822   0.9764  13.9439   N.2       1 RES1   0.0000
    16 N5       3.3938   2.4891  12.4220   N.2       1 RES1   0.0000
    17 N6       2.0922   1.2792  10.7712   N.2       1 RES1   0.0000
    18 B1       3.2355   2.7560  14.7682   B         1 RES1   0.0000
    19 B2      -0.1780   1.3891  10.0695   B         1 RES1   0.0000
    20 C1       5.3409   2.7009  18.0575   C.ar      1 RES1   0.0000
    21 C2       1.3611   7.0389  12.8909   C.ar      1 RES1   0.0000
    22 H1       1.3853   6.9016  11.9513   H         1 RES1   0.0000
    23 C3       5.3718   4.0324  18.4313   C.ar      1 RES1   0.0000
    24 H2       5.7934   4.3139  19.2346   H         1 RES1   0.0000
    25 C4       3.3368   1.4237  10.3914   C.2       1 RES1   0.0000
    26 C5       1.0698  -0.0265  14.2261   C.2       1 RES1   0.0000
    27 C6      -1.5784   1.9765   7.9470   C.ar      1 RES1   0.0000
    28 H3      -1.2110   2.8523   7.9701   H         1 RES1   0.0000
    29 C7       4.6962   2.2621  16.9040   C.ar      1 RES1   0.0000
    30 H4       4.6814   1.3373  16.6874   H         1 RES1   0.0000
    31 C8      -2.6378  -0.5646   7.8083   C.ar      1 RES1   0.0000
    32 C9       6.4476   1.2370  11.0069   C.ar      1 RES1   0.0000
    33 H5       6.1165   0.3470  10.9845   H         1 RES1   0.0000
    34 C10      0.1409   4.4310  11.8543   C.2       1 RES1   0.0000
    35 C11     -2.5377   1.6461   6.9963   C.ar      1 RES1   0.0000
    36 C12     -0.9753   5.6225   9.9387   C.ar      1 RES1   0.0000
    37 H6      -0.4139   5.1722   9.3191   H         1 RES1   0.0000
    38 C13     -1.1594   1.0180   8.8635   C.ar      1 RES1   0.0000
    39 C14     -0.8694   5.3532  11.3064   C.ar      1 RES1   0.0000
    40 C15      3.8994   0.9458   9.1128   C.ar      1 RES1   0.0000
    41 C16      1.4128  -2.7798  17.4749   C.ar      1 RES1   0.0000
    42 H7       1.4857  -3.4153  18.1773   H         1 RES1   0.0000
    43 C17     -1.6967  -0.2703   8.7842   C.ar      1 RES1   0.0000
    44 H8      -1.4191  -0.9416   9.3961   H         1 RES1   0.0000
    45 C18      0.0495  -1.5273  15.9375   C.ar      1 RES1   0.0000
    46 H9      -0.8103  -1.3028  15.6010   H         1 RES1   0.0000
    47 C19      6.0850   3.6009  11.3386   C.ar      1 RES1   0.0000
    48 H10      5.5085   4.3223  11.5616   H         1 RES1   0.0000
    49 C20      0.0267  -0.1310  13.2071   C.2       1 RES1   0.0000
    50 C21      5.5897   2.2932  11.2950   C.ar      1 RES1   0.0000
    51 C22      4.1359   2.0798  11.4208   C.2       1 RES1   0.0000
    52 C23      1.1892  -0.9343  15.3856   C.ar      1 RES1   0.0000
    53 C24      4.0716   3.1869  16.0696   C.ar      1 RES1   0.0000
    54 C25     -2.3207  -0.9154  13.0552   C.ar      1 RES1   0.0000
    55 H11     -2.6065  -0.0117  13.1210   H         1 RES1   0.0000
    56 C26      7.7903   1.4856  10.7516   C.ar      1 RES1   0.0000
    57 H12      8.3808   0.7624  10.5765   H         1 RES1   0.0000
    58 C27      0.1671  -2.4425  16.9751   C.ar      1 RES1   0.0000
    59 H13     -0.6132  -2.8396  17.3445   H         1 RES1   0.0000
    60 C28      4.3296  -0.8815   7.5969   C.ar      1 RES1   0.0000
    61 H14      4.2148  -1.7924   7.3523   H         1 RES1   0.0000
    62 C29      2.4431  -1.2731  15.9110   C.ar      1 RES1   0.0000
    63 H15      3.2267  -0.8719  15.5531   H         1 RES1   0.0000
    64 C30     -1.7255   5.9941  12.2018   C.ar      1 RES1   0.0000
    65 H16     -1.6621   5.8083  13.1313   H         1 RES1   0.0000
    66 C31      4.1226   4.5455  16.4156   C.ar      1 RES1   0.0000
    67 H17      3.7210   5.1960  15.8516   H         1 RES1   0.0000
    68 C32     -3.0805   0.3796   6.9034   C.ar      1 RES1   0.0000
    69 H18     -3.7320   0.1666   6.2450   H         1 RES1   0.0000
    70 C33      4.7005   1.7794   8.3245   C.ar      1 RES1   0.0000
    71 H19      4.8408   2.6848   8.5756   H         1 RES1   0.0000
    72 C34      0.8010   4.6592  13.1389   C.2       1 RES1   0.0000
    73 C35      0.9559   6.2073  15.1164   C.ar      1 RES1   0.0000
    74 H20      0.7033   5.5047  15.7038   H         1 RES1   0.0000
    75 C36      8.2711   2.7861  10.7516   C.ar      1 RES1   0.0000
    76 H21      9.1826   2.9556  10.5438   H         1 RES1   0.0000
    77 C37      5.1161  -0.0517   6.8197   C.ar      1 RES1   0.0000
    78 H22      5.5399  -0.3933   6.0409   H         1 RES1   0.0000
    79 C38      1.6737   8.2835  13.4157   C.ar      1 RES1   0.0000
    80 H23      1.9161   8.9942  12.8336   H         1 RES1   0.0000
    81 C39      1.6366   8.4957  14.7771   C.ar      1 RES1   0.0000
    82 H24      1.8576   9.3479  15.1329   H         1 RES1   0.0000
    83 C40      2.5545  -2.1903  16.9508   C.ar      1 RES1   0.0000
    84 H25      3.4086  -2.4126  17.3010   H         1 RES1   0.0000
    85 C41      4.7584   4.9351  17.5789   C.ar      1 RES1   0.0000
    86 C42     -0.9630  -1.2181  13.0700   C.ar      1 RES1   0.0000
    87 C43     -2.7460   7.1979  10.3870   C.ar      1 RES1   0.0000
    88 H26     -3.3720   7.8413  10.0754   H         1 RES1   0.0000
    89 C44      1.0089   5.9854  13.7392   C.ar      1 RES1   0.0000
    90 C45     -2.8400  -3.2459  12.8400   C.ar      1 RES1   0.0000
    91 H27     -3.4815  -3.9418  12.7628   H         1 RES1   0.0000
    92 C46      3.7077  -0.3840   8.7362   C.ar      1 RES1   0.0000
    93 H28      3.1514  -0.9498   9.2588   H         1 RES1   0.0000
    94 C47     -1.9095   6.5544   9.4863   C.ar      1 RES1   0.0000
    95 H29     -1.9735   6.7499   8.5587   H         1 RES1   0.0000
    96 C48     -0.5481  -2.5385  12.9604   C.ar      1 RES1   0.0000
    97 H30      0.3784  -2.7478  12.9629   H         1 RES1   0.0000
    98 C49      7.4221   3.8391  11.0549   C.ar      1 RES1   0.0000
    99 H31      7.7566   4.7279  11.0686   H         1 RES1   0.0000
   100 C50      5.2896   1.2733   7.1716   C.ar      1 RES1   0.0000
   101 H32      5.8144   1.8430   6.6214   H         1 RES1   0.0000
   102 C51     -2.6723   6.9055  11.7399   C.ar      1 RES1   0.0000
   103 H33     -3.2670   7.3255  12.3506   H         1 RES1   0.0000
   104 C52     -3.2583  -1.9304  12.9449   C.ar      1 RES1   0.0000
   105 H34     -4.1854  -1.7245  12.9411   H         1 RES1   0.0000
   106 C53     -1.4879  -3.5507  12.8476   C.ar      1 RES1   0.0000
   107 H35     -1.2048  -4.4547  12.7752   H         1 RES1   0.0000
   108 C54      1.2743   7.4632  15.6241   C.ar      1 RES1   0.0000
   109 H36      1.2442   7.6124  16.5618   H         1 RES1   0.0000
@<TRIPOS>BOND
     1     1    12    1
     2     2    20    1
     3     3    85    1
     4     4    31    1
     5     5    35    1
     6     6    17    1
     7     7    12    1
     8     8    16    1
     9     9    13    1
    10    10    15    1
    11    11    14    1
    12    12    34    2
    13    13     1    1
    14    14     1    1
    15    15     1    1
    16    16     1    1
    17    17     1    1
    18    18     8    1
    19    19     6    1
    20    20    23   ar
    21    21    22    1
    22    23    24    1
    23    25    17    2
    24    26    15    2
    25    27    28    1
    26    29    20   ar
    27    30    29    1
    28    31    43   ar
    29    32    33    1
    30    34    39    1
    31    35    27   ar
    32    36    37    1
    33    38    19    1
    34    39    36   ar
    35    40    25    1
    36    41    42    1
    37    43    38   ar
    38    44    43    1
    39    45    46    1
    40    47    48    1
    41    49    14    2
    42    50    32   ar
    43    51    16    2
    44    52    26    1
    45    53    18    1
    46    54    55    1
    47    56    32   ar
    48    57    56    1
    49    58    41   ar
    50    59    58    1
    51    60    61    1
    52    62    52   ar
    53    63    62    1
    54    64    39   ar
    55    65    64    1
    56    66    53   ar
    57    67    66    1
    58    68    31   ar
    59    69    68    1
    60    70    40   ar
    61    71    70    1
    62    72    13    2
    63    73    74    1
    64    75    56   ar
    65    76    75    1
    66    77    60   ar
    67    78    77    1
    68    79    21   ar
    69    80    79    1
    70    81    79   ar
    71    82    81    1
    72    83    41   ar
    73    84    83    1
    74    85    23   ar
    75    86    49    1
    76    87    88    1
    77    89    21   ar
    78    90    91    1
    79    92    40   ar
    80    93    92    1
    81    94    36   ar
    82    95    94    1
    83    96    86   ar
    84    97    96    1
    85    98    47   ar
    86    99    98    1
    87   100    70   ar
    88   101   100    1
    89   102    64   ar
    90   103   102    1
    91   104    54   ar
    92   105   104    1
    93   106    90   ar
    94   107   106    1
    95   108    73   ar
    96   109   108    1
    97     7    19    1
    98     9    18    1
    99    10    18    1
   100    11    19    1
   101    25    51    1
   102    26    49    1
   103    27    38   ar
   104    29    53   ar
   105    34    72    1
   106    35    68   ar
   107    45    52   ar
   108    45    58   ar
   109    47    50   ar
   110    50    51    1
   111    54    86   ar
   112    60    92   ar
   113    62    83   ar
   114    66    85   ar
   115    72    89    1
   116    73    89   ar
   117    75    98   ar
   118    77   100   ar
   119    81   108   ar
   120    87    94   ar
   121    87   102   ar
   122    90   104   ar
   123    96   106   ar
@<TRIPOS>SUBSTRUCTURE
     1 RES1        1 GROUP             0 ****  ****    0  
@<TRIPOS>CRYSIN
   11.9905   13.6040   31.6430   90.0000   93.1724   90.0000    14     1
