@<TRIPOS>MOLECULE
ZERFOU
   102   110     2     0     0
SMALL
NO_CHARGES
****
Generated from the CSD

@<TRIPOS>ATOM
     1 Fe1      3.3598   2.7276   0.9888   Fe        1 RES1   0.0000
     2 S1       4.9908   4.6357   0.2576   S.3       1 RES1   0.0000
     3 S2       0.0540   2.9502   5.4807   S.3       1 RES1   0.0000
     4 S3       4.1666   0.9316  -0.7336   S.3       1 RES1   0.0000
     5 S4       4.7113   1.9733   6.5440   S.3       1 RES1   0.0000
     6 N1       2.7928   4.2475   2.2710   N.2       1 RES1   0.0000
     7 N2       4.4957   1.4717   2.1613   N.2       1 RES1   0.0000
     8 N3       1.9966   3.2971  -0.7132   N.ar      1 RES1   0.0000
     9 N4       1.4943   1.5819   1.2350   N.ar      1 RES1   0.0000
    10 C1       4.2010   5.9071   1.2072   C.ar      1 RES1   0.0000
    11 C2       3.1615   5.5461   2.1163   C.ar      1 RES1   0.0000
    12 C3       2.5917   6.6459   2.8226   C.ar      1 RES1   0.0000
    13 H1       1.8858   6.4786   3.4351   H         1 RES1   0.0000
    14 C4       3.0254   7.9369   2.6501   C.ar      1 RES1   0.0000
    15 H2       2.6137   8.6324   3.1498   H         1 RES1   0.0000
    16 C5       4.0434   8.2533   1.7720   C.ar      1 RES1   0.0000
    17 H3       4.3370   9.1512   1.6650   H         1 RES1   0.0000
    18 C6       4.6240   7.2195   1.0514   C.ar      1 RES1   0.0000
    19 H4       5.3249   7.4129   0.4390   H         1 RES1   0.0000
    20 C7       6.5244   4.4104   1.1806   C.3       1 RES1   0.0000
    21 H5       7.1614   5.1117   0.9313   H         1 RES1   0.0000
    22 H6       6.9058   3.5322   0.9705   H         1 RES1   0.0000
    23 H7       6.3378   4.4646   2.1417   H         1 RES1   0.0000
    24 C8       1.8689   3.9568   3.3569   C.3       1 RES1   0.0000
    25 H8       2.0922   4.5488   4.1187   H         1 RES1   0.0000
    26 H9       2.0252   3.0249   3.6531   H         1 RES1   0.0000
    27 C9      -0.5627   3.6465   3.9765   C.ar      1 RES1   0.0000
    28 C10      0.3876   4.1142   3.0560   C.ar      1 RES1   0.0000
    29 C11     -0.0550   4.6581   1.8651   C.ar      1 RES1   0.0000
    30 H10      0.5822   4.9872   1.2417   H         1 RES1   0.0000
    31 C12     -1.4158   4.7368   1.5539   C.ar      1 RES1   0.0000
    32 H11     -1.7032   5.1059   0.7275   H         1 RES1   0.0000
    33 C13     -2.3283   4.2699   2.4673   C.ar      1 RES1   0.0000
    34 H12     -3.2557   4.3191   2.2687   H         1 RES1   0.0000
    35 C14     -1.9214   3.7327   3.6644   C.ar      1 RES1   0.0000
    36 H13     -2.5690   3.4173   4.2849   H         1 RES1   0.0000
    37 C15     -1.4030   2.2020   6.2118   C.3       1 RES1   0.0000
    38 H14     -1.1616   1.7805   7.0631   H         1 RES1   0.0000
    39 H15     -1.7638   1.5258   5.6019   H         1 RES1   0.0000
    40 H16     -2.0800   2.8928   6.3701   H         1 RES1   0.0000
    41 C16      4.4206  -0.2927   0.5201   C.ar      1 RES1   0.0000
    42 C17      4.6027   0.1447   1.8615   C.ar      1 RES1   0.0000
    43 C18      4.8766  -0.8826   2.8036   C.ar      1 RES1   0.0000
    44 H17      5.0447  -0.6528   3.7095   H         1 RES1   0.0000
    45 C19      4.9027  -2.2227   2.4212   C.ar      1 RES1   0.0000
    46 H18      5.0999  -2.8851   3.0730   H         1 RES1   0.0000
    47 C20      4.6513  -2.6148   1.1277   C.ar      1 RES1   0.0000
    48 H19      4.6317  -3.5360   0.8937   H         1 RES1   0.0000
    49 C21      4.4266  -1.6359   0.1734   C.ar      1 RES1   0.0000
    50 H20      4.2744  -1.8877  -0.7306   H         1 RES1   0.0000
    51 C22      5.8690   1.4205  -1.0821   C.3       1 RES1   0.0000
    52 H21      6.2619   0.7983  -1.7293   H         1 RES1   0.0000
    53 H22      6.3911   1.4033  -0.2524   H         1 RES1   0.0000
    54 H23      5.8785   2.3280  -1.4550   H         1 RES1   0.0000
    55 C23      4.6274   1.8107   3.5682   C.3       1 RES1   0.0000
    56 H24      4.0527   1.1927   4.0874   H         1 RES1   0.0000
    57 H25      4.2669   2.7243   3.6970   H         1 RES1   0.0000
    58 C24      6.1758   1.8655   5.5580   C.ar      1 RES1   0.0000
    59 C25      6.0229   1.7680   4.1664   C.ar      1 RES1   0.0000
    60 C26      7.1541   1.6997   3.3679   C.ar      1 RES1   0.0000
    61 H26      7.0564   1.6120   2.4270   H         1 RES1   0.0000
    62 C27      8.4335   1.7560   3.9221   C.ar      1 RES1   0.0000
    63 H27      9.2014   1.7192   3.3646   H         1 RES1   0.0000
    64 C28      8.5668   1.8666   5.2896   C.ar      1 RES1   0.0000
    65 H28      9.4343   1.9164   5.6724   H         1 RES1   0.0000
    66 C29      7.4602   1.9070   6.1069   C.ar      1 RES1   0.0000
    67 H29      7.5705   1.9643   7.0490   H         1 RES1   0.0000
    68 C30      5.3243   1.7182   8.2166   C.3       1 RES1   0.0000
    69 H30      4.5752   1.7594   8.8489   H         1 RES1   0.0000
    70 H31      5.9758   2.4161   8.4350   H         1 RES1   0.0000
    71 H32      5.7530   0.8405   8.2766   H         1 RES1   0.0000
    72 C31      2.3421   4.1029  -1.7323   C.ar      1 RES1   0.0000
    73 H33      3.2151   4.4761  -1.7403   H         1 RES1   0.0000
    74 C32      1.4841   4.4100  -2.7663   C.ar      1 RES1   0.0000
    75 H34      1.7625   4.9776  -3.4743   H         1 RES1   0.0000
    76 C33      0.2260   3.8799  -2.7505   C.ar      1 RES1   0.0000
    77 H35     -0.3840   4.0759  -3.4524   H         1 RES1   0.0000
    78 C34     -0.1561   3.0580  -1.7111   C.ar      1 RES1   0.0000
    79 H36     -1.0304   2.6879  -1.6870   H         1 RES1   0.0000
    80 C35      0.7559   2.7781  -0.6958   C.ar      1 RES1   0.0000
    81 C36      0.4447   1.8944   0.4439   C.ar      1 RES1   0.0000
    82 C37     -0.8350   1.4198   0.7223   C.ar      1 RES1   0.0000
    83 H37     -1.5639   1.6465   0.1568   H         1 RES1   0.0000
    84 C38     -1.0346   0.6235   1.8187   C.ar      1 RES1   0.0000
    85 H38     -1.9061   0.3101   2.0288   H         1 RES1   0.0000
    86 C39      0.0419   0.2766   2.6188   C.ar      1 RES1   0.0000
    87 H39     -0.0698  -0.2872   3.3756   H         1 RES1   0.0000
    88 C40      1.2824   0.7775   2.2795   C.ar      1 RES1   0.0000
    89 H40      2.0262   0.5361   2.8190   H         1 RES1   0.0000
    90 O1      10.3103  -1.4205   6.4564   O.3       2 RES2   0.0000
    91 C41      8.9263  -1.6809   6.5551   C.3       2 RES2   0.0000
    92 H41      8.4678  -0.9419   7.0302   H         2 RES2   0.0000
    93 H42      8.7671  -2.5233   7.0521   H         2 RES2   0.0000
    94 C42      8.4235  -1.7960   5.1770   C.3       2 RES2   0.0000
    95 H43      8.0420  -0.9400   4.8587   H         2 RES2   0.0000
    96 H44      7.7416  -2.5099   5.0986   H         2 RES2   0.0000
    97 C43      9.6603  -2.1442   4.4433   C.3       2 RES2   0.0000
    98 H45      9.7792  -3.1263   4.4088   H         2 RES2   0.0000
    99 H46      9.6260  -1.7958   3.5182   H         2 RES2   0.0000
   100 C44     10.7546  -1.5201   5.1880   C.3       2 RES2   0.0000
   101 H47     11.5703  -2.0791   5.1457   H         2 RES2   0.0000
   102 H48     10.9627  -0.6260   4.8180   H         2 RES2   0.0000
@<TRIPOS>BOND
     1     1     2    1
     2     2    10    1
     3     3    27    1
     4     4     1    1
     5     5    58    1
     6     6     1    1
     7     7     1    1
     8     8     1    1
     9     9     1    1
    10    10    11   ar
    11    11     6    1
    12    12    11   ar
    13    13    12    1
    14    14    12   ar
    15    15    14    1
    16    16    14   ar
    17    17    16    1
    18    18    10   ar
    19    19    18    1
    20    20     2    1
    21    21    20    1
    22    22    20    1
    23    23    20    1
    24    24     6    1
    25    25    24    1
    26    26    24    1
    27    27    28   ar
    28    28    24    1
    29    29    28   ar
    30    30    29    1
    31    31    29   ar
    32    32    31    1
    33    33    31   ar
    34    34    33    1
    35    35    27   ar
    36    36    35    1
    37    37     3    1
    38    38    37    1
    39    39    37    1
    40    40    37    1
    41    41     4    1
    42    42     7    1
    43    43    42   ar
    44    44    43    1
    45    45    43   ar
    46    46    45    1
    47    47    45   ar
    48    48    47    1
    49    49    41   ar
    50    50    49    1
    51    51     4    1
    52    52    51    1
    53    53    51    1
    54    54    51    1
    55    55     7    1
    56    56    55    1
    57    57    55    1
    58    58    59   ar
    59    59    55    1
    60    60    59   ar
    61    61    60    1
    62    62    60   ar
    63    63    62    1
    64    64    62   ar
    65    65    64    1
    66    66    58   ar
    67    67    66    1
    68    68     5    1
    69    69    68    1
    70    70    68    1
    71    71    68    1
    72    72     8   ar
    73    73    72    1
    74    74    72   ar
    75    75    74    1
    76    76    74   ar
    77    77    76    1
    78    78    76   ar
    79    79    78    1
    80    80     8   ar
    81    81     9   ar
    82    82    81   ar
    83    83    82    1
    84    84    82   ar
    85    85    84    1
    86    86    84   ar
    87    87    86    1
    88    88     9   ar
    89    89    88    1
    90    16    18   ar
    91    33    35   ar
    92    41    42   ar
    93    47    49   ar
    94    64    66   ar
    95    78    80   ar
    96    80    81    1
    97    86    88   ar
    98    90    91    1
    99    91    92    1
   100    93    91    1
   101    94    91    1
   102    95    94    1
   103    96    94    1
   104    97    94    1
   105    98    97    1
   106    99    97    1
   107   100    90    1
   108   101   100    1
   109   102   100    1
   110    97   100    1
@<TRIPOS>SUBSTRUCTURE
     1 RES1        1 GROUP             0 ****  ****    0  
     2 RES2       90 GROUP             0 ****  ****    0  
@<TRIPOS>CRYSIN
   13.8420   19.1448   16.1119   90.0000  103.3210   90.0000   231     1
