@<TRIPOS>MOLECULE
ZEYTAB01
   143   149     2     0     0
SMALL
NO_CHARGES
****
Generated from the CSD

@<TRIPOS>ATOM
     1 Fe1     10.3910  10.3910   2.8376   Fe        1 RES1   0.0000
     2 S1       7.4887  13.8949   3.3295   S.2       1 RES1   0.0000
     3 N1       3.9652  15.7736  13.6970   N.ar      1 RES1   0.0000
     4 N2       8.8130   9.7939   4.2822   N.ar      1 RES1   0.0000
     5 N3       9.7052  12.3556   2.8547   N.2       1 RES1   0.0000
     6 O1       4.6787   7.6409   6.1646   O.2       1 RES1   0.0000
     7 O2       4.8907   9.5445   7.3092   O.3       1 RES1   0.0000
     8 O3       4.3767  11.7793  10.8026   O.3       1 RES1   0.0000
     9 O4       5.9922  13.0747   9.9801   O.2       1 RES1   0.0000
    10 C1       8.7991  13.0096   3.0275   C.1       1 RES1   0.0000
    11 C2       7.0978  10.3107   5.8889   C.ar      1 RES1   0.0000
    12 H1       6.7265  10.9203   6.4840   H         1 RES1   0.0000
    13 C3       8.2283  10.6293   5.1847   C.ar      1 RES1   0.0000
    14 H2       8.6190  11.4606   5.3335   H         1 RES1   0.0000
    15 C4       8.2380   8.5913   4.1086   C.ar      1 RES1   0.0000
    16 H3       8.6218   8.0025   3.5011   H         1 RES1   0.0000
    17 C5       7.1019   8.1867   4.7930   C.ar      1 RES1   0.0000
    18 H4       6.7375   7.3444   4.6442   H         1 RES1   0.0000
    19 C6       6.5131   9.0665   5.7054   C.ar      1 RES1   0.0000
    20 C7       5.2814   8.6495   6.3997   C.2       1 RES1   0.0000
    21 C8       3.7726   9.1871   8.1552   C.3       1 RES1   0.0000
    22 H5       3.9999   8.4237   8.7081   H         1 RES1   0.0000
    23 H6       3.0009   8.9571   7.6147   H         1 RES1   0.0000
    24 C9       3.4637  10.3910   9.0230   C.3       1 RES1   0.0000
    25 C10      4.6760  10.6958   9.8983   C.3       1 RES1   0.0000
    26 H7       4.9184   9.9061  10.4066   H         1 RES1   0.0000
    27 H8       5.4297  10.9383   9.3379   H         1 RES1   0.0000
    28 C11      5.1138  12.8766  10.7662   C.2       1 RES1   0.0000
    29 C12      4.7217  13.8547  11.8051   C.ar      1 RES1   0.0000
    30 C13      3.7893  13.5568  12.7845   C.ar      1 RES1   0.0000
    31 H9       3.4041  12.7117  12.8366   H         1 RES1   0.0000
    32 C14      3.4498  14.5474  13.6871   C.ar      1 RES1   0.0000
    33 H10      2.8125  14.3410  14.3317   H         1 RES1   0.0000
    34 C15      4.8727  16.0479  12.7523   C.ar      1 RES1   0.0000
    35 H11      5.2468  16.8986  12.7300   H         1 RES1   0.0000
    36 C16      5.2800  15.1072  11.7952   C.ar      1 RES1   0.0000
    37 H12      5.9229  15.3302  11.1604   H         1 RES1   0.0000
    38 N1A      2.9621   5.0085  13.6970   N.ar      1 RES1   0.0000
    39 N2A     -1.8856  10.9882   4.2822   N.ar      1 RES1   0.0000
    40 O1A      2.2486  13.1412   6.1646   O.2       1 RES1   0.0000
    41 O2A      2.0366  11.2375   7.3092   O.3       1 RES1   0.0000
    42 O3A      2.5507   9.0028  10.8026   O.3       1 RES1   0.0000
    43 O4A      0.9352   7.7074   9.9801   O.2       1 RES1   0.0000
    44 C2A     -0.1704  10.4714   5.8889   C.ar      1 RES1   0.0000
    45 H1A      0.2009   9.8618   6.4840   H         1 RES1   0.0000
    46 C3A     -1.3010  10.1527   5.1847   C.ar      1 RES1   0.0000
    47 H2A     -1.6917   9.3214   5.3335   H         1 RES1   0.0000
    48 C4A     -1.3107  12.1908   4.1086   C.ar      1 RES1   0.0000
    49 H3A     -1.6944  12.7796   3.5011   H         1 RES1   0.0000
    50 C5A     -0.1746  12.5953   4.7930   C.ar      1 RES1   0.0000
    51 H4A      0.1898  13.4377   4.6442   H         1 RES1   0.0000
    52 C6A      0.4143  11.7155   5.7054   C.ar      1 RES1   0.0000
    53 C7A      1.6459  12.1326   6.3997   C.2       1 RES1   0.0000
    54 C8A      3.1547  11.5950   8.1552   C.3       1 RES1   0.0000
    55 H5A      2.9275  12.3584   8.7081   H         1 RES1   0.0000
    56 H6A      3.9264  11.8250   7.6147   H         1 RES1   0.0000
    57 C10A     2.2514  10.0862   9.8983   C.3       1 RES1   0.0000
    58 H7A      2.0089  10.8759  10.4066   H         1 RES1   0.0000
    59 H8A      1.4977   9.8438   9.3379   H         1 RES1   0.0000
    60 C11A     1.8136   7.9055  10.7662   C.2       1 RES1   0.0000
    61 C12A     2.2057   6.9274  11.8051   C.ar      1 RES1   0.0000
    62 C13A     3.1381   7.2252  12.7845   C.ar      1 RES1   0.0000
    63 H9A      3.5233   8.0704  12.8366   H         1 RES1   0.0000
    64 C14A     3.4775   6.2346  13.6871   C.ar      1 RES1   0.0000
    65 H10A     4.1148   6.4411  14.3317   H         1 RES1   0.0000
    66 C15A     2.0547   4.7342  12.7523   C.ar      1 RES1   0.0000
    67 H11A     1.6806   3.8835  12.7300   H         1 RES1   0.0000
    68 C16A     1.6473   5.6749  11.7952   C.ar      1 RES1   0.0000
    69 H12A     1.0045   5.4518  11.1604   H         1 RES1   0.0000
    70 S1A     13.2933   6.8872   3.3295   S.2       1 RES1   0.0000
    71 N3A     11.0768   8.4264   2.8547   N.2       1 RES1   0.0000
    72 C1A     11.9829   7.7725   3.0275   C.1       1 RES1   0.0000
    73 Fe1     -3.4637  10.3910   2.8376   Fe        1 RES1   0.0000
    74 Fe1B     3.4637   3.4637  15.2353   Fe        1 RES1   0.0000
    75 Fe1B     3.4637  17.3184  15.2353   Fe        1 RES1   0.0000
    76 N1B     11.9358  10.8926   1.2993   N.3       1 RES1   0.0000
    77 N1C      8.8462   9.8895   1.2993   N.3       1 RES1   0.0000
    78 N2A     11.9691  10.9882   4.2822   N.3       1 RES1   0.0000
    79 N4       4.0968  -1.2552   0.8480   N.ar      2 RES2   0.0000
    80 O5       4.3836   2.1170   4.4518   O.3       2 RES2   0.0000
    81 O6       5.7248   3.0522   2.8837   O.2       2 RES2   0.0000
    82 C17      5.1373   0.8521   1.1803   C.ar      2 RES2   0.0000
    83 H13      5.6707   1.5365   0.8455   H         2 RES2   0.0000
    84 C18      4.9170  -0.2702   0.4141   C.ar      2 RES2   0.0000
    85 H14      5.3368  -0.3533  -0.4116   H         2 RES2   0.0000
    86 C19      3.5690  -1.1624   2.0803   C.ar      2 RES2   0.0000
    87 H15      3.0591  -1.8676   2.4076   H         2 RES2   0.0000
    88 C20      3.7616  -0.0554   2.8688   C.ar      2 RES2   0.0000
    89 H16      3.3390   0.0000   3.6945   H         2 RES2   0.0000
    90 C21      4.5790   0.9795   2.4473   C.ar      2 RES2   0.0000
    91 C22      4.9059   2.1821   3.2482   C.2       2 RES2   0.0000
    92 C23      4.6538   3.2462   5.3112   C.3       2 RES2   0.0000
    93 H17      4.8187   4.0386   4.7781   H         2 RES2   0.0000
    94 H18      5.4421   3.0716   5.8517   H         2 RES2   0.0000
    95 C24      3.4637   3.4637   6.1989   C.3       2 RES2   0.0000
    96 N4A      2.8305   8.1826   0.8480   N.ar      2 RES2   0.0000
    97 O5A      2.5437   4.8104   4.4518   O.3       2 RES2   0.0000
    98 O6A      1.2026   3.8752   2.8837   O.2       2 RES2   0.0000
    99 C17A     1.7900   6.0753   1.1803   C.ar      2 RES2   0.0000
   100 H13A     1.2566   5.3909   0.8455   H         2 RES2   0.0000
   101 C18A     2.0103   7.1975   0.4141   C.ar      2 RES2   0.0000
   102 H14A     1.5905   7.2806  -0.4116   H         2 RES2   0.0000
   103 C19A     3.3584   8.0898   2.0803   C.ar      2 RES2   0.0000
   104 H15A     3.8682   8.7950   2.4076   H         2 RES2   0.0000
   105 C20A     3.1658   6.9828   2.8688   C.ar      2 RES2   0.0000
   106 H16A     3.5884   6.9274   3.6945   H         2 RES2   0.0000
   107 C21A     2.3484   5.9478   2.4473   C.ar      2 RES2   0.0000
   108 C22A     2.0214   4.7452   3.2482   C.2       2 RES2   0.0000
   109 C23A     2.2736   3.6812   5.3112   C.3       2 RES2   0.0000
   110 H17A     2.1087   2.8887   4.7781   H         2 RES2   0.0000
   111 H18A     1.4852   3.8558   5.8517   H         2 RES2   0.0000
   112 N4F     -1.2552   2.8305  11.5497   N.ar      2 RES2   0.0000
   113 O5F      2.1170   2.5437   7.9459   O.3       2 RES2   0.0000
   114 O6F      3.0522   1.2026   9.5140   O.2       2 RES2   0.0000
   115 C17F     0.8521   1.7900  11.2174   C.ar      2 RES2   0.0000
   116 H13F     1.5365   1.2566  11.5522   H         2 RES2   0.0000
   117 C18F    -0.2702   2.0103  11.9836   C.ar      2 RES2   0.0000
   118 H14F    -0.3533   1.5905  12.8093   H         2 RES2   0.0000
   119 C19F    -1.1624   3.3584  10.3174   C.ar      2 RES2   0.0000
   120 H15F    -1.8676   3.8682   9.9901   H         2 RES2   0.0000
   121 C20F    -0.0554   3.1658   9.5289   C.ar      2 RES2   0.0000
   122 H16F     0.0000   3.5884   8.7032   H         2 RES2   0.0000
   123 C21F     0.9795   2.3484   9.9504   C.ar      2 RES2   0.0000
   124 C22F     2.1821   2.0214   9.1495   C.2       2 RES2   0.0000
   125 C23F     3.2462   2.2736   7.0865   C.3       2 RES2   0.0000
   126 H17F     4.0386   2.1087   7.6196   H         2 RES2   0.0000
   127 H18F     3.0716   1.4852   6.5460   H         2 RES2   0.0000
   128 N4G      8.1826   4.0968  11.5497   N.ar      2 RES2   0.0000
   129 O5G      4.8104   4.3836   7.9459   O.3       2 RES2   0.0000
   130 O6G      3.8752   5.7248   9.5140   O.2       2 RES2   0.0000
   131 C17G     6.0753   5.1373  11.2174   C.ar      2 RES2   0.0000
   132 H13G     5.3909   5.6707  11.5522   H         2 RES2   0.0000
   133 C18G     7.1975   4.9170  11.9836   C.ar      2 RES2   0.0000
   134 H14G     7.2806   5.3368  12.8093   H         2 RES2   0.0000
   135 C19G     8.0898   3.5690  10.3174   C.ar      2 RES2   0.0000
   136 H15G     8.7950   3.0591   9.9901   H         2 RES2   0.0000
   137 C20G     6.9828   3.7616   9.5289   C.ar      2 RES2   0.0000
   138 H16G     6.9274   3.3390   8.7032   H         2 RES2   0.0000
   139 C21G     5.9478   4.5790   9.9504   C.ar      2 RES2   0.0000
   140 C22G     4.7452   4.9059   9.1495   C.2       2 RES2   0.0000
   141 C23G     3.6812   4.6538   7.0865   C.3       2 RES2   0.0000
   142 H17G     2.8887   4.8187   7.6196   H         2 RES2   0.0000
   143 H18G     3.8558   5.4421   6.5460   H         2 RES2   0.0000
@<TRIPOS>BOND
     1     1     4    1
     2     2    10    2
     3     3    32   ar
     4     4    13   ar
     5     5     1    1
     6     6    20    2
     7     7    20    1
     8     8    25    1
     9     9    28    2
    10    10     5    2
    11    11    12    1
    12    13    11   ar
    13    14    13    1
    14    15     4   ar
    15    16    15    1
    16    17    15   ar
    17    18    17    1
    18    19    11   ar
    19    20    19    1
    20    21     7    1
    21    22    21    1
    22    23    21    1
    23    24    21    1
    24    25    24    1
    25    26    25    1
    26    27    25    1
    27    28     8    1
    28    29    28    1
    29    30    29   ar
    30    31    30    1
    31    32    30   ar
    32    33    32    1
    33    34     3   ar
    34    35    34    1
    35    36    29   ar
    36    37    36    1
    37    38    64   ar
    38    39    46   ar
    39    40    53    2
    40    41    53    1
    41    42    57    1
    42    43    60    2
    43    44    45    1
    44    46    44   ar
    45    47    46    1
    46    48    39   ar
    47    49    48    1
    48    50    48   ar
    49    51    50    1
    50    52    44   ar
    51    53    52    1
    52    54    24    1
    53    55    54    1
    54    56    54    1
    55    57    24    1
    56    58    57    1
    57    59    57    1
    58    60    42    1
    59    61    60    1
    60    62    61   ar
    61    63    62    1
    62    64    62   ar
    63    65    64    1
    64    66    38   ar
    65    67    66    1
    66    68    61   ar
    67    69    68    1
    68    70    72    2
    69    71     1    1
    70    72    71    2
    71    73    39   un
    72    74    38   un
    73    75     3   un
    74    76     1   un
    75    77     1   un
    76    78     1   un
    77    17    19   ar
    78    34    36   ar
    79    41    54    1
    80    50    52   ar
    81    66    68   ar
    82    79    84   ar
    83    80    91    1
    84    81    91    2
    85    82    83    1
    86    84    82   ar
    87    85    84    1
    88    86    79   ar
    89    87    86    1
    90    88    86   ar
    91    89    88    1
    92    90    82   ar
    93    91    90    1
    94    92    80    1
    95    93    92    1
    96    94    92    1
    97    95    92    1
    98    96   101   ar
    99    97   108    1
   100    98   108    2
   101    99   100    1
   102   101    99   ar
   103   102   101    1
   104   103    96   ar
   105   104   103    1
   106   105   103   ar
   107   106   105    1
   108   107    99   ar
   109   108   107    1
   110   109    95    1
   111   110   109    1
   112   111   109    1
   113   112   117   ar
   114   113   124    1
   115   114   124    2
   116   115   116    1
   117   117   115   ar
   118   118   117    1
   119   119   112   ar
   120   120   119    1
   121   121   119   ar
   122   122   121    1
   123   123   115   ar
   124   124   123    1
   125   125    95    1
   126   126   125    1
   127   127   125    1
   128   128   133   ar
   129   129   140    1
   130   130   140    2
   131   131   132    1
   132   133   131   ar
   133   134   133    1
   134   135   128   ar
   135   136   135    1
   136   137   135   ar
   137   138   137    1
   138   139   131   ar
   139   140   139    1
   140   141    95    1
   141   142   141    1
   142   143   141    1
   143    88    90   ar
   144    97   109    1
   145   105   107   ar
   146   113   125    1
   147   121   123   ar
   148   129   141    1
   149   137   139   ar
@<TRIPOS>SUBSTRUCTURE
     1 RES1        1 GROUP             0 ****  ****    0  
     2 RES2       79 GROUP             0 ****  ****    0  
