@<TRIPOS>MOLECULE
ZEYTAB
   143   149     2     0     0
SMALL
NO_CHARGES
****
Generated from the CSD

@<TRIPOS>ATOM
     1 Fe1     10.4370  -3.4790   9.6336   Fe        1 RES1   0.0000
     2 S1      13.2785   0.0834   9.2068   S.2       1 RES1   0.0000
     3 O1       4.7454  -0.7264   6.2516   O.2       1 RES1   0.0000
     4 O2       4.9160  -2.6484   5.1377   O.3       1 RES1   0.0000
     5 O3       2.5980  -2.0621   1.6587   O.3       1 RES1   0.0000
     6 O4       0.9310  -0.8127   2.4117   O.2       1 RES1   0.0000
     7 N1       2.9808   1.9204  -1.2528   N.ar      1 RES1   0.0000
     8 N2       8.8422  -2.8820   8.1604   N.ar      1 RES1   0.0000
     9 N3      11.1147  -1.5224   9.6048   N.2       1 RES1   0.0000
    10 C1       3.5166   0.7028  -1.2441   C.ar      1 RES1   0.0000
    11 H1       4.1525   0.4996  -1.8913   H         1 RES1   0.0000
    12 C2       3.1868  -0.2728  -0.3355   C.ar      1 RES1   0.0000
    13 H2       3.6015  -1.1049  -0.3683   H         1 RES1   0.0000
    14 C3       2.2433  -0.0070   0.6184   C.ar      1 RES1   0.0000
    15 C4       1.6644   1.2232   0.6147   C.ar      1 RES1   0.0000
    16 H3       1.0103   1.4389   1.2393   H         1 RES1   0.0000
    17 C5       2.0651   2.1598  -0.3399   C.ar      1 RES1   0.0000
    18 H4       1.6630   2.9975  -0.3285   H         1 RES1   0.0000
    19 C6       1.8341  -0.9866   1.6582   C.2       1 RES1   0.0000
    20 C7       2.2725  -3.1422   2.5496   C.3       1 RES1   0.0000
    21 H5       2.0136  -3.9229   2.0357   H         1 RES1   0.0000
    22 H6       1.5238  -2.8876   3.1107   H         1 RES1   0.0000
    23 C8       3.4790  -3.4790   3.4231   C.3       1 RES1   0.0000
    24 C9       3.8144  -2.2794   4.2898   C.3       1 RES1   0.0000
    25 H7       4.0579  -1.5224   3.7329   H         1 RES1   0.0000
    26 H8       3.0462  -2.0303   4.8279   H         1 RES1   0.0000
    27 C10      5.3298  -1.7298   6.0371   C.2       1 RES1   0.0000
    28 C11      6.5544  -2.1723   6.7431   C.ar      1 RES1   0.0000
    29 C12      7.1514  -3.3997   6.5550   C.ar      1 RES1   0.0000
    30 H9       6.7952  -4.0092   5.9502   H         1 RES1   0.0000
    31 C13      8.2758  -3.7100   7.2719   C.ar      1 RES1   0.0000
    32 H10      8.6697  -4.5422   7.1348   H         1 RES1   0.0000
    33 C14      8.2633  -1.7019   8.3291   C.ar      1 RES1   0.0000
    34 H11      8.6404  -1.1105   8.9391   H         1 RES1   0.0000
    35 C15      7.1389  -1.3053   7.6534   C.ar      1 RES1   0.0000
    36 H12      6.7715  -0.4648   7.8042   H         1 RES1   0.0000
    37 C16     12.0053  -0.8377   9.4442   C.1       1 RES1   0.0000
    38 O1A      2.2126  -6.2316   6.2516   O.2       1 RES1   0.0000
    39 O2A      2.0420  -4.3096   5.1377   O.3       1 RES1   0.0000
    40 O3A      4.3600  -4.8959   1.6587   O.3       1 RES1   0.0000
    41 O4A      6.0270  -6.1453   2.4117   O.2       1 RES1   0.0000
    42 N1A      3.9772  -8.8784  -1.2528   N.ar      1 RES1   0.0000
    43 N2A     -1.8842  -4.0760   8.1604   N.ar      1 RES1   0.0000
    44 C1A      3.4414  -7.6608  -1.2441   C.ar      1 RES1   0.0000
    45 H1A      2.8055  -7.4576  -1.8913   H         1 RES1   0.0000
    46 C2A      3.7712  -6.6852  -0.3355   C.ar      1 RES1   0.0000
    47 H2A      3.3565  -5.8531  -0.3683   H         1 RES1   0.0000
    48 C3A      4.7147  -6.9510   0.6184   C.ar      1 RES1   0.0000
    49 C4A      5.2936  -8.1812   0.6147   C.ar      1 RES1   0.0000
    50 H3A      5.9477  -8.3969   1.2393   H         1 RES1   0.0000
    51 C5A      4.8929  -9.1178  -0.3399   C.ar      1 RES1   0.0000
    52 H4A      5.2950  -9.9555  -0.3285   H         1 RES1   0.0000
    53 C6A      5.1239  -5.9714   1.6582   C.2       1 RES1   0.0000
    54 C7A      4.6855  -3.8158   2.5496   C.3       1 RES1   0.0000
    55 H5A      4.9444  -3.0351   2.0357   H         1 RES1   0.0000
    56 H6A      5.4342  -4.0704   3.1107   H         1 RES1   0.0000
    57 C9A      3.1436  -4.6786   4.2898   C.3       1 RES1   0.0000
    58 H7A      2.9001  -5.4356   3.7329   H         1 RES1   0.0000
    59 H8A      3.9118  -4.9277   4.8279   H         1 RES1   0.0000
    60 C10A     1.6282  -5.2282   6.0371   C.2       1 RES1   0.0000
    61 C11A     0.4036  -4.7857   6.7431   C.ar      1 RES1   0.0000
    62 C12A    -0.1934  -3.5583   6.5550   C.ar      1 RES1   0.0000
    63 H9A      0.1628  -2.9488   5.9502   H         1 RES1   0.0000
    64 C13A    -1.3178  -3.2480   7.2719   C.ar      1 RES1   0.0000
    65 H10A    -1.7117  -2.4158   7.1348   H         1 RES1   0.0000
    66 C14A    -1.3053  -5.2561   8.3291   C.ar      1 RES1   0.0000
    67 H11A    -1.6824  -5.8475   8.9391   H         1 RES1   0.0000
    68 C15A    -0.1809  -5.6527   7.6534   C.ar      1 RES1   0.0000
    69 H12A     0.1865  -6.4932   7.8042   H         1 RES1   0.0000
    70 S1A      7.5955  -7.0414   9.2068   S.2       1 RES1   0.0000
    71 N3A      9.7593  -5.4356   9.6048   N.2       1 RES1   0.0000
    72 C16A     8.8687  -6.1203   9.4442   C.1       1 RES1   0.0000
    73 Fe1     -3.4790  -3.4790   9.6336   Fe        1 RES1   0.0000
    74 Fe1B     3.4790 -10.4370  -2.8094   Fe        1 RES1   0.0000
    75 Fe1B     3.4790   3.4790  -2.8094   Fe        1 RES1   0.0000
    76 N1B     11.9956  -3.9772  11.1902   N.3       1 RES1   0.0000
    77 N1C      8.8784  -2.9808  11.1902   N.3       1 RES1   0.0000
    78 N2A     12.0318  -4.0760   8.1604   N.3       1 RES1   0.0000
    79 O5       3.9730  15.2492   2.8903   O.2       2 RES2   0.0000
    80 O6       4.8720  16.4807   4.5024   O.3       2 RES2   0.0000
    81 N4       8.3162  16.8732   0.9755   N.ar      2 RES2   0.0000
    82 C17      7.3407  16.0618   0.5102   C.ar      2 RES2   0.0000
    83 H13      7.4478  15.6597  -0.3210   H         2 RES2   0.0000
    84 C18      6.1982  15.8114   1.2294   C.ar      2 RES2   0.0000
    85 H14      5.5260  15.2784   0.8685   H         2 RES2   0.0000
    86 C19      6.0535  16.3610   2.4986   C.ar      2 RES2   0.0000
    87 C20      7.0345  17.1334   2.9813   C.ar      2 RES2   0.0000
    88 H15      6.9747  17.5022   3.8324   H         2 RES2   0.0000
    89 C21      8.1158  17.3658   2.1999   C.ar      2 RES2   0.0000
    90 H16      8.7782  17.9182   2.5458   H         2 RES2   0.0000
    91 C22      4.8525  16.0104   3.2725   C.2       2 RES2   0.0000
    92 C23      3.7281  16.1885   5.3405   C.3       2 RES2   0.0000
    93 H17      3.9048  15.4064   5.8855   H         2 RES2   0.0000
    94 H18      2.9488  16.0104   4.7906   H         2 RES2   0.0000
    95 C24      3.4790  17.3950   6.2215   C.3       2 RES2   0.0000
    96 O5A      2.9850  19.5408   2.8903   O.2       2 RES2   0.0000
    97 O6A      2.0860  18.3093   4.5024   O.3       2 RES2   0.0000
    98 N4A     -1.3582  17.9169   0.9755   N.ar      2 RES2   0.0000
    99 C17A    -0.3827  18.7282   0.5102   C.ar      2 RES2   0.0000
   100 H13A    -0.4898  19.1303  -0.3210   H         2 RES2   0.0000
   101 C18A     0.7598  18.9786   1.2294   C.ar      2 RES2   0.0000
   102 H14A     1.4320  19.5116   0.8685   H         2 RES2   0.0000
   103 C19A     0.9045  18.4290   2.4986   C.ar      2 RES2   0.0000
   104 C20A    -0.0765  17.6566   2.9813   C.ar      2 RES2   0.0000
   105 H15A    -0.0167  17.2878   3.8324   H         2 RES2   0.0000
   106 C21A    -1.1578  17.4242   2.1999   C.ar      2 RES2   0.0000
   107 H16A    -1.8202  16.8718   2.5458   H         2 RES2   0.0000
   108 C22A     2.1055  18.7796   3.2725   C.2       2 RES2   0.0000
   109 C23A     3.2299  18.6015   5.3405   C.3       2 RES2   0.0000
   110 H17A     3.0532  19.3836   5.8855   H         2 RES2   0.0000
   111 H18A     4.0092  18.7796   4.7906   H         2 RES2   0.0000
   112 O5F      1.3332  16.9010   9.5527   O.2       2 RES2   0.0000
   113 O6F      2.5647  16.0020   7.9406   O.3       2 RES2   0.0000
   114 N4F      2.9572  12.5578  11.4675   N.ar      2 RES2   0.0000
   115 C17F     2.1458  13.5333  11.9328   C.ar      2 RES2   0.0000
   116 H13F     1.7437  13.4262  12.7640   H         2 RES2   0.0000
   117 C18F     1.8954  14.6758  11.2136   C.ar      2 RES2   0.0000
   118 H14F     1.3624  15.3480  11.5745   H         2 RES2   0.0000
   119 C19F     2.4450  14.8205   9.9444   C.ar      2 RES2   0.0000
   120 C20F     3.2174  13.8395   9.4617   C.ar      2 RES2   0.0000
   121 H15F     3.5862  13.8993   8.6106   H         2 RES2   0.0000
   122 C21F     3.4498  12.7582  10.2431   C.ar      2 RES2   0.0000
   123 H16F     4.0022  12.0958   9.8972   H         2 RES2   0.0000
   124 C22F     2.0944  16.0215   9.1705   C.2       2 RES2   0.0000
   125 C23F     2.2725  17.1459   7.1025   C.3       2 RES2   0.0000
   126 H17F     1.4904  16.9692   6.5575   H         2 RES2   0.0000
   127 H18F     2.0944  17.9252   7.6524   H         2 RES2   0.0000
   128 O5G      5.6248  17.8890   9.5527   O.2       2 RES2   0.0000
   129 O6G      4.3933  18.7880   7.9406   O.3       2 RES2   0.0000
   130 N4G      4.0009  22.2322  11.4675   N.ar      2 RES2   0.0000
   131 C17G     4.8122  21.2567  11.9328   C.ar      2 RES2   0.0000
   132 H13G     5.2143  21.3638  12.7640   H         2 RES2   0.0000
   133 C18G     5.0626  20.1142  11.2136   C.ar      2 RES2   0.0000
   134 H14G     5.5956  19.4420  11.5745   H         2 RES2   0.0000
   135 C19G     4.5130  19.9695   9.9444   C.ar      2 RES2   0.0000
   136 C20G     3.7406  20.9505   9.4617   C.ar      2 RES2   0.0000
   137 H15G     3.3718  20.8907   8.6106   H         2 RES2   0.0000
   138 C21G     3.5082  22.0318  10.2431   C.ar      2 RES2   0.0000
   139 H16G     2.9558  22.6942   9.8972   H         2 RES2   0.0000
   140 C22G     4.8636  18.7685   9.1705   C.2       2 RES2   0.0000
   141 C23G     4.6855  17.6441   7.1025   C.3       2 RES2   0.0000
   142 H17G     5.4676  17.8208   6.5575   H         2 RES2   0.0000
   143 H18G     4.8636  16.8648   7.6524   H         2 RES2   0.0000
@<TRIPOS>BOND
     1     1     8    1
     2     2    37    2
     3     3    27    2
     4     4    24    1
     5     5    19    1
     6     6    19    2
     7     7    10   ar
     8     8    31   ar
     9     9     1    1
    10    10    11    1
    11    12    10   ar
    12    13    12    1
    13    14    12   ar
    14    15    14   ar
    15    16    15    1
    16    17     7   ar
    17    18    17    1
    18    19    14    1
    19    20     5    1
    20    21    20    1
    21    22    20    1
    22    23    20    1
    23    24    23    1
    24    25    24    1
    25    26    24    1
    26    27     4    1
    27    28    27    1
    28    29    28   ar
    29    30    29    1
    30    31    29   ar
    31    32    31    1
    32    33     8   ar
    33    34    33    1
    34    35    28   ar
    35    36    35    1
    36    37     9    2
    37    38    60    2
    38    39    57    1
    39    40    53    1
    40    41    53    2
    41    42    44   ar
    42    43    64   ar
    43    44    45    1
    44    46    44   ar
    45    47    46    1
    46    48    46   ar
    47    49    48   ar
    48    50    49    1
    49    51    42   ar
    50    52    51    1
    51    53    48    1
    52    54    23    1
    53    55    54    1
    54    56    54    1
    55    57    23    1
    56    58    57    1
    57    59    57    1
    58    60    39    1
    59    61    60    1
    60    62    61   ar
    61    63    62    1
    62    64    62   ar
    63    65    64    1
    64    66    43   ar
    65    67    66    1
    66    68    61   ar
    67    69    68    1
    68    70    72    2
    69    71     1    1
    70    72    71    2
    71    73    43   un
    72    74    42   un
    73    75     7   un
    74    76     1   un
    75    77     1   un
    76    78     1   un
    77    15    17   ar
    78    33    35   ar
    79    40    54    1
    80    49    51   ar
    81    66    68   ar
    82    79    91    2
    83    80    91    1
    84    81    82   ar
    85    82    83    1
    86    84    82   ar
    87    85    84    1
    88    86    84   ar
    89    87    86   ar
    90    88    87    1
    91    89    81   ar
    92    90    89    1
    93    91    86    1
    94    92    80    1
    95    93    92    1
    96    94    92    1
    97    95    92    1
    98    96   108    2
    99    97   108    1
   100    98    99   ar
   101    99   100    1
   102   101    99   ar
   103   102   101    1
   104   103   101   ar
   105   104   103   ar
   106   105   104    1
   107   106    98   ar
   108   107   106    1
   109   108   103    1
   110   109    95    1
   111   110   109    1
   112   111   109    1
   113   112   124    2
   114   113   124    1
   115   114   115   ar
   116   115   116    1
   117   117   115   ar
   118   118   117    1
   119   119   117   ar
   120   120   119   ar
   121   121   120    1
   122   122   114   ar
   123   123   122    1
   124   124   119    1
   125   125    95    1
   126   126   125    1
   127   127   125    1
   128   128   140    2
   129   129   140    1
   130   130   131   ar
   131   131   132    1
   132   133   131   ar
   133   134   133    1
   134   135   133   ar
   135   136   135   ar
   136   137   136    1
   137   138   130   ar
   138   139   138    1
   139   140   135    1
   140   141    95    1
   141   142   141    1
   142   143   141    1
   143    87    89   ar
   144    97   109    1
   145   104   106   ar
   146   113   125    1
   147   120   122   ar
   148   129   141    1
   149   136   138   ar
@<TRIPOS>SUBSTRUCTURE
     1 RES1        1 GROUP             0 ****  ****    0  
     2 RES2       79 GROUP             0 ****  ****    0  
