@<TRIPOS>MOLECULE
ZIDMIM
   103   106     5     0     0
SMALL
NO_CHARGES
****
Generated from the CSD

@<TRIPOS>ATOM
     1 Fe1      7.5455  -0.2388   4.5228   Fe        1 RES1   0.0000
     2 O1      12.7042  -0.5472   2.5269   O.2       1 RES1   0.0000
     3 O2      12.2341  -2.5813   3.3062   O.3       1 RES1   0.0000
     4 O3       3.4251   2.1585   7.3736   O.2       1 RES1   0.0000
     5 O4       3.8338   0.1486   8.2655   O.3       1 RES1   0.0000
     6 N1       8.8238   0.7422   3.4587   N.2       1 RES1   0.0000
     7 N2       8.5478  -1.8507   4.5188   N.2       1 RES1   0.0000
     8 N3       6.3229  -1.1970   5.5971   N.2       1 RES1   0.0000
     9 N4       6.5462   1.4199   4.5926   N.2       1 RES1   0.0000
    10 N5       6.5692  -0.8058   2.8839   N.2       1 RES1   0.0000
    11 N6       4.9631  -1.0524   1.4062   N.pl3     1 RES1   0.0000
    12 N7       8.4823   0.4198   6.1889   N.2       1 RES1   0.0000
    13 N8       9.1118   0.6010   8.2921   N.pl3     1 RES1   0.0000
    14 C1      10.1165   0.4443   3.3389   C.2       1 RES1   0.0000
    15 C2      10.5654  -0.9145   3.5422   C.2       1 RES1   0.0000
    16 C3       9.7696  -1.9705   4.0614   C.2       1 RES1   0.0000
    17 H1      10.1557  -2.8379   4.0784   H         1 RES1   0.0000
    18 C4       7.8304  -2.9453   5.0634   C.ar      1 RES1   0.0000
    19 C5       8.2209  -4.2809   5.0791   C.ar      1 RES1   0.0000
    20 H2       9.0556  -4.5331   4.7030   H         1 RES1   0.0000
    21 C6       7.3994  -5.2481   5.6406   C.ar      1 RES1   0.0000
    22 H3       7.6779  -6.1563   5.6542   H         1 RES1   0.0000
    23 C7       6.1733  -4.8933   6.1828   C.ar      1 RES1   0.0000
    24 H4       5.6106  -5.5611   6.5560   H         1 RES1   0.0000
    25 C8       5.7627  -3.5713   6.1828   C.ar      1 RES1   0.0000
    26 H5       4.9218  -3.3335   6.5553   H         1 RES1   0.0000
    27 C9       6.5844  -2.5912   5.6346   C.ar      1 RES1   0.0000
    28 C10      5.3594  -0.6513   6.2917   C.2       1 RES1   0.0000
    29 H6       4.7883  -1.2339   6.7792   H         1 RES1   0.0000
    30 C11      5.0953   0.7463   6.3764   C.2       1 RES1   0.0000
    31 C12      5.7244   1.7658   5.5753   C.2       1 RES1   0.0000
    32 C13      7.0071   2.3046   3.5979   C.ar      1 RES1   0.0000
    33 C14      6.2878   3.3787   3.0726   C.ar      1 RES1   0.0000
    34 H7       5.4492   3.6111   3.4553   H         1 RES1   0.0000
    35 C15      6.7779   4.1130   2.0004   C.ar      1 RES1   0.0000
    36 H8       6.2890   4.8609   1.6762   H         1 RES1   0.0000
    37 C16      7.9748   3.7598   1.4026   C.ar      1 RES1   0.0000
    38 H9       8.3121   4.2714   0.6761   H         1 RES1   0.0000
    39 C17      8.6836   2.6617   1.8613   C.ar      1 RES1   0.0000
    40 H10      9.4777   2.3940   1.4130   H         1 RES1   0.0000
    41 C18      8.2432   1.9398   2.9783   C.ar      1 RES1   0.0000
    42 C19     11.9097  -1.2728   3.0847   C.2       1 RES1   0.0000
    43 C20     13.5089  -3.0295   2.7895   C.3       1 RES1   0.0000
    44 H11     13.8444  -3.7745   3.3484   H         1 RES1   0.0000
    45 H12     14.1631  -2.2882   2.8448   H         1 RES1   0.0000
    46 C21     13.3996  -3.4877   1.3663   C.3       1 RES1   0.0000
    47 H13     14.2767  -3.7920   1.0530   H         1 RES1   0.0000
    48 H14     13.0918  -2.7449   0.8068   H         1 RES1   0.0000
    49 H15     12.7582  -4.2269   1.3102   H         1 RES1   0.0000
    50 C22     11.1360   1.5479   3.1271   C.3       1 RES1   0.0000
    51 H16     10.7388   2.4101   3.3685   H         1 RES1   0.0000
    52 H17     11.4090   1.5645   2.1866   H         1 RES1   0.0000
    53 H18     11.9199   1.3797   3.6919   H         1 RES1   0.0000
    54 C23      5.5735   3.2144   5.9819   C.3       1 RES1   0.0000
    55 H19      6.2969   3.7422   5.5852   H         1 RES1   0.0000
    56 H20      5.6151   3.2847   6.9588   H         1 RES1   0.0000
    57 H21      4.7099   3.5532   5.6667   H         1 RES1   0.0000
    58 C24      4.0612   1.1098   7.3458   C.2       1 RES1   0.0000
    59 C25      2.7389   0.3518   9.1877   C.3       1 RES1   0.0000
    60 H22      1.9474   0.7048   8.7087   H         1 RES1   0.0000
    61 H23      2.9968   0.9996   9.8902   H         1 RES1   0.0000
    62 C26      2.4289  -0.9730   9.7940   C.3       1 RES1   0.0000
    63 H24      1.7513  -0.8616  10.4935   H         1 RES1   0.0000
    64 H25      3.2430  -1.3523  10.1851   H         1 RES1   0.0000
    65 H26      2.0867  -1.5771   9.1018   H         1 RES1   0.0000
    66 C27      7.0921  -1.3323   1.7100   C.2       1 RES1   0.0000
    67 H27      8.0043  -1.5546   1.5711   H         1 RES1   0.0000
    68 C28      6.1125  -1.4796   0.7999   C.2       1 RES1   0.0000
    69 H28      6.2010  -1.8127  -0.0848   H         1 RES1   0.0000
    70 C29      5.2837  -0.6598   2.6430   C.2       1 RES1   0.0000
    71 H29      4.6591  -0.3176   3.2716   H         1 RES1   0.0000
    72 C30      9.1108   1.6334   6.3813   C.2       1 RES1   0.0000
    73 H30      9.2537   2.2853   5.7051   H         1 RES1   0.0000
    74 C31      9.4926   1.7624   7.6750   C.2       1 RES1   0.0000
    75 H31      9.9335   2.5043   8.0711   H         1 RES1   0.0000
    76 C32      8.5170  -0.1757   7.3664   C.2       1 RES1   0.0000
    77 H32      8.1673  -1.0413   7.5391   H         1 RES1   0.0000
    78 H33      4.1225  -0.9872   1.0287   H         1 RES1   0.0000
    79 H34      9.2230   0.4618   9.0521   H         1 RES1   0.0000
    80 O5       9.8388  -0.1403  10.9376   O.3       2 RES2   0.0000
    81 C33     10.9818  -0.9228  10.9328   C.3       2 RES2   0.0000
    82 H35     11.5232  -0.7057  10.1454   H         2 RES2   0.0000
    83 H36     10.7297  -1.8691  10.9057   H         2 RES2   0.0000
    84 H37     11.5013  -0.7460  11.7451   H         2 RES2   0.0000
    85 H38      9.3697  -0.3358  11.6540   H         2 RES2   0.0000
    86 O6      11.4459  -4.6630  -1.1388   O.3       3 RES3   0.0000
    87 C34     12.5051  -5.1903  -1.8649   C.3       3 RES3   0.0000
    88 H39     13.2259  -4.5275  -1.9194   H         3 RES3   0.0000
    89 H40     12.2015  -5.4160  -2.7692   H         3 RES3   0.0000
    90 H41     12.8370  -5.9974  -1.4204   H         3 RES3   0.0000
    91 H42     11.0935  -4.2457  -1.5490   H         3 RES3   0.0000
    92 O7      14.6608  -0.4387   0.6656   O.3       4 RES4   0.0000
    93 C35     14.3788   0.8284   0.1343   C.3       4 RES4   0.0000
    94 H43     13.5854   1.1983   0.5749   H         4 RES4   0.0000
    95 H44     14.2115   0.7494  -0.8278   H         4 RES4   0.0000
    96 H45     15.1431   1.4235   0.2852   H         4 RES4   0.0000
    97 H46     14.2325  -0.5395   1.2465   H         4 RES4   0.0000
    98 O8       3.7637   3.9056   9.3498   O.3       5 RES5   0.0000
    99 C36      3.6495   5.1458   8.6976   C.3       5 RES5   0.0000
   100 H47      2.8471   5.6090   9.0160   H         5 RES5   0.0000
   101 H48      3.5816   5.0005   7.7309   H         5 RES5   0.0000
   102 H49      4.4406   5.6902   8.8918   H         5 RES5   0.0000
   103 H50      3.5575   3.2909   8.8948   H         5 RES5   0.0000
@<TRIPOS>BOND
     1     1     6    1
     2     2    42    2
     3     3    42    1
     4     4    58    2
     5     5    58    1
     6     6    14   un
     7     7     1    1
     8     8     1    1
     9     9     1    1
    10    10     1    1
    11    11    68    1
    12    12     1    1
    13    13    74    1
    14    14    15   un
    15    15    16   un
    16    16     7   un
    17    17    16    1
    18    18     7    1
    19    19    18   ar
    20    20    19    1
    21    21    19   ar
    22    22    21    1
    23    23    21   ar
    24    24    23    1
    25    25    23   ar
    26    26    25    1
    27    27     8    1
    28    28     8   un
    29    29    28    1
    30    30    28   un
    31    31     9   un
    32    32     9    1
    33    33    32   ar
    34    34    33    1
    35    35    33   ar
    36    36    35    1
    37    37    35   ar
    38    38    37    1
    39    39    37   ar
    40    40    39    1
    41    41     6    1
    42    42    15    1
    43    43     3    1
    44    44    43    1
    45    45    43    1
    46    46    43    1
    47    47    46    1
    48    48    46    1
    49    49    46    1
    50    50    14    1
    51    51    50    1
    52    52    50    1
    53    53    50    1
    54    54    31    1
    55    55    54    1
    56    56    54    1
    57    57    54    1
    58    58    30    1
    59    59     5    1
    60    60    59    1
    61    61    59    1
    62    62    59    1
    63    63    62    1
    64    64    62    1
    65    65    62    1
    66    66    10    1
    67    67    66    1
    68    68    66    2
    69    69    68    1
    70    70    10    2
    71    71    70    1
    72    72    12    1
    73    73    72    1
    74    74    72    2
    75    75    74    1
    76    76    12    2
    77    77    76    1
    78    78    11    1
    79    79    13    1
    80    11    70    1
    81    13    76    1
    82    18    27   ar
    83    25    27   ar
    84    30    31   un
    85    32    41   ar
    86    39    41   ar
    87    80    81    1
    88    81    82    1
    89    83    81    1
    90    84    81    1
    91    85    80    1
    92    86    87    1
    93    87    88    1
    94    89    87    1
    95    90    87    1
    96    91    86    1
    97    92    93    1
    98    93    94    1
    99    95    93    1
   100    96    93    1
   101    97    92    1
   102    98    99    1
   103    99   100    1
   104   101    99    1
   105   102    99    1
   106   103    98    1
@<TRIPOS>SUBSTRUCTURE
     1 RES1        1 GROUP             0 ****  ****    0  
     2 RES2       80 GROUP             0 ****  ****    0  
     3 RES3       86 GROUP             0 ****  ****    0  
     4 RES4       92 GROUP             0 ****  ****    0  
     5 RES5       98 GROUP             0 ****  ****    0  
@<TRIPOS>CRYSIN
   12.3536   12.8366   14.1177  111.0520  109.1250   96.2600     2     1
